MODEL 1
REMARK VINA RESULT:      -4.9      0.000      0.000
REMARK  Name = NuBBE_2105
REMARK  10 active torsions:
REMARK  status: ('A' for Active; 'I' for Inactive)
REMARK    1  A    between atoms: C_1  and  C_2
REMARK    2  A    between atoms: C_2  and  C_3
REMARK    3  A    between atoms: C_3  and  C_4
REMARK    4  A    between atoms: C_4  and  C_5
REMARK    5  A    between atoms: C_5  and  C_6
REMARK    6  A    between atoms: C_6  and  C_7
REMARK    7  A    between atoms: C_7  and  C_8
REMARK    8  A    between atoms: C_8  and  C_9
REMARK    9  A    between atoms: C_9  and  C_10
REMARK   10  A    between atoms: C_10  and  C_11
REMARK                            x       y       z     vdW  Elec       q    Type
REMARK                         _______ _______ _______ _____ _____    ______ ____
ROOT
ATOM      1  C   LIG A   1      -9.044  -2.531 123.165  0.00  0.00    -0.000 C 
ENDROOT
BRANCH   1   2
ATOM      2  C   LIG A   1      -9.368  -3.536 124.285  0.00  0.00    -0.000 C 
BRANCH   2   3
ATOM      3  C   LIG A   1      -9.418  -2.873 125.663  0.00  0.00    -0.000 C 
BRANCH   3   4
ATOM      4  C   LIG A   1      -8.703  -3.685 126.745  0.00  0.00    -0.000 C 
BRANCH   4   6
ATOM      5  C   LIG A   1      -8.270  -3.208 129.216  0.00  0.00    +0.004 C 
ATOM      6  C   LIG A   1      -8.007  -2.788 127.775  0.00  0.00    -0.003 C 
ENDBRANCH   4   6
ENDBRANCH   3   4
ENDBRANCH   2   3
ENDBRANCH   1   2
BRANCH   1   7
ATOM      7  C   LIG A   1      -8.557  -1.206 123.735  0.00  0.00    +0.000 C 
BRANCH   7   8
ATOM      8  C   LIG A   1      -7.285  -0.655 123.102  0.00  0.00    +0.000 C 
BRANCH   8   9
ATOM      9  C   LIG A   1      -6.194  -1.719 122.854  0.00  0.00    +0.004 C 
BRANCH   9  10
ATOM     10  C   LIG A   1      -5.547  -2.340 124.105  0.00  0.00    +0.026 C 
BRANCH  10  11
ATOM     11  C   LIG A   1      -5.368  -3.844 124.058  0.00  0.00    -0.035 C 
ATOM     12  C   LIG A   1      -4.326  -4.488 123.548  0.00  0.00    +0.004 C 
ENDBRANCH  10  11
ENDBRANCH   9  10
ENDBRANCH   8   9
ENDBRANCH   7   8
ENDBRANCH   1   7
TORSDOF 9
ENDMDL
MODEL 2
REMARK VINA RESULT:      -4.8      1.471      2.569
REMARK  Name = NuBBE_2105
REMARK  10 active torsions:
REMARK  status: ('A' for Active; 'I' for Inactive)
REMARK    1  A    between atoms: C_1  and  C_2
REMARK    2  A    between atoms: C_2  and  C_3
REMARK    3  A    between atoms: C_3  and  C_4
REMARK    4  A    between atoms: C_4  and  C_5
REMARK    5  A    between atoms: C_5  and  C_6
REMARK    6  A    between atoms: C_6  and  C_7
REMARK    7  A    between atoms: C_7  and  C_8
REMARK    8  A    between atoms: C_8  and  C_9
REMARK    9  A    between atoms: C_9  and  C_10
REMARK   10  A    between atoms: C_10  and  C_11
REMARK                            x       y       z     vdW  Elec       q    Type
REMARK                         _______ _______ _______ _____ _____    ______ ____
ROOT
ATOM      1  C   LIG A   1      -9.171  -3.222 126.156  0.00  0.00    -0.000 C 
ENDROOT
BRANCH   1   2
ATOM      2  C   LIG A   1      -8.862  -3.815 127.543  0.00  0.00    -0.000 C 
BRANCH   2   3
ATOM      3  C   LIG A   1      -7.937  -2.915 128.366  0.00  0.00    -0.000 C 
BRANCH   3   4
ATOM      4  C   LIG A   1      -7.545  -3.530 129.710  0.00  0.00    -0.000 C 
BRANCH   4   6
ATOM      5  C   LIG A   1      -5.594  -4.855 130.692  0.00  0.00    +0.004 C 
ATOM      6  C   LIG A   1      -6.024  -3.647 129.870  0.00  0.00    -0.003 C 
ENDBRANCH   4   6
ENDBRANCH   3   4
ENDBRANCH   2   3
ENDBRANCH   1   2
BRANCH   1   7
ATOM      7  C   LIG A   1      -8.245  -3.795 125.092  0.00  0.00    +0.000 C 
BRANCH   7   8
ATOM      8  C   LIG A   1      -8.190  -3.008 123.788  0.00  0.00    +0.000 C 
BRANCH   8   9
ATOM      9  C   LIG A   1      -6.937  -2.117 123.644  0.00  0.00    +0.004 C 
BRANCH   9  10
ATOM     10  C   LIG A   1      -5.647  -2.639 124.302  0.00  0.00    +0.026 C 
BRANCH  10  11
ATOM     11  C   LIG A   1      -4.723  -3.411 123.383  0.00  0.00    -0.035 C 
ATOM     12  C   LIG A   1      -4.135  -4.568 123.662  0.00  0.00    +0.004 C 
ENDBRANCH  10  11
ENDBRANCH   9  10
ENDBRANCH   8   9
ENDBRANCH   7   8
ENDBRANCH   1   7
TORSDOF 9
ENDMDL
MODEL 3
REMARK VINA RESULT:      -4.7      1.115      4.664
REMARK  Name = NuBBE_2105
REMARK  10 active torsions:
REMARK  status: ('A' for Active; 'I' for Inactive)
REMARK    1  A    between atoms: C_1  and  C_2
REMARK    2  A    between atoms: C_2  and  C_3
REMARK    3  A    between atoms: C_3  and  C_4
REMARK    4  A    between atoms: C_4  and  C_5
REMARK    5  A    between atoms: C_5  and  C_6
REMARK    6  A    between atoms: C_6  and  C_7
REMARK    7  A    between atoms: C_7  and  C_8
REMARK    8  A    between atoms: C_8  and  C_9
REMARK    9  A    between atoms: C_9  and  C_10
REMARK   10  A    between atoms: C_10  and  C_11
REMARK                            x       y       z     vdW  Elec       q    Type
REMARK                         _______ _______ _______ _____ _____    ______ ____
ROOT
ATOM      1  C   LIG A   1      -7.368  -2.013 126.750  0.00  0.00    -0.000 C 
ENDROOT
BRANCH   1   2
ATOM      2  C   LIG A   1      -5.957  -2.343 126.228  0.00  0.00    -0.000 C 
BRANCH   2   3
ATOM      3  C   LIG A   1      -5.614  -1.568 124.955  0.00  0.00    -0.000 C 
BRANCH   3   4
ATOM      4  C   LIG A   1      -5.053  -2.459 123.845  0.00  0.00    -0.000 C 
BRANCH   4   6
ATOM      5  C   LIG A   1      -4.301  -4.859 123.402  0.00  0.00    +0.004 C 
ATOM      6  C   LIG A   1      -5.281  -3.948 124.130  0.00  0.00    -0.003 C 
ENDBRANCH   4   6
ENDBRANCH   3   4
ENDBRANCH   2   3
ENDBRANCH   1   2
BRANCH   1   7
ATOM      7  C   LIG A   1      -8.304  -3.204 126.606  0.00  0.00    +0.000 C 
BRANCH   7   8
ATOM      8  C   LIG A   1      -9.417  -3.036 125.579  0.00  0.00    +0.000 C 
BRANCH   8   9
ATOM      9  C   LIG A   1      -9.017  -3.442 124.145  0.00  0.00    +0.004 C 
BRANCH   9  10
ATOM     10  C   LIG A   1      -8.804  -2.292 123.143  0.00  0.00    +0.026 C 
BRANCH  10  11
ATOM     11  C   LIG A   1      -9.014  -0.901 123.706  0.00  0.00    -0.035 C 
ATOM     12  C   LIG A   1      -8.444   0.213 123.262  0.00  0.00    +0.004 C 
ENDBRANCH  10  11
ENDBRANCH   9  10
ENDBRANCH   8   9
ENDBRANCH   7   8
ENDBRANCH   1   7
TORSDOF 9
ENDMDL
MODEL 4
REMARK VINA RESULT:      -4.7      1.247      3.196
REMARK  Name = NuBBE_2105
REMARK  10 active torsions:
REMARK  status: ('A' for Active; 'I' for Inactive)
REMARK    1  A    between atoms: C_1  and  C_2
REMARK    2  A    between atoms: C_2  and  C_3
REMARK    3  A    between atoms: C_3  and  C_4
REMARK    4  A    between atoms: C_4  and  C_5
REMARK    5  A    between atoms: C_5  and  C_6
REMARK    6  A    between atoms: C_6  and  C_7
REMARK    7  A    between atoms: C_7  and  C_8
REMARK    8  A    between atoms: C_8  and  C_9
REMARK    9  A    between atoms: C_9  and  C_10
REMARK   10  A    between atoms: C_10  and  C_11
REMARK                            x       y       z     vdW  Elec       q    Type
REMARK                         _______ _______ _______ _____ _____    ______ ____
ROOT
ATOM      1  C   LIG A   1      -6.496  -2.376 127.772  0.00  0.00    -0.000 C 
ENDROOT
BRANCH   1   2
ATOM      2  C   LIG A   1      -7.911  -2.420 128.378  0.00  0.00    -0.000 C 
BRANCH   2   3
ATOM      3  C   LIG A   1      -8.762  -3.543 127.783  0.00  0.00    -0.000 C 
BRANCH   3   4
ATOM      4  C   LIG A   1      -8.503  -3.763 126.291  0.00  0.00    -0.000 C 
BRANCH   4   6
ATOM      5  C   LIG A   1      -9.355  -3.281 123.933  0.00  0.00    +0.004 C 
ATOM      6  C   LIG A   1      -9.449  -2.935 125.413  0.00  0.00    -0.003 C 
ENDBRANCH   4   6
ENDBRANCH   3   4
ENDBRANCH   2   3
ENDBRANCH   1   2
BRANCH   1   7
ATOM      7  C   LIG A   1      -6.200  -1.015 127.156  0.00  0.00    +0.000 C 
BRANCH   7   8
ATOM      8  C   LIG A   1      -5.420  -1.050 125.848  0.00  0.00    +0.000 C 
BRANCH   8   9
ATOM      9  C   LIG A   1      -6.301  -1.249 124.595  0.00  0.00    +0.004 C 
BRANCH   9  10
ATOM     10  C   LIG A   1      -5.784  -2.252 123.548  0.00  0.00    +0.026 C 
BRANCH  10  11
ATOM     11  C   LIG A   1      -5.482  -3.639 124.078  0.00  0.00    -0.035 C 
ATOM     12  C   LIG A   1      -4.361  -4.321 123.880  0.00  0.00    +0.004 C 
ENDBRANCH  10  11
ENDBRANCH   9  10
ENDBRANCH   8   9
ENDBRANCH   7   8
ENDBRANCH   1   7
TORSDOF 9
ENDMDL
MODEL 5
REMARK VINA RESULT:      -4.6      1.695      5.114
REMARK  Name = NuBBE_2105
REMARK  10 active torsions:
REMARK  status: ('A' for Active; 'I' for Inactive)
REMARK    1  A    between atoms: C_1  and  C_2
REMARK    2  A    between atoms: C_2  and  C_3
REMARK    3  A    between atoms: C_3  and  C_4
REMARK    4  A    between atoms: C_4  and  C_5
REMARK    5  A    between atoms: C_5  and  C_6
REMARK    6  A    between atoms: C_6  and  C_7
REMARK    7  A    between atoms: C_7  and  C_8
REMARK    8  A    between atoms: C_8  and  C_9
REMARK    9  A    between atoms: C_9  and  C_10
REMARK   10  A    between atoms: C_10  and  C_11
REMARK                            x       y       z     vdW  Elec       q    Type
REMARK                         _______ _______ _______ _____ _____    ______ ____
ROOT
ATOM      1  C   LIG A   1      -8.194  -2.196 126.300  0.00  0.00    -0.000 C 
ENDROOT
BRANCH   1   2
ATOM      2  C   LIG A   1      -6.852  -2.627 125.680  0.00  0.00    -0.000 C 
BRANCH   2   3
ATOM      3  C   LIG A   1      -7.014  -3.143 124.249  0.00  0.00    -0.000 C 
BRANCH   3   4
ATOM      4  C   LIG A   1      -5.902  -2.665 123.312  0.00  0.00    -0.000 C 
BRANCH   4   6
ATOM      5  C   LIG A   1      -4.509  -4.786 123.598  0.00  0.00    +0.004 C 
ATOM      6  C   LIG A   1      -4.540  -3.265 123.679  0.00  0.00    -0.003 C 
ENDBRANCH   4   6
ENDBRANCH   3   4
ENDBRANCH   2   3
ENDBRANCH   1   2
BRANCH   1   7
ATOM      7  C   LIG A   1      -9.089  -3.398 126.571  0.00  0.00    +0.000 C 
BRANCH   7   8
ATOM      8  C   LIG A   1      -8.919  -4.038 127.943  0.00  0.00    +0.000 C 
BRANCH   8   9
ATOM      9  C   LIG A   1      -8.264  -3.114 128.992  0.00  0.00    +0.004 C 
BRANCH   9  10
ATOM     10  C   LIG A   1      -6.935  -3.601 129.598  0.00  0.00    +0.026 C 
BRANCH  10  11
ATOM     11  C   LIG A   1      -5.764  -2.655 129.425  0.00  0.00    -0.035 C 
ATOM     12  C   LIG A   1      -4.651  -2.910 128.749  0.00  0.00    +0.004 C 
ENDBRANCH  10  11
ENDBRANCH   9  10
ENDBRANCH   8   9
ENDBRANCH   7   8
ENDBRANCH   1   7
TORSDOF 9
ENDMDL
MODEL 6
REMARK VINA RESULT:      -4.6      0.808      4.467
REMARK  Name = NuBBE_2105
REMARK  10 active torsions:
REMARK  status: ('A' for Active; 'I' for Inactive)
REMARK    1  A    between atoms: C_1  and  C_2
REMARK    2  A    between atoms: C_2  and  C_3
REMARK    3  A    between atoms: C_3  and  C_4
REMARK    4  A    between atoms: C_4  and  C_5
REMARK    5  A    between atoms: C_5  and  C_6
REMARK    6  A    between atoms: C_6  and  C_7
REMARK    7  A    between atoms: C_7  and  C_8
REMARK    8  A    between atoms: C_8  and  C_9
REMARK    9  A    between atoms: C_9  and  C_10
REMARK   10  A    between atoms: C_10  and  C_11
REMARK                            x       y       z     vdW  Elec       q    Type
REMARK                         _______ _______ _______ _____ _____    ______ ____
ROOT
ATOM      1  C   LIG A   1      -8.562  -0.783 124.412  0.00  0.00    -0.000 C 
ENDROOT
BRANCH   1   2
ATOM      2  C   LIG A   1      -7.053  -0.532 124.242  0.00  0.00    -0.000 C 
BRANCH   2   3
ATOM      3  C   LIG A   1      -6.376  -1.615 123.399  0.00  0.00    -0.000 C 
BRANCH   3   4
ATOM      4  C   LIG A   1      -5.281  -2.366 124.158  0.00  0.00    -0.000 C 
BRANCH   4   6
ATOM      5  C   LIG A   1      -4.161  -4.580 123.548  0.00  0.00    +0.004 C 
ATOM      6  C   LIG A   1      -5.429  -3.887 124.030  0.00  0.00    -0.003 C 
ENDBRANCH   4   6
ENDBRANCH   3   4
ENDBRANCH   2   3
ENDBRANCH   1   2
BRANCH   1   7
ATOM      7  C   LIG A   1      -9.013  -1.999 123.615  0.00  0.00    +0.000 C 
BRANCH   7   8
ATOM      8  C   LIG A   1      -9.267  -3.257 124.438  0.00  0.00    +0.000 C 
BRANCH   8   9
ATOM      9  C   LIG A   1      -9.628  -2.982 125.913  0.00  0.00    +0.004 C 
BRANCH   9  10
ATOM     10  C   LIG A   1      -8.701  -3.605 126.972  0.00  0.00    +0.026 C 
BRANCH  10  11
ATOM     11  C   LIG A   1      -7.514  -2.752 127.371  0.00  0.00    -0.035 C 
ATOM     12  C   LIG A   1      -7.571  -1.576 127.983  0.00  0.00    +0.004 C 
ENDBRANCH  10  11
ENDBRANCH   9  10
ENDBRANCH   8   9
ENDBRANCH   7   8
ENDBRANCH   1   7
TORSDOF 9
ENDMDL
MODEL 7
REMARK VINA RESULT:      -4.5     10.506     12.185
REMARK  Name = NuBBE_2105
REMARK  10 active torsions:
REMARK  status: ('A' for Active; 'I' for Inactive)
REMARK    1  A    between atoms: C_1  and  C_2
REMARK    2  A    between atoms: C_2  and  C_3
REMARK    3  A    between atoms: C_3  and  C_4
REMARK    4  A    between atoms: C_4  and  C_5
REMARK    5  A    between atoms: C_5  and  C_6
REMARK    6  A    between atoms: C_6  and  C_7
REMARK    7  A    between atoms: C_7  and  C_8
REMARK    8  A    between atoms: C_8  and  C_9
REMARK    9  A    between atoms: C_9  and  C_10
REMARK   10  A    between atoms: C_10  and  C_11
REMARK                            x       y       z     vdW  Elec       q    Type
REMARK                         _______ _______ _______ _____ _____    ______ ____
ROOT
ATOM      1  C   LIG A   1     -12.410   7.204 131.656  0.00  0.00    -0.000 C 
ENDROOT
BRANCH   1   2
ATOM      2  C   LIG A   1     -12.903   7.395 130.210  0.00  0.00    -0.000 C 
BRANCH   2   3
ATOM      3  C   LIG A   1     -12.651   8.814 129.694  0.00  0.00    -0.000 C 
BRANCH   3   4
ATOM      4  C   LIG A   1     -11.854   8.843 128.389  0.00  0.00    -0.000 C 
BRANCH   4   6
ATOM      5  C   LIG A   1     -10.969   7.382 126.490  0.00  0.00    +0.004 C 
ATOM      6  C   LIG A   1     -12.016   7.548 127.584  0.00  0.00    -0.003 C 
ENDBRANCH   4   6
ENDBRANCH   3   4
ENDBRANCH   2   3
ENDBRANCH   1   2
BRANCH   1   7
ATOM      7  C   LIG A   1     -11.306   6.159 131.730  0.00  0.00    +0.000 C 
BRANCH   7   8
ATOM      8  C   LIG A   1     -10.970   5.474 130.411  0.00  0.00    +0.000 C 
BRANCH   8   9
ATOM      9  C   LIG A   1      -9.594   5.867 129.830  0.00  0.00    +0.004 C 
BRANCH   9  10
ATOM     10  C   LIG A   1      -8.943   7.135 130.413  0.00  0.00    +0.026 C 
BRANCH  10  11
ATOM     11  C   LIG A   1      -7.618   6.914 131.114  0.00  0.00    -0.035 C 
ATOM     12  C   LIG A   1      -7.395   6.061 132.106  0.00  0.00    +0.004 C 
ENDBRANCH  10  11
ENDBRANCH   9  10
ENDBRANCH   8   9
ENDBRANCH   7   8
ENDBRANCH   1   7
TORSDOF 9
ENDMDL
MODEL 8
REMARK VINA RESULT:      -4.5      1.109      4.638
REMARK  Name = NuBBE_2105
REMARK  10 active torsions:
REMARK  status: ('A' for Active; 'I' for Inactive)
REMARK    1  A    between atoms: C_1  and  C_2
REMARK    2  A    between atoms: C_2  and  C_3
REMARK    3  A    between atoms: C_3  and  C_4
REMARK    4  A    between atoms: C_4  and  C_5
REMARK    5  A    between atoms: C_5  and  C_6
REMARK    6  A    between atoms: C_6  and  C_7
REMARK    7  A    between atoms: C_7  and  C_8
REMARK    8  A    between atoms: C_8  and  C_9
REMARK    9  A    between atoms: C_9  and  C_10
REMARK   10  A    between atoms: C_10  and  C_11
REMARK                            x       y       z     vdW  Elec       q    Type
REMARK                         _______ _______ _______ _____ _____    ______ ____
ROOT
ATOM      1  C   LIG A   1      -8.966  -3.022 123.566  0.00  0.00    -0.000 C 
ENDROOT
BRANCH   1   2
ATOM      2  C   LIG A   1      -8.291  -2.173 122.474  0.00  0.00    -0.000 C 
BRANCH   2   3
ATOM      3  C   LIG A   1      -7.020  -1.487 122.976  0.00  0.00    -0.000 C 
BRANCH   3   4
ATOM      4  C   LIG A   1      -5.835  -2.446 123.110  0.00  0.00    -0.000 C 
BRANCH   4   6
ATOM      5  C   LIG A   1      -5.560  -1.424 125.434  0.00  0.00    +0.004 C 
ATOM      6  C   LIG A   1      -5.441  -2.675 124.573  0.00  0.00    -0.003 C 
ENDBRANCH   4   6
ENDBRANCH   3   4
ENDBRANCH   2   3
ENDBRANCH   1   2
BRANCH   1   7
ATOM      7  C   LIG A   1      -9.172  -2.218 124.842  0.00  0.00    +0.000 C 
BRANCH   7   8
ATOM      8  C   LIG A   1      -9.507  -3.040 126.081  0.00  0.00    +0.000 C 
BRANCH   8   9
ATOM      9  C   LIG A   1      -8.318  -3.239 127.045  0.00  0.00    +0.004 C 
BRANCH   9  10
ATOM     10  C   LIG A   1      -8.662  -3.728 128.464  0.00  0.00    +0.026 C 
BRANCH  10  11
ATOM     11  C   LIG A   1      -8.021  -2.941 129.588  0.00  0.00    -0.035 C 
ATOM     12  C   LIG A   1      -7.759  -1.639 129.577  0.00  0.00    +0.004 C 
ENDBRANCH  10  11
ENDBRANCH   9  10
ENDBRANCH   8   9
ENDBRANCH   7   8
ENDBRANCH   1   7
TORSDOF 9
ENDMDL
MODEL 9
REMARK VINA RESULT:      -4.4      1.404      2.802
REMARK  Name = NuBBE_2105
REMARK  10 active torsions:
REMARK  status: ('A' for Active; 'I' for Inactive)
REMARK    1  A    between atoms: C_1  and  C_2
REMARK    2  A    between atoms: C_2  and  C_3
REMARK    3  A    between atoms: C_3  and  C_4
REMARK    4  A    between atoms: C_4  and  C_5
REMARK    5  A    between atoms: C_5  and  C_6
REMARK    6  A    between atoms: C_6  and  C_7
REMARK    7  A    between atoms: C_7  and  C_8
REMARK    8  A    between atoms: C_8  and  C_9
REMARK    9  A    between atoms: C_9  and  C_10
REMARK   10  A    between atoms: C_10  and  C_11
REMARK                            x       y       z     vdW  Elec       q    Type
REMARK                         _______ _______ _______ _____ _____    ______ ____
ROOT
ATOM      1  C   LIG A   1      -9.045  -3.258 124.412  0.00  0.00    -0.000 C 
ENDROOT
BRANCH   1   2
ATOM      2  C   LIG A   1      -9.513  -2.860 125.824  0.00  0.00    -0.000 C 
BRANCH   2   3
ATOM      3  C   LIG A   1      -8.747  -3.603 126.920  0.00  0.00    -0.000 C 
BRANCH   3   4
ATOM      4  C   LIG A   1      -8.072  -2.663 127.921  0.00  0.00    -0.000 C 
BRANCH   4   6
ATOM      5  C   LIG A   1      -7.709  -2.169 130.400  0.00  0.00    +0.004 C 
ATOM      6  C   LIG A   1      -8.178  -3.179 129.360  0.00  0.00    -0.003 C 
ENDBRANCH   4   6
ENDBRANCH   3   4
ENDBRANCH   2   3
ENDBRANCH   1   2
BRANCH   1   7
ATOM      7  C   LIG A   1      -7.678  -3.927 124.451  0.00  0.00    +0.000 C 
BRANCH   7   8
ATOM      8  C   LIG A   1      -6.516  -3.054 123.994  0.00  0.00    +0.000 C 
BRANCH   8   9
ATOM      9  C   LIG A   1      -5.625  -2.540 125.145  0.00  0.00    +0.004 C 
BRANCH   9  10
ATOM     10  C   LIG A   1      -5.598  -1.015 125.360  0.00  0.00    +0.026 C 
BRANCH  10  11
ATOM     11  C   LIG A   1      -6.725  -0.252 124.695  0.00  0.00    -0.035 C 
ATOM     12  C   LIG A   1      -7.762   0.301 125.313  0.00  0.00    +0.004 C 
ENDBRANCH  10  11
ENDBRANCH   9  10
ENDBRANCH   8   9
ENDBRANCH   7   8
ENDBRANCH   1   7
TORSDOF 9
ENDMDL
