MODEL 1
REMARK VINA RESULT:      -3.6      0.000      0.000
REMARK  Name = NuBBE_1971
REMARK  4 active torsions:
REMARK  status: ('A' for Active; 'I' for Inactive)
REMARK    1  A    between atoms: S_1  and  C_2
REMARK    2  A    between atoms: S_1  and  C_5
REMARK    3  A    between atoms: C_2  and  C_3
REMARK    4  A    between atoms: C_5  and  C_6
REMARK                            x       y       z     vdW  Elec       q    Type
REMARK                         _______ _______ _______ _____ _____    ______ ____
ROOT
ATOM      1  S   LIG A   1      -6.020  -2.326 125.399  0.00  0.00    -0.153 S 
ENDROOT
BRANCH   1   2
ATOM      2  C   LIG A   1      -5.762  -2.622 123.620  0.00  0.00    +0.096 C 
BRANCH   2   3
ATOM      3  C   LIG A   1      -4.534  -3.451 123.393  0.00  0.00    -0.024 C 
ATOM      4  C   LIG A   1      -4.470  -4.778 123.599  0.00  0.00    +0.004 C 
ENDBRANCH   2   3
ENDBRANCH   1   2
BRANCH   1   5
ATOM      5  C   LIG A   1      -7.765  -2.814 125.561  0.00  0.00    +0.096 C 
BRANCH   5   6
ATOM      6  C   LIG A   1      -8.224  -3.566 124.350  0.00  0.00    -0.024 C 
ATOM      7  C   LIG A   1      -9.357  -3.290 123.682  0.00  0.00    +0.004 C 
ENDBRANCH   5   6
ENDBRANCH   1   5
TORSDOF 4
ENDMDL
MODEL 2
REMARK VINA RESULT:      -3.6      0.209      3.739
REMARK  Name = NuBBE_1971
REMARK  4 active torsions:
REMARK  status: ('A' for Active; 'I' for Inactive)
REMARK    1  A    between atoms: S_1  and  C_2
REMARK    2  A    between atoms: S_1  and  C_5
REMARK    3  A    between atoms: C_2  and  C_3
REMARK    4  A    between atoms: C_5  and  C_6
REMARK                            x       y       z     vdW  Elec       q    Type
REMARK                         _______ _______ _______ _____ _____    ______ ____
ROOT
ATOM      1  S   LIG A   1      -6.174  -1.978 125.141  0.00  0.00    -0.153 S 
ENDROOT
BRANCH   1   2
ATOM      2  C   LIG A   1      -7.727  -2.874 125.460  0.00  0.00    +0.096 C 
BRANCH   2   3
ATOM      3  C   LIG A   1      -8.227  -3.531 124.209  0.00  0.00    -0.024 C 
ATOM      4  C   LIG A   1      -9.403  -3.243 123.623  0.00  0.00    +0.004 C 
ENDBRANCH   2   3
ENDBRANCH   1   2
BRANCH   1   5
ATOM      5  C   LIG A   1      -5.781  -2.589 123.473  0.00  0.00    +0.096 C 
BRANCH   5   6
ATOM      6  C   LIG A   1      -4.497  -3.361 123.475  0.00  0.00    -0.024 C 
ATOM      7  C   LIG A   1      -4.426  -4.693 123.637  0.00  0.00    +0.004 C 
ENDBRANCH   5   6
ENDBRANCH   1   5
TORSDOF 4
ENDMDL
MODEL 3
REMARK VINA RESULT:      -3.5     13.233     14.358
REMARK  Name = NuBBE_1971
REMARK  4 active torsions:
REMARK  status: ('A' for Active; 'I' for Inactive)
REMARK    1  A    between atoms: S_1  and  C_2
REMARK    2  A    between atoms: S_1  and  C_5
REMARK    3  A    between atoms: C_2  and  C_3
REMARK    4  A    between atoms: C_5  and  C_6
REMARK                            x       y       z     vdW  Elec       q    Type
REMARK                         _______ _______ _______ _____ _____    ______ ____
ROOT
ATOM      1  S   LIG A   1     -12.549   8.217 129.856  0.00  0.00    -0.153 S 
ENDROOT
BRANCH   1   2
ATOM      2  C   LIG A   1     -10.867   8.028 129.183  0.00  0.00    +0.096 C 
BRANCH   2   3
ATOM      3  C   LIG A   1     -10.847   8.326 127.714  0.00  0.00    -0.024 C 
ATOM      4  C   LIG A   1     -10.753   7.389 126.754  0.00  0.00    +0.004 C 
ENDBRANCH   2   3
ENDBRANCH   1   2
BRANCH   1   5
ATOM      5  C   LIG A   1     -13.300   9.264 128.572  0.00  0.00    +0.096 C 
BRANCH   5   6
ATOM      6  C   LIG A   1     -13.690  10.597 129.131  0.00  0.00    -0.024 C 
ATOM      7  C   LIG A   1     -13.402  10.998 130.381  0.00  0.00    +0.004 C 
ENDBRANCH   5   6
ENDBRANCH   1   5
TORSDOF 4
ENDMDL
MODEL 4
REMARK VINA RESULT:      -3.4     12.435     13.282
REMARK  Name = NuBBE_1971
REMARK  4 active torsions:
REMARK  status: ('A' for Active; 'I' for Inactive)
REMARK    1  A    between atoms: S_1  and  C_2
REMARK    2  A    between atoms: S_1  and  C_5
REMARK    3  A    between atoms: C_2  and  C_3
REMARK    4  A    between atoms: C_5  and  C_6
REMARK                            x       y       z     vdW  Elec       q    Type
REMARK                         _______ _______ _______ _____ _____    ______ ____
ROOT
ATOM      1  S   LIG A   1     -13.126   7.236 129.171  0.00  0.00    -0.153 S 
ENDROOT
BRANCH   1   2
ATOM      2  C   LIG A   1     -12.263   8.747 128.635  0.00  0.00    +0.096 C 
BRANCH   2   3
ATOM      3  C   LIG A   1     -10.980   8.407 127.939  0.00  0.00    -0.024 C 
ATOM      4  C   LIG A   1     -10.906   7.738 126.775  0.00  0.00    +0.004 C 
ENDBRANCH   2   3
ENDBRANCH   1   2
BRANCH   1   5
ATOM      5  C   LIG A   1     -12.802   7.292 130.961  0.00  0.00    +0.096 C 
BRANCH   5   6
ATOM      6  C   LIG A   1     -11.746   6.302 131.344  0.00  0.00    -0.024 C 
ATOM      7  C   LIG A   1     -10.427   6.552 131.278  0.00  0.00    +0.004 C 
ENDBRANCH   5   6
ENDBRANCH   1   5
TORSDOF 4
ENDMDL
MODEL 5
REMARK VINA RESULT:      -3.3     12.728     14.043
REMARK  Name = NuBBE_1971
REMARK  4 active torsions:
REMARK  status: ('A' for Active; 'I' for Inactive)
REMARK    1  A    between atoms: S_1  and  C_2
REMARK    2  A    between atoms: S_1  and  C_5
REMARK    3  A    between atoms: C_2  and  C_3
REMARK    4  A    between atoms: C_5  and  C_6
REMARK                            x       y       z     vdW  Elec       q    Type
REMARK                         _______ _______ _______ _____ _____    ______ ____
ROOT
ATOM      1  S   LIG A   1     -10.936   8.426 128.344  0.00  0.00    -0.153 S 
ENDROOT
BRANCH   1   2
ATOM      2  C   LIG A   1     -10.930   6.760 129.079  0.00  0.00    +0.096 C 
BRANCH   2   3
ATOM      3  C   LIG A   1     -10.719   6.834 130.560  0.00  0.00    -0.024 C 
ATOM      4  C   LIG A   1     -11.675   6.586 131.473  0.00  0.00    +0.004 C 
ENDBRANCH   2   3
ENDBRANCH   1   2
BRANCH   1   5
ATOM      5  C   LIG A   1     -12.702   8.840 128.487  0.00  0.00    +0.096 C 
BRANCH   5   6
ATOM      6  C   LIG A   1     -12.963   9.649 129.720  0.00  0.00    -0.024 C 
ATOM      7  C   LIG A   1     -13.500  10.881 129.707  0.00  0.00    +0.004 C 
ENDBRANCH   5   6
ENDBRANCH   1   5
TORSDOF 4
ENDMDL
MODEL 6
REMARK VINA RESULT:      -3.2     12.318     13.214
REMARK  Name = NuBBE_1971
REMARK  4 active torsions:
REMARK  status: ('A' for Active; 'I' for Inactive)
REMARK    1  A    between atoms: S_1  and  C_2
REMARK    2  A    between atoms: S_1  and  C_5
REMARK    3  A    between atoms: C_2  and  C_3
REMARK    4  A    between atoms: C_5  and  C_6
REMARK                            x       y       z     vdW  Elec       q    Type
REMARK                         _______ _______ _______ _____ _____    ______ ____
ROOT
ATOM      1  S   LIG A   1     -10.525   7.597 129.363  0.00  0.00    -0.153 S 
ENDROOT
BRANCH   1   2
ATOM      2  C   LIG A   1     -11.156   6.153 130.276  0.00  0.00    +0.096 C 
BRANCH   2   3
ATOM      3  C   LIG A   1     -11.947   6.586 131.473  0.00  0.00    -0.024 C 
ATOM      4  C   LIG A   1     -12.865   7.569 131.456  0.00  0.00    +0.004 C 
ENDBRANCH   2   3
ENDBRANCH   1   2
BRANCH   1   5
ATOM      5  C   LIG A   1     -11.379   7.375 127.772  0.00  0.00    +0.096 C 
BRANCH   5   6
ATOM      6  C   LIG A   1     -12.785   7.885 127.845  0.00  0.00    -0.024 C 
ATOM      7  C   LIG A   1     -13.868   7.090 127.895  0.00  0.00    +0.004 C 
ENDBRANCH   5   6
ENDBRANCH   1   5
TORSDOF 4
ENDMDL
MODEL 7
REMARK VINA RESULT:      -3.2      1.722      4.170
REMARK  Name = NuBBE_1971
REMARK  4 active torsions:
REMARK  status: ('A' for Active; 'I' for Inactive)
REMARK    1  A    between atoms: S_1  and  C_2
REMARK    2  A    between atoms: S_1  and  C_5
REMARK    3  A    between atoms: C_2  and  C_3
REMARK    4  A    between atoms: C_5  and  C_6
REMARK                            x       y       z     vdW  Elec       q    Type
REMARK                         _______ _______ _______ _____ _____    ______ ____
ROOT
ATOM      1  S   LIG A   1      -8.039  -3.045 124.037  0.00  0.00    -0.153 S 
ENDROOT
BRANCH   1   2
ATOM      2  C   LIG A   1      -9.022  -2.847 125.558  0.00  0.00    +0.096 C 
BRANCH   2   3
ATOM      3  C   LIG A   1      -8.441  -3.660 126.674  0.00  0.00    -0.024 C 
ATOM      4  C   LIG A   1      -9.058  -3.882 127.848  0.00  0.00    +0.004 C 
ENDBRANCH   2   3
ENDBRANCH   1   2
BRANCH   1   5
ATOM      5  C   LIG A   1      -6.370  -2.717 124.681  0.00  0.00    +0.096 C 
BRANCH   5   6
ATOM      6  C   LIG A   1      -5.324  -3.152 123.702  0.00  0.00    -0.024 C 
ATOM      7  C   LIG A   1      -4.659  -4.317 123.785  0.00  0.00    +0.004 C 
ENDBRANCH   5   6
ENDBRANCH   1   5
TORSDOF 4
ENDMDL
MODEL 8
REMARK VINA RESULT:      -3.2      2.191      4.061
REMARK  Name = NuBBE_1971
REMARK  4 active torsions:
REMARK  status: ('A' for Active; 'I' for Inactive)
REMARK    1  A    between atoms: S_1  and  C_2
REMARK    2  A    between atoms: S_1  and  C_5
REMARK    3  A    between atoms: C_2  and  C_3
REMARK    4  A    between atoms: C_5  and  C_6
REMARK                            x       y       z     vdW  Elec       q    Type
REMARK                         _______ _______ _______ _____ _____    ______ ____
ROOT
ATOM      1  S   LIG A   1      -7.263  -2.366 126.379  0.00  0.00    -0.153 S 
ENDROOT
BRANCH   1   2
ATOM      2  C   LIG A   1      -8.818  -3.120 126.955  0.00  0.00    +0.096 C 
BRANCH   2   3
ATOM      3  C   LIG A   1      -8.625  -3.786 128.283  0.00  0.00    -0.024 C 
ATOM      4  C   LIG A   1      -8.198  -3.154 129.390  0.00  0.00    +0.004 C 
ENDBRANCH   2   3
ENDBRANCH   1   2
BRANCH   1   5
ATOM      5  C   LIG A   1      -7.467  -2.530 124.579  0.00  0.00    +0.096 C 
BRANCH   5   6
ATOM      6  C   LIG A   1      -8.560  -3.501 124.251  0.00  0.00    -0.024 C 
ATOM      7  C   LIG A   1      -9.526  -3.263 123.349  0.00  0.00    +0.004 C 
ENDBRANCH   5   6
ENDBRANCH   1   5
TORSDOF 4
ENDMDL
MODEL 9
REMARK VINA RESULT:      -3.2     12.602     12.880
REMARK  Name = NuBBE_1971
REMARK  4 active torsions:
REMARK  status: ('A' for Active; 'I' for Inactive)
REMARK    1  A    between atoms: S_1  and  C_2
REMARK    2  A    between atoms: S_1  and  C_5
REMARK    3  A    between atoms: C_2  and  C_3
REMARK    4  A    between atoms: C_5  and  C_6
REMARK                            x       y       z     vdW  Elec       q    Type
REMARK                         _______ _______ _______ _____ _____    ______ ____
ROOT
ATOM      1  S   LIG A   1     -12.419   7.480 130.328  0.00  0.00    -0.153 S 
ENDROOT
BRANCH   1   2
ATOM      2  C   LIG A   1     -11.545   6.001 130.933  0.00  0.00    +0.096 C 
BRANCH   2   3
ATOM      3  C   LIG A   1     -10.236   6.376 131.558  0.00  0.00    -0.024 C 
ATOM      4  C   LIG A   1      -9.189   6.874 130.878  0.00  0.00    +0.004 C 
ENDBRANCH   2   3
ENDBRANCH   1   2
BRANCH   1   5
ATOM      5  C   LIG A   1     -12.804   6.959 128.628  0.00  0.00    +0.096 C 
BRANCH   5   6
ATOM      6  C   LIG A   1     -11.749   7.426 127.674  0.00  0.00    -0.024 C 
ATOM      7  C   LIG A   1     -10.868   8.403 127.951  0.00  0.00    +0.004 C 
ENDBRANCH   5   6
ENDBRANCH   1   5
TORSDOF 4
ENDMDL
