MODEL 1
REMARK VINA RESULT:      -8.2      0.000      0.000
REMARK  Name = NuBBE_621
REMARK  8 active torsions:
REMARK  status: ('A' for Active; 'I' for Inactive)
REMARK    1  A    between atoms: C_1  and  C_2
REMARK    2  A    between atoms: C_2  and  C_3
REMARK    3  A    between atoms: C_2  and  C_4
REMARK    4  A    between atoms: C_2  and  C_6
REMARK    5  A    between atoms: C_12  and  C_14
REMARK    6  A    between atoms: C_14  and  O_15
REMARK    7  A    between atoms: C_14  and  C_16
REMARK    8  A    between atoms: C_14  and  C_17
REMARK                            x       y       z     vdW  Elec       q    Type
REMARK                         _______ _______ _______ _____ _____    ______ ____
ROOT
ATOM      1  C   LIG A   1     -11.398   7.414 129.364  0.00  0.00    +0.047 A 
ATOM      2  C   LIG A   1     -11.476   6.671 130.486  0.00  0.00    +0.023 A 
ATOM      3  C   LIG A   1     -10.308   6.377 131.309  0.00  0.00    +0.018 A 
ATOM      4  C   LIG A   1     -10.388   5.612 132.481  0.00  0.00    +0.018 A 
ATOM      5  C   LIG A   1      -9.202   5.240 133.097  0.00  0.00    -0.001 A 
ATOM      6  C   LIG A   1      -8.964   4.357 134.267  0.00  0.00    +0.086 C 
ATOM      7  C   LIG A   1      -7.514   3.929 133.945  0.00  0.00    +0.209 C 
ATOM      8  O   LIG A   1      -6.902   5.021 133.199  0.00  0.00    -0.485 OA
ATOM      9  C   LIG A   1      -7.970   5.625 132.582  0.00  0.00    +0.128 A 
ATOM     10  C   LIG A   1      -7.863   6.432 131.474  0.00  0.00    +0.092 A 
ATOM     11  C   LIG A   1      -9.055   6.790 130.846  0.00  0.00    +0.143 A 
ATOM     12  O   LIG A   1      -8.952   7.581 129.696  0.00  0.00    -0.422 OA
ATOM     13  C   LIG A   1     -10.075   8.039 129.017  0.00  0.00    +0.341 A 
ATOM     14  O   LIG A   1      -9.951   8.890 128.153  0.00  0.00    -0.245 OA
ENDROOT
BRANCH   1  16
ATOM     15  C   LIG A   1     -13.771   6.752 128.748  0.00  0.00    +0.020 C 
ATOM     16  C   LIG A   1     -12.574   7.665 128.383  0.00  0.00    +0.015 C 
ATOM     17  C   LIG A   1     -12.158   7.366 126.924  0.00  0.00    +0.020 C 
BRANCH  16  18
ATOM     18  C   LIG A   1     -13.120   9.105 128.495  0.00  0.00    -0.023 C 
ATOM     19  C   LIG A   1     -13.165   9.890 129.582  0.00  0.00    +0.005 C 
ENDBRANCH  16  18
ENDBRANCH   1  16
BRANCH   7  20
ATOM     20  C   LIG A   1      -7.403   2.573 133.166  0.00  0.00    +0.097 C 
ATOM     21  C   LIG A   1      -8.744   2.051 132.633  0.00  0.00    +0.045 C 
ATOM     22  C   LIG A   1      -6.423   2.681 131.989  0.00  0.00    +0.045 C 
BRANCH  20  23
ATOM     23  O   LIG A   1      -6.882   1.584 134.068  0.00  0.00    -0.386 OA
ATOM     24  H   LIG A   1      -6.661   0.792 133.545  0.00  0.00    +0.210 HD
ENDBRANCH  20  23
ENDBRANCH   7  20
TORSDOF 4
ENDMDL
MODEL 2
REMARK VINA RESULT:      -7.5      3.164      7.079
REMARK  Name = NuBBE_621
REMARK  8 active torsions:
REMARK  status: ('A' for Active; 'I' for Inactive)
REMARK    1  A    between atoms: C_1  and  C_2
REMARK    2  A    between atoms: C_2  and  C_3
REMARK    3  A    between atoms: C_2  and  C_4
REMARK    4  A    between atoms: C_2  and  C_6
REMARK    5  A    between atoms: C_12  and  C_14
REMARK    6  A    between atoms: C_14  and  O_15
REMARK    7  A    between atoms: C_14  and  C_16
REMARK    8  A    between atoms: C_14  and  C_17
REMARK                            x       y       z     vdW  Elec       q    Type
REMARK                         _______ _______ _______ _____ _____    ______ ____
ROOT
ATOM      1  C   LIG A   1      -4.895   6.077 130.336  0.00  0.00    +0.047 A 
ATOM      2  C   LIG A   1      -5.982   6.656 130.883  0.00  0.00    +0.023 A 
ATOM      3  C   LIG A   1      -7.315   6.075 130.771  0.00  0.00    +0.018 A 
ATOM      4  C   LIG A   1      -8.445   6.670 131.348  0.00  0.00    +0.018 A 
ATOM      5  C   LIG A   1      -9.689   6.139 131.039  0.00  0.00    -0.001 A 
ATOM      6  C   LIG A   1     -11.050   6.610 131.401  0.00  0.00    +0.086 C 
ATOM      7  C   LIG A   1     -11.837   5.964 130.238  0.00  0.00    +0.209 C 
ATOM      8  O   LIG A   1     -11.114   4.760 129.849  0.00  0.00    -0.485 OA
ATOM      9  C   LIG A   1      -9.815   5.040 130.199  0.00  0.00    +0.128 A 
ATOM     10  C   LIG A   1      -8.721   4.394 129.674  0.00  0.00    +0.092 A 
ATOM     11  C   LIG A   1      -7.474   4.939 129.971  0.00  0.00    +0.143 A 
ATOM     12  O   LIG A   1      -6.357   4.308 129.411  0.00  0.00    -0.422 OA
ATOM     13  C   LIG A   1      -5.061   4.735 129.679  0.00  0.00    +0.341 A 
ATOM     14  O   LIG A   1      -4.117   4.039 129.346  0.00  0.00    -0.245 OA
ENDROOT
BRANCH   1  16
ATOM     15  C   LIG A   1      -3.431   7.950 131.229  0.00  0.00    +0.020 C 
ATOM     16  C   LIG A   1      -3.474   6.700 130.316  0.00  0.00    +0.015 C 
ATOM     17  C   LIG A   1      -3.071   7.125 128.885  0.00  0.00    +0.020 C 
BRANCH  16  18
ATOM     18  C   LIG A   1      -2.416   5.739 130.901  0.00  0.00    -0.023 C 
ATOM     19  C   LIG A   1      -2.150   5.489 132.193  0.00  0.00    +0.005 C 
ENDBRANCH  16  18
ENDBRANCH   1  16
BRANCH   7  20
ATOM     20  C   LIG A   1     -12.064   6.914 129.011  0.00  0.00    +0.097 C 
ATOM     21  C   LIG A   1     -13.502   6.904 128.475  0.00  0.00    +0.045 C 
ATOM     22  C   LIG A   1     -11.682   8.363 129.345  0.00  0.00    +0.045 C 
BRANCH  20  23
ATOM     23  O   LIG A   1     -11.203   6.478 127.946  0.00  0.00    -0.386 OA
ATOM     24  H   LIG A   1     -11.627   6.721 127.104  0.00  0.00    +0.210 HD
ENDBRANCH  20  23
ENDBRANCH   7  20
TORSDOF 4
ENDMDL
MODEL 3
REMARK VINA RESULT:      -7.3      8.115     10.023
REMARK  Name = NuBBE_621
REMARK  8 active torsions:
REMARK  status: ('A' for Active; 'I' for Inactive)
REMARK    1  A    between atoms: C_1  and  C_2
REMARK    2  A    between atoms: C_2  and  C_3
REMARK    3  A    between atoms: C_2  and  C_4
REMARK    4  A    between atoms: C_2  and  C_6
REMARK    5  A    between atoms: C_12  and  C_14
REMARK    6  A    between atoms: C_14  and  O_15
REMARK    7  A    between atoms: C_14  and  C_16
REMARK    8  A    between atoms: C_14  and  C_17
REMARK                            x       y       z     vdW  Elec       q    Type
REMARK                         _______ _______ _______ _____ _____    ______ ____
ROOT
ATOM      1  C   LIG A   1      -8.373  -1.468 124.226  0.00  0.00    +0.047 A 
ATOM      2  C   LIG A   1      -8.668  -0.391 124.982  0.00  0.00    +0.023 A 
ATOM      3  C   LIG A   1      -8.132   0.935 124.693  0.00  0.00    +0.018 A 
ATOM      4  C   LIG A   1      -8.445   2.057 125.472  0.00  0.00    +0.018 A 
ATOM      5  C   LIG A   1      -7.750   3.233 125.226  0.00  0.00    -0.001 A 
ATOM      6  C   LIG A   1      -7.781   4.533 125.943  0.00  0.00    +0.086 C 
ATOM      7  C   LIG A   1      -6.381   5.052 125.543  0.00  0.00    +0.209 C 
ATOM      8  O   LIG A   1      -6.067   4.476 124.242  0.00  0.00    -0.485 OA
ATOM      9  C   LIG A   1      -6.786   3.306 124.229  0.00  0.00    +0.128 A 
ATOM     10  C   LIG A   1      -6.507   2.241 123.405  0.00  0.00    +0.092 A 
ATOM     11  C   LIG A   1      -7.193   1.056 123.664  0.00  0.00    +0.143 A 
ATOM     12  O   LIG A   1      -6.888  -0.043 122.853  0.00  0.00    -0.422 OA
ATOM     13  C   LIG A   1      -7.545  -1.261 122.989  0.00  0.00    +0.341 A 
ATOM     14  O   LIG A   1      -7.403  -2.120 122.135  0.00  0.00    -0.245 OA
ENDROOT
BRANCH   1  16
ATOM     15  C   LIG A   1      -7.571  -3.844 124.628  0.00  0.00    +0.020 C 
ATOM     16  C   LIG A   1      -8.813  -2.922 124.545  0.00  0.00    +0.015 C 
ATOM     17  C   LIG A   1      -9.758  -3.471 123.451  0.00  0.00    +0.020 C 
BRANCH  16  18
ATOM     18  C   LIG A   1      -9.486  -3.029 125.930  0.00  0.00    -0.023 C 
ATOM     19  C   LIG A   1      -8.970  -3.531 127.064  0.00  0.00    +0.005 C 
ENDBRANCH  16  18
ENDBRANCH   1  16
BRANCH   7  20
ATOM     20  C   LIG A   1      -5.257   4.741 126.591  0.00  0.00    +0.097 C 
ATOM     21  C   LIG A   1      -5.751   3.967 127.821  0.00  0.00    +0.045 C 
ATOM     22  C   LIG A   1      -4.101   3.955 125.956  0.00  0.00    +0.045 C 
BRANCH  20  23
ATOM     23  O   LIG A   1      -4.722   5.992 127.054  0.00  0.00    -0.386 OA
ATOM     24  H   LIG A   1      -5.447   6.642 127.053  0.00  0.00    +0.210 HD
ENDBRANCH  20  23
ENDBRANCH   7  20
TORSDOF 4
ENDMDL
MODEL 4
REMARK VINA RESULT:      -7.3      2.016      2.874
REMARK  Name = NuBBE_621
REMARK  8 active torsions:
REMARK  status: ('A' for Active; 'I' for Inactive)
REMARK    1  A    between atoms: C_1  and  C_2
REMARK    2  A    between atoms: C_2  and  C_3
REMARK    3  A    between atoms: C_2  and  C_4
REMARK    4  A    between atoms: C_2  and  C_6
REMARK    5  A    between atoms: C_12  and  C_14
REMARK    6  A    between atoms: C_14  and  O_15
REMARK    7  A    between atoms: C_14  and  C_16
REMARK    8  A    between atoms: C_14  and  C_17
REMARK                            x       y       z     vdW  Elec       q    Type
REMARK                         _______ _______ _______ _____ _____    ______ ____
ROOT
ATOM      1  C   LIG A   1     -11.478   7.058 129.917  0.00  0.00    +0.047 A 
ATOM      2  C   LIG A   1     -10.318   6.438 129.620  0.00  0.00    +0.023 A 
ATOM      3  C   LIG A   1      -9.572   5.666 130.608  0.00  0.00    +0.018 A 
ATOM      4  C   LIG A   1      -8.371   5.013 130.300  0.00  0.00    +0.018 A 
ATOM      5  C   LIG A   1      -7.648   4.454 131.344  0.00  0.00    -0.001 A 
ATOM      6  C   LIG A   1      -6.312   3.806 131.347  0.00  0.00    +0.086 C 
ATOM      7  C   LIG A   1      -5.939   4.046 132.827  0.00  0.00    +0.209 C 
ATOM      8  O   LIG A   1      -7.186   4.090 133.580  0.00  0.00    -0.485 OA
ATOM      9  C   LIG A   1      -8.104   4.522 132.654  0.00  0.00    +0.128 A 
ATOM     10  C   LIG A   1      -9.310   5.096 132.978  0.00  0.00    +0.092 A 
ATOM     11  C   LIG A   1     -10.027   5.672 131.930  0.00  0.00    +0.143 A 
ATOM     12  O   LIG A   1     -11.240   6.291 132.257  0.00  0.00    -0.422 OA
ATOM     13  C   LIG A   1     -12.061   6.854 131.287  0.00  0.00    +0.341 A 
ATOM     14  O   LIG A   1     -13.195   7.192 131.581  0.00  0.00    -0.245 OA
ENDROOT
BRANCH   1  16
ATOM     15  C   LIG A   1     -13.540   7.279 128.451  0.00  0.00    +0.020 C 
ATOM     16  C   LIG A   1     -12.258   7.989 128.950  0.00  0.00    +0.015 C 
ATOM     17  C   LIG A   1     -11.396   8.363 127.722  0.00  0.00    +0.020 C 
BRANCH  16  18
ATOM     18  C   LIG A   1     -12.756   9.266 129.659  0.00  0.00    -0.023 C 
ATOM     19  C   LIG A   1     -13.484  10.269 129.141  0.00  0.00    +0.005 C 
ENDBRANCH  16  18
ENDBRANCH   1  16
BRANCH   7  20
ATOM     20  C   LIG A   1      -5.080   5.335 133.071  0.00  0.00    +0.097 C 
ATOM     21  C   LIG A   1      -5.215   6.391 131.965  0.00  0.00    +0.045 C 
ATOM     22  C   LIG A   1      -5.425   5.994 134.414  0.00  0.00    +0.045 C 
BRANCH  20  23
ATOM     23  O   LIG A   1      -3.698   4.944 133.128  0.00  0.00    -0.386 OA
ATOM     24  H   LIG A   1      -3.567   4.440 133.952  0.00  0.00    +0.210 HD
ENDBRANCH  20  23
ENDBRANCH   7  20
TORSDOF 4
ENDMDL
MODEL 5
REMARK VINA RESULT:      -7.2      1.907      7.228
REMARK  Name = NuBBE_621
REMARK  8 active torsions:
REMARK  status: ('A' for Active; 'I' for Inactive)
REMARK    1  A    between atoms: C_1  and  C_2
REMARK    2  A    between atoms: C_2  and  C_3
REMARK    3  A    between atoms: C_2  and  C_4
REMARK    4  A    between atoms: C_2  and  C_6
REMARK    5  A    between atoms: C_12  and  C_14
REMARK    6  A    between atoms: C_14  and  O_15
REMARK    7  A    between atoms: C_14  and  C_16
REMARK    8  A    between atoms: C_14  and  C_17
REMARK                            x       y       z     vdW  Elec       q    Type
REMARK                         _______ _______ _______ _____ _____    ______ ____
ROOT
ATOM      1  C   LIG A   1      -7.657   4.746 133.434  0.00  0.00    +0.047 A 
ATOM      2  C   LIG A   1      -8.653   5.651 133.350  0.00  0.00    +0.023 A 
ATOM      3  C   LIG A   1      -9.718   5.548 132.358  0.00  0.00    +0.018 A 
ATOM      4  C   LIG A   1     -10.760   6.483 132.275  0.00  0.00    +0.018 A 
ATOM      5  C   LIG A   1     -11.624   6.399 131.193  0.00  0.00    -0.001 A 
ATOM      6  C   LIG A   1     -12.734   7.295 130.780  0.00  0.00    +0.086 C 
ATOM      7  C   LIG A   1     -12.757   6.956 129.272  0.00  0.00    +0.209 C 
ATOM      8  O   LIG A   1     -12.290   5.582 129.135  0.00  0.00    -0.485 OA
ATOM      9  C   LIG A   1     -11.476   5.411 130.228  0.00  0.00    +0.128 A 
ATOM     10  C   LIG A   1     -10.507   4.440 130.320  0.00  0.00    +0.092 A 
ATOM     11  C   LIG A   1      -9.629   4.536 131.398  0.00  0.00    +0.143 A 
ATOM     12  O   LIG A   1      -8.617   3.572 131.479  0.00  0.00    -0.422 OA
ATOM     13  C   LIG A   1      -7.716   3.541 132.537  0.00  0.00    +0.341 A 
ATOM     14  O   LIG A   1      -6.990   2.572 132.681  0.00  0.00    -0.245 OA
ENDROOT
BRANCH   1  16
ATOM     15  C   LIG A   1      -5.174   5.259 133.577  0.00  0.00    +0.020 C 
ATOM     16  C   LIG A   1      -6.435   4.860 134.383  0.00  0.00    +0.015 C 
ATOM     17  C   LIG A   1      -6.155   3.515 135.095  0.00  0.00    +0.020 C 
BRANCH  16  18
ATOM     18  C   LIG A   1      -6.617   5.984 135.425  0.00  0.00    -0.023 C 
ATOM     19  C   LIG A   1      -6.999   5.869 136.707  0.00  0.00    +0.005 C 
ENDBRANCH  16  18
ENDBRANCH   1  16
BRANCH   7  20
ATOM     20  C   LIG A   1     -11.917   7.935 128.381  0.00  0.00    +0.097 C 
ATOM     21  C   LIG A   1     -10.479   8.145 128.874  0.00  0.00    +0.045 C 
ATOM     22  C   LIG A   1     -11.864   7.460 126.922  0.00  0.00    +0.045 C 
BRANCH  20  23
ATOM     23  O   LIG A   1     -12.569   9.216 128.391  0.00  0.00    -0.386 OA
ATOM     24  H   LIG A   1     -13.246   9.198 129.091  0.00  0.00    +0.210 HD
ENDBRANCH  20  23
ENDBRANCH   7  20
TORSDOF 4
ENDMDL
MODEL 6
REMARK VINA RESULT:      -7.1      8.564     11.785
REMARK  Name = NuBBE_621
REMARK  8 active torsions:
REMARK  status: ('A' for Active; 'I' for Inactive)
REMARK    1  A    between atoms: C_1  and  C_2
REMARK    2  A    between atoms: C_2  and  C_3
REMARK    3  A    between atoms: C_2  and  C_4
REMARK    4  A    between atoms: C_2  and  C_6
REMARK    5  A    between atoms: C_12  and  C_14
REMARK    6  A    between atoms: C_14  and  O_15
REMARK    7  A    between atoms: C_14  and  C_16
REMARK    8  A    between atoms: C_14  and  C_17
REMARK                            x       y       z     vdW  Elec       q    Type
REMARK                         _______ _______ _______ _____ _____    ______ ____
ROOT
ATOM      1  C   LIG A   1      -6.121  -2.822 129.567  0.00  0.00    +0.047 A 
ATOM      2  C   LIG A   1      -7.226  -2.978 128.810  0.00  0.00    +0.023 A 
ATOM      3  C   LIG A   1      -7.208  -2.809 127.361  0.00  0.00    +0.018 A 
ATOM      4  C   LIG A   1      -8.353  -2.980 126.571  0.00  0.00    +0.018 A 
ATOM      5  C   LIG A   1      -8.278  -2.628 125.231  0.00  0.00    -0.001 A 
ATOM      6  C   LIG A   1      -9.333  -2.592 124.187  0.00  0.00    +0.086 C 
ATOM      7  C   LIG A   1      -8.692  -1.551 123.243  0.00  0.00    +0.209 C 
ATOM      8  O   LIG A   1      -7.247  -1.663 123.399  0.00  0.00    -0.485 OA
ATOM      9  C   LIG A   1      -7.100  -2.137 124.680  0.00  0.00    +0.128 A 
ATOM     10  C   LIG A   1      -5.944  -2.024 125.414  0.00  0.00    +0.092 A 
ATOM     11  C   LIG A   1      -6.026  -2.362 126.764  0.00  0.00    +0.143 A 
ATOM     12  O   LIG A   1      -4.861  -2.214 127.526  0.00  0.00    -0.422 OA
ATOM     13  C   LIG A   1      -4.814  -2.567 128.870  0.00  0.00    +0.341 A 
ATOM     14  O   LIG A   1      -3.737  -2.623 129.440  0.00  0.00    -0.245 OA
ENDROOT
BRANCH   1  16
ATOM     15  C   LIG A   1      -7.540  -2.958 131.669  0.00  0.00    +0.020 C 
ATOM     16  C   LIG A   1      -6.095  -2.870 131.118  0.00  0.00    +0.015 C 
ATOM     17  C   LIG A   1      -5.425  -1.605 131.703  0.00  0.00    +0.020 C 
BRANCH  16  18
ATOM     18  C   LIG A   1      -5.387  -4.137 131.643  0.00  0.00    -0.023 C 
ATOM     19  C   LIG A   1      -5.479  -5.391 131.172  0.00  0.00    +0.005 C 
ENDBRANCH  16  18
ENDBRANCH   1  16
BRANCH   7  20
ATOM     20  C   LIG A   1      -9.178  -0.080 123.485  0.00  0.00    +0.097 C 
ATOM     21  C   LIG A   1      -8.040   0.947 123.557  0.00  0.00    +0.045 C 
ATOM     22  C   LIG A   1     -10.168   0.370 122.401  0.00  0.00    +0.045 C 
BRANCH  20  23
ATOM     23  O   LIG A   1      -9.874  -0.043 124.742  0.00  0.00    -0.386 OA
ATOM     24  H   LIG A   1     -10.730  -0.491 124.620  0.00  0.00    +0.210 HD
ENDBRANCH  20  23
ENDBRANCH   7  20
TORSDOF 4
ENDMDL
MODEL 7
REMARK VINA RESULT:      -6.9      3.929      7.551
REMARK  Name = NuBBE_621
REMARK  8 active torsions:
REMARK  status: ('A' for Active; 'I' for Inactive)
REMARK    1  A    between atoms: C_1  and  C_2
REMARK    2  A    between atoms: C_2  and  C_3
REMARK    3  A    between atoms: C_2  and  C_4
REMARK    4  A    between atoms: C_2  and  C_6
REMARK    5  A    between atoms: C_12  and  C_14
REMARK    6  A    between atoms: C_14  and  O_15
REMARK    7  A    between atoms: C_14  and  C_16
REMARK    8  A    between atoms: C_14  and  C_17
REMARK                            x       y       z     vdW  Elec       q    Type
REMARK                         _______ _______ _______ _____ _____    ______ ____
ROOT
ATOM      1  C   LIG A   1      -3.375   6.322 132.436  0.00  0.00    +0.047 A 
ATOM      2  C   LIG A   1      -4.391   6.632 131.605  0.00  0.00    +0.023 A 
ATOM      3  C   LIG A   1      -5.789   6.474 131.992  0.00  0.00    +0.018 A 
ATOM      4  C   LIG A   1      -6.847   6.805 131.135  0.00  0.00    +0.018 A 
ATOM      5  C   LIG A   1      -8.132   6.456 131.523  0.00  0.00    -0.001 A 
ATOM      6  C   LIG A   1      -9.420   6.572 130.793  0.00  0.00    +0.086 C 
ATOM      7  C   LIG A   1     -10.204   5.460 131.527  0.00  0.00    +0.209 C 
ATOM      8  O   LIG A   1      -9.664   5.375 132.878  0.00  0.00    -0.485 OA
ATOM      9  C   LIG A   1      -8.371   5.815 132.732  0.00  0.00    +0.128 A 
ATOM     10  C   LIG A   1      -7.361   5.540 133.624  0.00  0.00    +0.092 A 
ATOM     11  C   LIG A   1      -6.069   5.875 133.224  0.00  0.00    +0.143 A 
ATOM     12  O   LIG A   1      -5.030   5.565 134.111  0.00  0.00    -0.422 OA
ATOM     13  C   LIG A   1      -3.708   5.898 133.839  0.00  0.00    +0.341 A 
ATOM     14  O   LIG A   1      -2.870   5.803 134.719  0.00  0.00    -0.245 OA
ENDROOT
BRANCH   1  16
ATOM     15  C   LIG A   1      -1.725   6.530 130.516  0.00  0.00    +0.020 C 
ATOM     16  C   LIG A   1      -1.872   6.354 132.047  0.00  0.00    +0.015 C 
ATOM     17  C   LIG A   1      -1.162   5.043 132.460  0.00  0.00    +0.020 C 
BRANCH  16  18
ATOM     18  C   LIG A   1      -1.144   7.568 132.663  0.00  0.00    -0.023 C 
ATOM     19  C   LIG A   1      -0.004   7.577 133.371  0.00  0.00    +0.005 C 
ENDBRANCH  16  18
ENDBRANCH   1  16
BRANCH   7  20
ATOM     20  C   LIG A   1     -10.166   4.067 130.808  0.00  0.00    +0.097 C 
ATOM     21  C   LIG A   1      -9.190   4.005 129.625  0.00  0.00    +0.045 C 
ATOM     22  C   LIG A   1      -9.810   2.940 131.789  0.00  0.00    +0.045 C 
BRANCH  20  23
ATOM     23  O   LIG A   1     -11.481   3.793 130.299  0.00  0.00    -0.386 OA
ATOM     24  H   LIG A   1     -11.436   2.960 129.795  0.00  0.00    +0.210 HD
ENDBRANCH  20  23
ENDBRANCH   7  20
TORSDOF 4
ENDMDL
MODEL 8
REMARK VINA RESULT:      -6.8      7.633      9.753
REMARK  Name = NuBBE_621
REMARK  8 active torsions:
REMARK  status: ('A' for Active; 'I' for Inactive)
REMARK    1  A    between atoms: C_1  and  C_2
REMARK    2  A    between atoms: C_2  and  C_3
REMARK    3  A    between atoms: C_2  and  C_4
REMARK    4  A    between atoms: C_2  and  C_6
REMARK    5  A    between atoms: C_12  and  C_14
REMARK    6  A    between atoms: C_14  and  O_15
REMARK    7  A    between atoms: C_14  and  C_16
REMARK    8  A    between atoms: C_14  and  C_17
REMARK                            x       y       z     vdW  Elec       q    Type
REMARK                         _______ _______ _______ _____ _____    ______ ____
ROOT
ATOM      1  C   LIG A   1      -5.462   3.106 126.812  0.00  0.00    +0.047 A 
ATOM      2  C   LIG A   1      -5.317   2.115 125.909  0.00  0.00    +0.023 A 
ATOM      3  C   LIG A   1      -6.450   1.543 125.189  0.00  0.00    +0.018 A 
ATOM      4  C   LIG A   1      -6.299   0.520 124.244  0.00  0.00    +0.018 A 
ATOM      5  C   LIG A   1      -7.447  -0.076 123.743  0.00  0.00    -0.001 A 
ATOM      6  C   LIG A   1      -7.606  -1.237 122.830  0.00  0.00    +0.086 C 
ATOM      7  C   LIG A   1      -9.027  -1.673 123.253  0.00  0.00    +0.209 C 
ATOM      8  O   LIG A   1      -9.725  -0.477 123.707  0.00  0.00    -0.485 OA
ATOM      9  C   LIG A   1      -8.710   0.336 124.150  0.00  0.00    +0.128 A 
ATOM     10  C   LIG A   1      -8.889   1.382 125.024  0.00  0.00    +0.092 A 
ATOM     11  C   LIG A   1      -7.735   1.968 125.539  0.00  0.00    +0.143 A 
ATOM     12  O   LIG A   1      -7.909   3.011 126.457  0.00  0.00    -0.422 OA
ATOM     13  C   LIG A   1      -6.830   3.701 126.997  0.00  0.00    +0.341 A 
ATOM     14  O   LIG A   1      -7.026   4.729 127.624  0.00  0.00    -0.245 OA
ENDROOT
BRANCH   1  16
ATOM     15  C   LIG A   1      -4.688   3.531 129.193  0.00  0.00    +0.020 C 
ATOM     16  C   LIG A   1      -4.320   3.674 127.696  0.00  0.00    +0.015 C 
ATOM     17  C   LIG A   1      -4.075   5.171 127.394  0.00  0.00    +0.020 C 
BRANCH  16  18
ATOM     18  C   LIG A   1      -3.010   2.877 127.526  0.00  0.00    -0.023 C 
ATOM     19  C   LIG A   1      -1.902   3.238 126.859  0.00  0.00    +0.005 C 
ENDBRANCH  16  18
ENDBRANCH   1  16
BRANCH   7  20
ATOM     20  C   LIG A   1      -9.055  -2.798 124.345  0.00  0.00    +0.097 C 
ATOM     21  C   LIG A   1      -7.749  -3.598 124.446  0.00  0.00    +0.045 C 
ATOM     22  C   LIG A   1      -9.381  -2.226 125.732  0.00  0.00    +0.045 C 
BRANCH  20  23
ATOM     23  O   LIG A   1     -10.102  -3.722 124.005  0.00  0.00    -0.386 OA
ATOM     24  H   LIG A   1      -9.849  -4.164 123.175  0.00  0.00    +0.210 HD
ENDBRANCH  20  23
ENDBRANCH   7  20
TORSDOF 4
ENDMDL
MODEL 9
REMARK VINA RESULT:      -6.8      8.251     11.404
REMARK  Name = NuBBE_621
REMARK  8 active torsions:
REMARK  status: ('A' for Active; 'I' for Inactive)
REMARK    1  A    between atoms: C_1  and  C_2
REMARK    2  A    between atoms: C_2  and  C_3
REMARK    3  A    between atoms: C_2  and  C_4
REMARK    4  A    between atoms: C_2  and  C_6
REMARK    5  A    between atoms: C_12  and  C_14
REMARK    6  A    between atoms: C_14  and  O_15
REMARK    7  A    between atoms: C_14  and  C_16
REMARK    8  A    between atoms: C_14  and  C_17
REMARK                            x       y       z     vdW  Elec       q    Type
REMARK                         _______ _______ _______ _____ _____    ______ ____
ROOT
ATOM      1  C   LIG A   1      -6.290  -3.143 130.830  0.00  0.00    +0.047 A 
ATOM      2  C   LIG A   1      -7.376  -3.226 130.033  0.00  0.00    +0.023 A 
ATOM      3  C   LIG A   1      -7.302  -3.021 128.591  0.00  0.00    +0.018 A 
ATOM      4  C   LIG A   1      -8.426  -3.116 127.761  0.00  0.00    +0.018 A 
ATOM      5  C   LIG A   1      -8.290  -2.733 126.434  0.00  0.00    -0.001 A 
ATOM      6  C   LIG A   1      -9.307  -2.619 125.358  0.00  0.00    +0.086 C 
ATOM      7  C   LIG A   1      -8.586  -1.586 124.464  0.00  0.00    +0.209 C 
ATOM      8  O   LIG A   1      -7.154  -1.772 124.663  0.00  0.00    -0.485 OA
ATOM      9  C   LIG A   1      -7.073  -2.285 125.935  0.00  0.00    +0.128 A 
ATOM     10  C   LIG A   1      -5.937  -2.247 126.708  0.00  0.00    +0.092 A 
ATOM     11  C   LIG A   1      -6.080  -2.615 128.045  0.00  0.00    +0.143 A 
ATOM     12  O   LIG A   1      -4.936  -2.544 128.848  0.00  0.00    -0.422 OA
ATOM     13  C   LIG A   1      -4.950  -2.934 130.182  0.00  0.00    +0.341 A 
ATOM     14  O   LIG A   1      -3.897  -3.056 130.785  0.00  0.00    -0.245 OA
ENDROOT
BRANCH   1  16
ATOM     15  C   LIG A   1      -5.476  -2.086 132.991  0.00  0.00    +0.020 C 
ATOM     16  C   LIG A   1      -6.319  -3.232 132.379  0.00  0.00    +0.015 C 
ATOM     17  C   LIG A   1      -5.742  -4.580 132.870  0.00  0.00    +0.020 C 
BRANCH  16  18
ATOM     18  C   LIG A   1      -7.742  -3.028 132.941  0.00  0.00    -0.023 C 
ATOM     19  C   LIG A   1      -8.233  -3.443 134.119  0.00  0.00    +0.005 C 
ENDBRANCH  16  18
ENDBRANCH   1  16
BRANCH   7  20
ATOM     20  C   LIG A   1      -9.010  -0.100 124.731  0.00  0.00    +0.097 C 
ATOM     21  C   LIG A   1      -7.884   0.776 125.297  0.00  0.00    +0.045 C 
ATOM     22  C   LIG A   1      -9.548   0.567 123.457  0.00  0.00    +0.045 C 
BRANCH  20  23
ATOM     23  O   LIG A   1     -10.077  -0.108 125.694  0.00  0.00    -0.386 OA
ATOM     24  H   LIG A   1      -9.937  -0.869 126.284  0.00  0.00    +0.210 HD
ENDBRANCH  20  23
ENDBRANCH   7  20
TORSDOF 4
ENDMDL
