MODEL 1
REMARK VINA RESULT:      -7.7      0.000      0.000
REMARK  Name = NuBBE_2089
REMARK  10 active torsions:
REMARK  status: ('A' for Active; 'I' for Inactive)
REMARK    1  A    between atoms: C_1  and  O_2
REMARK    2  A    between atoms: O_2  and  C_3
REMARK    3  A    between atoms: C_10  and  C_11
REMARK    4  A    between atoms: C_13  and  O_14
REMARK    5  A    between atoms: C_19  and  O_20
REMARK    6  A    between atoms: C_21  and  C_22
REMARK    7  A    between atoms: C_22  and  C_23
REMARK    8  A    between atoms: C_23  and  C_25
REMARK    9  A    between atoms: C_25  and  C_26
REMARK   10  A    between atoms: C_25  and  C_27
REMARK                            x       y       z     vdW  Elec       q    Type
REMARK                         _______ _______ _______ _____ _____    ______ ____
ROOT
ATOM      1  C   LIG A   1      -8.172   3.972 132.752  0.00  0.00    +0.128 A 
ATOM      2  C   LIG A   1      -9.198   4.918 132.645  0.00  0.00    +0.058 A 
ATOM      3  C   LIG A   1      -9.563   5.438 131.394  0.00  0.00    +0.040 A 
ATOM      4  C   LIG A   1     -10.637   6.443 131.323  0.00  0.00    +0.195 C 
ATOM      5  O   LIG A   1     -11.231   6.783 132.344  0.00  0.00    -0.287 OA
ATOM      6  C   LIG A   1     -10.989   7.045 130.023  0.00  0.00    +0.037 A 
ATOM      7  C   LIG A   1     -12.002   8.018 129.984  0.00  0.00    +0.016 A 
ATOM      8  C   LIG A   1     -12.353   8.631 128.779  0.00  0.00    -0.046 A 
ATOM      9  C   LIG A   1     -13.448   9.657 128.720  0.00  0.00    +0.044 C 
ATOM     10  C   LIG A   1     -11.662   8.279 127.616  0.00  0.00    +0.049 A 
ATOM     11  C   LIG A   1     -10.655   7.307 127.656  0.00  0.00    +0.129 A 
ATOM     12  C   LIG A   1     -10.322   6.664 128.858  0.00  0.00    +0.074 A 
ATOM     13  C   LIG A   1      -9.299   5.588 128.931  0.00  0.00    +0.202 C 
ATOM     14  O   LIG A   1      -8.752   5.127 127.931  0.00  0.00    -0.286 OA
ATOM     15  C   LIG A   1      -8.921   5.012 130.239  0.00  0.00    +0.075 A 
ATOM     16  C   LIG A   1      -7.917   4.033 130.339  0.00  0.00    +0.135 A 
ATOM     17  C   LIG A   1      -7.531   3.508 131.587  0.00  0.00    +0.043 A 
ENDROOT
BRANCH   1  19
ATOM     18  C   LIG A   1      -7.163   4.333 134.887  0.00  0.00    +0.277 C 
ATOM     19  O   LIG A   1      -7.731   3.440 133.935  0.00  0.00    -0.495 OA
ENDBRANCH   1  19
BRANCH  11  20
ATOM     20  O   LIG A   1      -9.998   7.008 126.496  0.00  0.00    -0.506 OA
ATOM     21  H   LIG A   1     -10.517   6.389 125.959  0.00  0.00    +0.292 HD
ENDBRANCH  11  20
BRANCH  16  22
ATOM     22  O   LIG A   1      -7.275   3.537 129.230  0.00  0.00    -0.506 OA
ATOM     23  H   LIG A   1      -6.303   3.582 129.391  0.00  0.00    +0.292 HD
ENDBRANCH  16  22
BRANCH  17  24
ATOM     24  C   LIG A   1      -6.417   2.483 131.671  0.00  0.00    +0.117 C 
BRANCH  24  25
ATOM     25  C   LIG A   1      -6.895   1.049 131.858  0.00  0.00    +0.140 C 
ATOM     26  O   LIG A   1      -6.402   0.274 132.681  0.00  0.00    -0.297 OA
BRANCH  25  27
ATOM     27  C   LIG A   1      -8.075   0.625 130.978  0.00  0.00    +0.049 C 
ATOM     28  C   LIG A   1      -7.758  -0.653 130.204  0.00  0.00    +0.015 C 
ATOM     29  C   LIG A   1      -9.323   0.443 131.835  0.00  0.00    +0.015 C 
ENDBRANCH  25  27
ENDBRANCH  24  25
ENDBRANCH  17  24
TORSDOF 6
ENDMDL
MODEL 2
REMARK VINA RESULT:      -7.6      1.453      2.395
REMARK  Name = NuBBE_2089
REMARK  10 active torsions:
REMARK  status: ('A' for Active; 'I' for Inactive)
REMARK    1  A    between atoms: C_1  and  O_2
REMARK    2  A    between atoms: O_2  and  C_3
REMARK    3  A    between atoms: C_10  and  C_11
REMARK    4  A    between atoms: C_13  and  O_14
REMARK    5  A    between atoms: C_19  and  O_20
REMARK    6  A    between atoms: C_21  and  C_22
REMARK    7  A    between atoms: C_22  and  C_23
REMARK    8  A    between atoms: C_23  and  C_25
REMARK    9  A    between atoms: C_25  and  C_26
REMARK   10  A    between atoms: C_25  and  C_27
REMARK                            x       y       z     vdW  Elec       q    Type
REMARK                         _______ _______ _______ _____ _____    ______ ____
ROOT
ATOM      1  C   LIG A   1      -8.016   4.152 132.906  0.00  0.00    +0.128 A 
ATOM      2  C   LIG A   1      -9.058   5.073 132.756  0.00  0.00    +0.058 A 
ATOM      3  C   LIG A   1      -9.449   5.507 131.480  0.00  0.00    +0.040 A 
ATOM      4  C   LIG A   1     -10.540   6.490 131.362  0.00  0.00    +0.195 C 
ATOM      5  O   LIG A   1     -11.125   6.885 132.369  0.00  0.00    -0.287 OA
ATOM      6  C   LIG A   1     -10.920   7.003 130.033  0.00  0.00    +0.037 A 
ATOM      7  C   LIG A   1     -11.949   7.956 129.947  0.00  0.00    +0.016 A 
ATOM      8  C   LIG A   1     -12.328   8.486 128.711  0.00  0.00    -0.046 A 
ATOM      9  C   LIG A   1     -13.439   9.490 128.605  0.00  0.00    +0.044 C 
ATOM     10  C   LIG A   1     -11.647   8.071 127.563  0.00  0.00    +0.049 A 
ATOM     11  C   LIG A   1     -10.624   7.119 127.649  0.00  0.00    +0.129 A 
ATOM     12  C   LIG A   1     -10.264   6.559 128.884  0.00  0.00    +0.074 A 
ATOM     13  C   LIG A   1      -9.223   5.505 129.009  0.00  0.00    +0.202 C 
ATOM     14  O   LIG A   1      -8.684   4.990 128.031  0.00  0.00    -0.286 OA
ATOM     15  C   LIG A   1      -8.817   5.019 130.344  0.00  0.00    +0.075 A 
ATOM     16  C   LIG A   1      -7.796   4.063 130.491  0.00  0.00    +0.135 A 
ATOM     17  C   LIG A   1      -7.384   3.625 131.763  0.00  0.00    +0.043 A 
ENDROOT
BRANCH   1  19
ATOM     18  C   LIG A   1      -7.389   4.659 135.155  0.00  0.00    +0.277 C 
ATOM     19  O   LIG A   1      -7.550   3.703 134.114  0.00  0.00    -0.495 OA
ENDBRANCH   1  19
BRANCH  11  20
ATOM     20  O   LIG A   1      -9.980   6.758 126.500  0.00  0.00    -0.506 OA
ATOM     21  H   LIG A   1      -9.245   6.156 126.696  0.00  0.00    +0.292 HD
ENDBRANCH  11  20
BRANCH  16  22
ATOM     22  O   LIG A   1      -7.163   3.507 129.406  0.00  0.00    -0.506 OA
ATOM     23  H   LIG A   1      -7.501   2.587 129.291  0.00  0.00    +0.292 HD
ENDBRANCH  16  22
BRANCH  17  24
ATOM     24  C   LIG A   1      -6.253   2.624 131.896  0.00  0.00    +0.117 C 
BRANCH  24  25
ATOM     25  C   LIG A   1      -4.862   3.220 131.725  0.00  0.00    +0.140 C 
ATOM     26  O   LIG A   1      -4.327   3.384 130.626  0.00  0.00    -0.297 OA
BRANCH  25  27
ATOM     27  C   LIG A   1      -4.166   3.655 133.019  0.00  0.00    +0.049 C 
ATOM     28  C   LIG A   1      -2.699   3.230 133.028  0.00  0.00    +0.015 C 
ATOM     29  C   LIG A   1      -4.293   5.165 133.194  0.00  0.00    +0.015 C 
ENDBRANCH  25  27
ENDBRANCH  24  25
ENDBRANCH  17  24
TORSDOF 6
ENDMDL
MODEL 3
REMARK VINA RESULT:      -7.6      1.687      7.026
REMARK  Name = NuBBE_2089
REMARK  10 active torsions:
REMARK  status: ('A' for Active; 'I' for Inactive)
REMARK    1  A    between atoms: C_1  and  O_2
REMARK    2  A    between atoms: O_2  and  C_3
REMARK    3  A    between atoms: C_10  and  C_11
REMARK    4  A    between atoms: C_13  and  O_14
REMARK    5  A    between atoms: C_19  and  O_20
REMARK    6  A    between atoms: C_21  and  C_22
REMARK    7  A    between atoms: C_22  and  C_23
REMARK    8  A    between atoms: C_23  and  C_25
REMARK    9  A    between atoms: C_25  and  C_26
REMARK   10  A    between atoms: C_25  and  C_27
REMARK                            x       y       z     vdW  Elec       q    Type
REMARK                         _______ _______ _______ _____ _____    ______ ____
ROOT
ATOM      1  C   LIG A   1     -10.371   6.108 130.843  0.00  0.00    +0.128 A 
ATOM      2  C   LIG A   1     -10.152   4.933 131.569  0.00  0.00    +0.058 A 
ATOM      3  C   LIG A   1      -9.484   3.846 130.984  0.00  0.00    +0.040 A 
ATOM      4  C   LIG A   1      -9.285   2.619 131.775  0.00  0.00    +0.195 C 
ATOM      5  O   LIG A   1      -9.660   2.573 132.945  0.00  0.00    -0.287 OA
ATOM      6  C   LIG A   1      -8.641   1.446 131.154  0.00  0.00    +0.037 A 
ATOM      7  C   LIG A   1      -8.482   0.280 131.922  0.00  0.00    +0.016 A 
ATOM      8  C   LIG A   1      -7.897  -0.862 131.368  0.00  0.00    -0.046 A 
ATOM      9  C   LIG A   1      -7.703  -2.107 132.184  0.00  0.00    +0.044 C 
ATOM     10  C   LIG A   1      -7.498  -0.833 130.029  0.00  0.00    +0.049 A 
ATOM     11  C   LIG A   1      -7.654   0.330 129.266  0.00  0.00    +0.129 A 
ATOM     12  C   LIG A   1      -8.209   1.490 129.828  0.00  0.00    +0.074 A 
ATOM     13  C   LIG A   1      -8.339   2.761 129.068  0.00  0.00    +0.202 C 
ATOM     14  O   LIG A   1      -7.883   2.904 127.935  0.00  0.00    -0.286 OA
ATOM     15  C   LIG A   1      -9.019   3.924 129.678  0.00  0.00    +0.075 A 
ATOM     16  C   LIG A   1      -9.204   5.118 128.960  0.00  0.00    +0.135 A 
ATOM     17  C   LIG A   1      -9.880   6.214 129.527  0.00  0.00    +0.043 A 
ENDROOT
BRANCH   1  19
ATOM     18  C   LIG A   1     -12.389   7.013 131.748  0.00  0.00    +0.277 C 
ATOM     19  O   LIG A   1     -11.043   7.201 131.325  0.00  0.00    -0.495 OA
ENDBRANCH   1  19
BRANCH  11  20
ATOM     20  O   LIG A   1      -7.261   0.303 127.958  0.00  0.00    -0.506 OA
ATOM     21  H   LIG A   1      -7.249   1.199 127.586  0.00  0.00    +0.292 HD
ENDBRANCH  11  20
BRANCH  16  22
ATOM     22  O   LIG A   1      -8.726   5.275 127.680  0.00  0.00    -0.506 OA
ATOM     23  H   LIG A   1      -9.436   4.999 127.052  0.00  0.00    +0.292 HD
ENDBRANCH  16  22
BRANCH  17  24
ATOM     24  C   LIG A   1     -10.102   7.476 128.716  0.00  0.00    +0.117 C 
BRANCH  24  25
ATOM     25  C   LIG A   1     -11.086   7.319 127.564  0.00  0.00    +0.140 C 
ATOM     26  O   LIG A   1     -10.804   6.746 126.509  0.00  0.00    -0.297 OA
BRANCH  25  27
ATOM     27  C   LIG A   1     -12.488   7.884 127.810  0.00  0.00    +0.049 C 
ATOM     28  C   LIG A   1     -13.434   6.807 128.336  0.00  0.00    +0.015 C 
ATOM     29  C   LIG A   1     -12.411   9.058 128.779  0.00  0.00    +0.015 C 
ENDBRANCH  25  27
ENDBRANCH  24  25
ENDBRANCH  17  24
TORSDOF 6
ENDMDL
MODEL 4
REMARK VINA RESULT:      -7.3      3.604      6.246
REMARK  Name = NuBBE_2089
REMARK  10 active torsions:
REMARK  status: ('A' for Active; 'I' for Inactive)
REMARK    1  A    between atoms: C_1  and  O_2
REMARK    2  A    between atoms: O_2  and  C_3
REMARK    3  A    between atoms: C_10  and  C_11
REMARK    4  A    between atoms: C_13  and  O_14
REMARK    5  A    between atoms: C_19  and  O_20
REMARK    6  A    between atoms: C_21  and  C_22
REMARK    7  A    between atoms: C_22  and  C_23
REMARK    8  A    between atoms: C_23  and  C_25
REMARK    9  A    between atoms: C_25  and  C_26
REMARK   10  A    between atoms: C_25  and  C_27
REMARK                            x       y       z     vdW  Elec       q    Type
REMARK                         _______ _______ _______ _____ _____    ______ ____
ROOT
ATOM      1  C   LIG A   1      -7.561  -2.050 129.113  0.00  0.00    +0.128 A 
ATOM      2  C   LIG A   1      -7.880  -1.161 130.145  0.00  0.00    +0.058 A 
ATOM      3  C   LIG A   1      -8.143   0.189 129.869  0.00  0.00    +0.040 A 
ATOM      4  C   LIG A   1      -8.460   1.099 130.983  0.00  0.00    +0.195 C 
ATOM      5  O   LIG A   1      -8.535   0.665 132.131  0.00  0.00    -0.287 OA
ATOM      6  C   LIG A   1      -8.677   2.533 130.716  0.00  0.00    +0.037 A 
ATOM      7  C   LIG A   1      -8.956   3.385 131.798  0.00  0.00    +0.016 A 
ATOM      8  C   LIG A   1      -9.148   4.754 131.595  0.00  0.00    -0.046 A 
ATOM      9  C   LIG A   1      -9.467   5.672 132.739  0.00  0.00    +0.044 C 
ATOM     10  C   LIG A   1      -9.031   5.266 130.299  0.00  0.00    +0.049 A 
ATOM     11  C   LIG A   1      -8.756   4.416 129.222  0.00  0.00    +0.129 A 
ATOM     12  C   LIG A   1      -8.597   3.036 129.417  0.00  0.00    +0.074 A 
ATOM     13  C   LIG A   1      -8.361   2.093 128.292  0.00  0.00    +0.202 C 
ATOM     14  O   LIG A   1      -8.387   2.449 127.115  0.00  0.00    -0.286 OA
ATOM     15  C   LIG A   1      -8.105   0.663 128.564  0.00  0.00    +0.075 A 
ATOM     16  C   LIG A   1      -7.825  -0.238 127.521  0.00  0.00    +0.135 A 
ATOM     17  C   LIG A   1      -7.547  -1.593 127.781  0.00  0.00    +0.043 A 
ENDROOT
BRANCH   1  19
ATOM     18  C   LIG A   1      -6.232  -3.688 130.235  0.00  0.00    +0.277 C 
ATOM     19  O   LIG A   1      -7.257  -3.373 129.299  0.00  0.00    -0.495 OA
ENDBRANCH   1  19
BRANCH  11  20
ATOM     20  O   LIG A   1      -8.637   4.967 127.978  0.00  0.00    -0.506 OA
ATOM     21  H   LIG A   1      -8.374   5.898 128.040  0.00  0.00    +0.292 HD
ENDBRANCH  11  20
BRANCH  16  22
ATOM     22  O   LIG A   1      -7.817   0.158 126.205  0.00  0.00    -0.506 OA
ATOM     23  H   LIG A   1      -6.879   0.286 125.928  0.00  0.00    +0.292 HD
ENDBRANCH  16  22
BRANCH  17  24
ATOM     24  C   LIG A   1      -7.207  -2.534 126.642  0.00  0.00    +0.117 C 
BRANCH  24  25
ATOM     25  C   LIG A   1      -8.416  -3.179 125.976  0.00  0.00    +0.140 C 
ATOM     26  O   LIG A   1      -9.513  -3.287 126.528  0.00  0.00    -0.297 OA
BRANCH  25  27
ATOM     27  C   LIG A   1      -8.201  -3.657 124.537  0.00  0.00    +0.049 C 
ATOM     28  C   LIG A   1      -9.387  -3.287 123.649  0.00  0.00    +0.015 C 
ATOM     29  C   LIG A   1      -6.907  -3.070 123.983  0.00  0.00    +0.015 C 
ENDBRANCH  25  27
ENDBRANCH  24  25
ENDBRANCH  17  24
TORSDOF 6
ENDMDL
MODEL 5
REMARK VINA RESULT:      -7.3      6.381     10.273
REMARK  Name = NuBBE_2089
REMARK  10 active torsions:
REMARK  status: ('A' for Active; 'I' for Inactive)
REMARK    1  A    between atoms: C_1  and  O_2
REMARK    2  A    between atoms: O_2  and  C_3
REMARK    3  A    between atoms: C_10  and  C_11
REMARK    4  A    between atoms: C_13  and  O_14
REMARK    5  A    between atoms: C_19  and  O_20
REMARK    6  A    between atoms: C_21  and  C_22
REMARK    7  A    between atoms: C_22  and  C_23
REMARK    8  A    between atoms: C_23  and  C_25
REMARK    9  A    between atoms: C_25  and  C_26
REMARK   10  A    between atoms: C_25  and  C_27
REMARK                            x       y       z     vdW  Elec       q    Type
REMARK                         _______ _______ _______ _____ _____    ______ ____
ROOT
ATOM      1  C   LIG A   1      -8.869  -1.769 124.848  0.00  0.00    +0.128 A 
ATOM      2  C   LIG A   1      -8.791  -2.564 125.996  0.00  0.00    +0.058 A 
ATOM      3  C   LIG A   1      -7.840  -2.291 126.991  0.00  0.00    +0.040 A 
ATOM      4  C   LIG A   1      -7.777  -3.160 128.179  0.00  0.00    +0.195 C 
ATOM      5  O   LIG A   1      -8.580  -4.082 128.311  0.00  0.00    -0.287 OA
ATOM      6  C   LIG A   1      -6.742  -2.924 129.203  0.00  0.00    +0.037 A 
ATOM      7  C   LIG A   1      -6.689  -3.780 130.316  0.00  0.00    +0.016 A 
ATOM      8  C   LIG A   1      -5.712  -3.607 131.300  0.00  0.00    -0.046 A 
ATOM      9  C   LIG A   1      -5.656  -4.502 132.504  0.00  0.00    +0.044 C 
ATOM     10  C   LIG A   1      -4.772  -2.584 131.144  0.00  0.00    +0.049 A 
ATOM     11  C   LIG A   1      -4.828  -1.730 130.037  0.00  0.00    +0.129 A 
ATOM     12  C   LIG A   1      -5.828  -1.879 129.064  0.00  0.00    +0.074 A 
ATOM     13  C   LIG A   1      -5.956  -0.958 127.904  0.00  0.00    +0.202 C 
ATOM     14  O   LIG A   1      -5.256   0.045 127.776  0.00  0.00    -0.286 OA
ATOM     15  C   LIG A   1      -6.969  -1.218 126.859  0.00  0.00    +0.075 A 
ATOM     16  C   LIG A   1      -7.072  -0.393 125.724  0.00  0.00    +0.135 A 
ATOM     17  C   LIG A   1      -8.012  -0.659 124.712  0.00  0.00    +0.043 A 
ENDROOT
BRANCH   1  19
ATOM     18  C   LIG A   1      -9.714  -3.262 123.185  0.00  0.00    +0.277 C 
ATOM     19  O   LIG A   1      -9.742  -1.986 123.815  0.00  0.00    -0.495 OA
ENDBRANCH   1  19
BRANCH  11  20
ATOM     20  O   LIG A   1      -3.878  -0.756 129.923  0.00  0.00    -0.506 OA
ATOM     21  H   LIG A   1      -4.253   0.114 130.133  0.00  0.00    +0.292 HD
ENDBRANCH  11  20
BRANCH  16  22
ATOM     22  O   LIG A   1      -6.271   0.710 125.556  0.00  0.00    -0.506 OA
ATOM     23  H   LIG A   1      -5.361   0.479 125.862  0.00  0.00    +0.292 HD
ENDBRANCH  16  22
BRANCH  17  24
ATOM     24  C   LIG A   1      -8.075   0.221 123.480  0.00  0.00    +0.117 C 
BRANCH  24  25
ATOM     25  C   LIG A   1      -9.043   1.393 123.591  0.00  0.00    +0.140 C 
ATOM     26  O   LIG A   1     -10.247   1.254 123.820  0.00  0.00    -0.297 OA
BRANCH  25  27
ATOM     27  C   LIG A   1      -8.418   2.783 123.444  0.00  0.00    +0.049 C 
ATOM     28  C   LIG A   1      -8.282   3.474 124.799  0.00  0.00    +0.015 C 
ATOM     29  C   LIG A   1      -7.063   2.673 122.754  0.00  0.00    +0.015 C 
ENDBRANCH  25  27
ENDBRANCH  24  25
ENDBRANCH  17  24
TORSDOF 6
ENDMDL
MODEL 6
REMARK VINA RESULT:      -7.3      2.513      5.509
REMARK  Name = NuBBE_2089
REMARK  10 active torsions:
REMARK  status: ('A' for Active; 'I' for Inactive)
REMARK    1  A    between atoms: C_1  and  O_2
REMARK    2  A    between atoms: O_2  and  C_3
REMARK    3  A    between atoms: C_10  and  C_11
REMARK    4  A    between atoms: C_13  and  O_14
REMARK    5  A    between atoms: C_19  and  O_20
REMARK    6  A    between atoms: C_21  and  C_22
REMARK    7  A    between atoms: C_22  and  C_23
REMARK    8  A    between atoms: C_23  and  C_25
REMARK    9  A    between atoms: C_25  and  C_26
REMARK   10  A    between atoms: C_25  and  C_27
REMARK                            x       y       z     vdW  Elec       q    Type
REMARK                         _______ _______ _______ _____ _____    ______ ____
ROOT
ATOM      1  C   LIG A   1      -7.726  -0.863 128.969  0.00  0.00    +0.128 A 
ATOM      2  C   LIG A   1      -7.922   0.459 128.558  0.00  0.00    +0.058 A 
ATOM      3  C   LIG A   1      -8.281   1.450 129.486  0.00  0.00    +0.040 A 
ATOM      4  C   LIG A   1      -8.494   2.829 129.014  0.00  0.00    +0.195 C 
ATOM      5  O   LIG A   1      -8.313   3.110 127.831  0.00  0.00    -0.287 OA
ATOM      6  C   LIG A   1      -8.933   3.866 129.965  0.00  0.00    +0.037 A 
ATOM      7  C   LIG A   1      -9.151   5.170 129.487  0.00  0.00    +0.016 A 
ATOM      8  C   LIG A   1      -9.588   6.180 130.348  0.00  0.00    -0.046 A 
ATOM      9  C   LIG A   1      -9.805   7.581 129.854  0.00  0.00    +0.044 C 
ATOM     10  C   LIG A   1      -9.830   5.865 131.688  0.00  0.00    +0.049 A 
ATOM     11  C   LIG A   1      -9.610   4.568 132.164  0.00  0.00    +0.129 A 
ATOM     12  C   LIG A   1      -9.138   3.558 131.311  0.00  0.00    +0.074 A 
ATOM     13  C   LIG A   1      -8.838   2.184 131.790  0.00  0.00    +0.202 C 
ATOM     14  O   LIG A   1      -8.891   1.872 132.978  0.00  0.00    -0.286 OA
ATOM     15  C   LIG A   1      -8.435   1.135 130.830  0.00  0.00    +0.075 A 
ATOM     16  C   LIG A   1      -8.200  -0.186 131.250  0.00  0.00    +0.135 A 
ATOM     17  C   LIG A   1      -7.849  -1.193 130.332  0.00  0.00    +0.043 A 
ENDROOT
BRANCH   1  19
ATOM     18  C   LIG A   1      -8.277  -2.137 127.024  0.00  0.00    +0.277 C 
ATOM     19  O   LIG A   1      -7.408  -1.895 128.126  0.00  0.00    -0.495 OA
ENDBRANCH   1  19
BRANCH  11  20
ATOM     20  O   LIG A   1      -9.876   4.307 133.479  0.00  0.00    -0.506 OA
ATOM     21  H   LIG A   1     -10.051   5.129 133.961  0.00  0.00    +0.292 HD
ENDBRANCH  11  20
BRANCH  16  22
ATOM     22  O   LIG A   1      -8.290  -0.552 132.572  0.00  0.00    -0.506 OA
ATOM     23  H   LIG A   1      -9.214  -0.853 132.744  0.00  0.00    +0.292 HD
ENDBRANCH  16  22
BRANCH  17  24
ATOM     24  C   LIG A   1      -7.641  -2.618 130.807  0.00  0.00    +0.117 C 
BRANCH  24  25
ATOM     25  C   LIG A   1      -6.206  -2.948 131.198  0.00  0.00    +0.140 C 
ATOM     26  O   LIG A   1      -5.586  -2.335 132.070  0.00  0.00    -0.297 OA
BRANCH  25  27
ATOM     27  C   LIG A   1      -5.578  -4.138 130.465  0.00  0.00    +0.049 C 
ATOM     28  C   LIG A   1      -4.282  -3.734 129.766  0.00  0.00    +0.015 C 
ATOM     29  C   LIG A   1      -5.332  -5.280 131.444  0.00  0.00    +0.015 C 
ENDBRANCH  25  27
ENDBRANCH  24  25
ENDBRANCH  17  24
TORSDOF 6
ENDMDL
MODEL 7
REMARK VINA RESULT:      -7.2      5.086      8.175
REMARK  Name = NuBBE_2089
REMARK  10 active torsions:
REMARK  status: ('A' for Active; 'I' for Inactive)
REMARK    1  A    between atoms: C_1  and  O_2
REMARK    2  A    between atoms: O_2  and  C_3
REMARK    3  A    between atoms: C_10  and  C_11
REMARK    4  A    between atoms: C_13  and  O_14
REMARK    5  A    between atoms: C_19  and  O_20
REMARK    6  A    between atoms: C_21  and  C_22
REMARK    7  A    between atoms: C_22  and  C_23
REMARK    8  A    between atoms: C_23  and  C_25
REMARK    9  A    between atoms: C_25  and  C_26
REMARK   10  A    between atoms: C_25  and  C_27
REMARK                            x       y       z     vdW  Elec       q    Type
REMARK                         _______ _______ _______ _____ _____    ______ ____
ROOT
ATOM      1  C   LIG A   1      -7.599   1.134 124.287  0.00  0.00    +0.128 A 
ATOM      2  C   LIG A   1      -7.630   0.710 125.619  0.00  0.00    +0.058 A 
ATOM      3  C   LIG A   1      -7.808   1.635 126.660  0.00  0.00    +0.040 A 
ATOM      4  C   LIG A   1      -7.820   1.152 128.051  0.00  0.00    +0.195 C 
ATOM      5  O   LIG A   1      -7.722  -0.050 128.288  0.00  0.00    -0.287 OA
ATOM      6  C   LIG A   1      -7.943   2.119 129.158  0.00  0.00    +0.037 A 
ATOM      7  C   LIG A   1      -7.930   1.637 130.478  0.00  0.00    +0.016 A 
ATOM      8  C   LIG A   1      -8.022   2.518 131.559  0.00  0.00    -0.046 A 
ATOM      9  C   LIG A   1      -8.030   2.014 132.973  0.00  0.00    +0.044 C 
ATOM     10  C   LIG A   1      -8.100   3.891 131.305  0.00  0.00    +0.049 A 
ATOM     11  C   LIG A   1      -8.115   4.370 129.990  0.00  0.00    +0.129 A 
ATOM     12  C   LIG A   1      -8.058   3.486 128.901  0.00  0.00    +0.074 A 
ATOM     13  C   LIG A   1      -8.129   3.951 127.491  0.00  0.00    +0.202 C 
ATOM     14  O   LIG A   1      -8.340   5.125 127.192  0.00  0.00    -0.286 OA
ATOM     15  C   LIG A   1      -7.968   2.986 126.383  0.00  0.00    +0.075 A 
ATOM     16  C   LIG A   1      -7.977   3.409 125.042  0.00  0.00    +0.135 A 
ATOM     17  C   LIG A   1      -7.789   2.497 123.987  0.00  0.00    +0.043 A 
ENDROOT
BRANCH   1  19
ATOM     18  C   LIG A   1      -6.729  -0.930 123.456  0.00  0.00    +0.277 C 
ATOM     19  O   LIG A   1      -7.396   0.304 123.216  0.00  0.00    -0.495 OA
ENDBRANCH   1  19
BRANCH  11  20
ATOM     20  O   LIG A   1      -8.177   5.720 129.794  0.00  0.00    -0.506 OA
ATOM     21  H   LIG A   1      -9.038   5.973 129.426  0.00  0.00    +0.292 HD
ENDBRANCH  11  20
BRANCH  16  22
ATOM     22  O   LIG A   1      -8.177   4.725 124.699  0.00  0.00    -0.506 OA
ATOM     23  H   LIG A   1      -9.134   4.932 124.824  0.00  0.00    +0.292 HD
ENDBRANCH  16  22
BRANCH  17  24
ATOM     24  C   LIG A   1      -7.761   2.986 122.552  0.00  0.00    +0.117 C 
BRANCH  24  25
ATOM     25  C   LIG A   1      -6.448   3.635 122.133  0.00  0.00    +0.140 C 
ATOM     26  O   LIG A   1      -5.588   4.000 122.938  0.00  0.00    -0.297 OA
BRANCH  25  27
ATOM     27  C   LIG A   1      -6.230   3.772 120.623  0.00  0.00    +0.049 C 
ATOM     28  C   LIG A   1      -7.541   4.078 119.902  0.00  0.00    +0.015 C 
ATOM     29  C   LIG A   1      -5.193   4.854 120.344  0.00  0.00    +0.015 C 
ENDBRANCH  25  27
ENDBRANCH  24  25
ENDBRANCH  17  24
TORSDOF 6
ENDMDL
MODEL 8
REMARK VINA RESULT:      -7.2      6.521      8.493
REMARK  Name = NuBBE_2089
REMARK  10 active torsions:
REMARK  status: ('A' for Active; 'I' for Inactive)
REMARK    1  A    between atoms: C_1  and  O_2
REMARK    2  A    between atoms: O_2  and  C_3
REMARK    3  A    between atoms: C_10  and  C_11
REMARK    4  A    between atoms: C_13  and  O_14
REMARK    5  A    between atoms: C_19  and  O_20
REMARK    6  A    between atoms: C_21  and  C_22
REMARK    7  A    between atoms: C_22  and  C_23
REMARK    8  A    between atoms: C_23  and  C_25
REMARK    9  A    between atoms: C_25  and  C_26
REMARK   10  A    between atoms: C_25  and  C_27
REMARK                            x       y       z     vdW  Elec       q    Type
REMARK                         _______ _______ _______ _____ _____    ______ ____
ROOT
ATOM      1  C   LIG A   1      -7.998   2.412 123.377  0.00  0.00    +0.128 A 
ATOM      2  C   LIG A   1      -7.391   3.546 123.924  0.00  0.00    +0.058 A 
ATOM      3  C   LIG A   1      -6.413   3.422 124.924  0.00  0.00    +0.040 A 
ATOM      4  C   LIG A   1      -5.806   4.640 125.487  0.00  0.00    +0.195 C 
ATOM      5  O   LIG A   1      -6.123   5.745 125.050  0.00  0.00    -0.287 OA
ATOM      6  C   LIG A   1      -4.823   4.527 126.581  0.00  0.00    +0.037 A 
ATOM      7  C   LIG A   1      -4.274   5.705 127.117  0.00  0.00    +0.016 A 
ATOM      8  C   LIG A   1      -3.357   5.647 128.169  0.00  0.00    -0.046 A 
ATOM      9  C   LIG A   1      -2.748   6.896 128.737  0.00  0.00    +0.044 C 
ATOM     10  C   LIG A   1      -3.014   4.399 128.697  0.00  0.00    +0.049 A 
ATOM     11  C   LIG A   1      -3.559   3.227 128.161  0.00  0.00    +0.129 A 
ATOM     12  C   LIG A   1      -4.455   3.278 127.082  0.00  0.00    +0.074 A 
ATOM     13  C   LIG A   1      -5.011   2.054 126.448  0.00  0.00    +0.202 C 
ATOM     14  O   LIG A   1      -4.648   0.922 126.764  0.00  0.00    -0.286 OA
ATOM     15  C   LIG A   1      -6.024   2.168 125.377  0.00  0.00    +0.075 A 
ATOM     16  C   LIG A   1      -6.606   1.025 124.800  0.00  0.00    +0.135 A 
ATOM     17  C   LIG A   1      -7.594   1.132 123.805  0.00  0.00    +0.043 A 
ENDROOT
BRANCH   1  19
ATOM     18  C   LIG A   1      -8.805   3.328 121.323  0.00  0.00    +0.277 C 
ATOM     19  O   LIG A   1      -8.984   2.446 122.425  0.00  0.00    -0.495 OA
ENDBRANCH   1  19
BRANCH  11  20
ATOM     20  O   LIG A   1      -3.204   2.033 128.721  0.00  0.00    -0.506 OA
ATOM     21  H   LIG A   1      -3.580   1.294 128.218  0.00  0.00    +0.292 HD
ENDBRANCH  11  20
BRANCH  16  22
ATOM     22  O   LIG A   1      -6.230  -0.244 125.172  0.00  0.00    -0.506 OA
ATOM     23  H   LIG A   1      -6.744  -0.887 124.628  0.00  0.00    +0.292 HD
ENDBRANCH  16  22
BRANCH  17  24
ATOM     24  C   LIG A   1      -8.235  -0.115 123.229  0.00  0.00    +0.117 C 
BRANCH  24  25
ATOM     25  C   LIG A   1      -9.153  -0.855 124.194  0.00  0.00    +0.140 C 
ATOM     26  O   LIG A   1      -9.925  -0.281 124.965  0.00  0.00    -0.297 OA
BRANCH  25  27
ATOM     27  C   LIG A   1      -9.094  -2.384 124.122  0.00  0.00    +0.049 C 
ATOM     28  C   LIG A   1      -7.758  -2.859 123.555  0.00  0.00    +0.015 C 
ATOM     29  C   LIG A   1      -9.338  -2.979 125.504  0.00  0.00    +0.015 C 
ENDBRANCH  25  27
ENDBRANCH  24  25
ENDBRANCH  17  24
TORSDOF 6
ENDMDL
MODEL 9
REMARK VINA RESULT:      -7.1      3.426      7.233
REMARK  Name = NuBBE_2089
REMARK  10 active torsions:
REMARK  status: ('A' for Active; 'I' for Inactive)
REMARK    1  A    between atoms: C_1  and  O_2
REMARK    2  A    between atoms: O_2  and  C_3
REMARK    3  A    between atoms: C_10  and  C_11
REMARK    4  A    between atoms: C_13  and  O_14
REMARK    5  A    between atoms: C_19  and  O_20
REMARK    6  A    between atoms: C_21  and  C_22
REMARK    7  A    between atoms: C_22  and  C_23
REMARK    8  A    between atoms: C_23  and  C_25
REMARK    9  A    between atoms: C_25  and  C_26
REMARK   10  A    between atoms: C_25  and  C_27
REMARK                            x       y       z     vdW  Elec       q    Type
REMARK                         _______ _______ _______ _____ _____    ______ ____
ROOT
ATOM      1  C   LIG A   1      -7.838   2.481 130.571  0.00  0.00    +0.128 A 
ATOM      2  C   LIG A   1      -7.725   1.164 130.115  0.00  0.00    +0.058 A 
ATOM      3  C   LIG A   1      -7.934   0.856 128.761  0.00  0.00    +0.040 A 
ATOM      4  C   LIG A   1      -7.821  -0.544 128.320  0.00  0.00    +0.195 C 
ATOM      5  O   LIG A   1      -7.503  -1.419 129.123  0.00  0.00    -0.287 OA
ATOM      6  C   LIG A   1      -8.099  -0.892 126.914  0.00  0.00    +0.037 A 
ATOM      7  C   LIG A   1      -8.006  -2.238 126.522  0.00  0.00    +0.016 A 
ATOM      8  C   LIG A   1      -8.282  -2.617 125.206  0.00  0.00    -0.046 A 
ATOM      9  C   LIG A   1      -8.166  -4.049 124.769  0.00  0.00    +0.044 C 
ATOM     10  C   LIG A   1      -8.677  -1.636 124.291  0.00  0.00    +0.049 A 
ATOM     11  C   LIG A   1      -8.766  -0.295 124.682  0.00  0.00    +0.129 A 
ATOM     12  C   LIG A   1      -8.457   0.094 125.994  0.00  0.00    +0.074 A 
ATOM     13  C   LIG A   1      -8.484   1.514 126.432  0.00  0.00    +0.202 C 
ATOM     14  O   LIG A   1      -8.684   2.443 125.652  0.00  0.00    -0.286 OA
ATOM     15  C   LIG A   1      -8.243   1.858 127.850  0.00  0.00    +0.075 A 
ATOM     16  C   LIG A   1      -8.318   3.188 128.300  0.00  0.00    +0.135 A 
ATOM     17  C   LIG A   1      -8.123   3.512 129.655  0.00  0.00    +0.043 A 
ENDROOT
BRANCH   1  19
ATOM     18  C   LIG A   1      -8.535   2.255 132.845  0.00  0.00    +0.277 C 
ATOM     19  O   LIG A   1      -7.686   2.862 131.878  0.00  0.00    -0.495 OA
ENDBRANCH   1  19
BRANCH  11  20
ATOM     20  O   LIG A   1      -9.171   0.623 123.755  0.00  0.00    -0.506 OA
ATOM     21  H   LIG A   1      -8.556   1.373 123.725  0.00  0.00    +0.292 HD
ENDBRANCH  11  20
BRANCH  16  22
ATOM     22  O   LIG A   1      -8.575   4.229 127.440  0.00  0.00    -0.506 OA
ATOM     23  H   LIG A   1      -9.357   4.724 127.783  0.00  0.00    +0.292 HD
ENDBRANCH  16  22
BRANCH  17  24
ATOM     24  C   LIG A   1      -8.250   4.949 130.120  0.00  0.00    +0.117 C 
BRANCH  24  25
ATOM     25  C   LIG A   1      -9.685   5.431 130.292  0.00  0.00    +0.140 C 
ATOM     26  O   LIG A   1     -10.426   5.697 129.343  0.00  0.00    -0.297 OA
BRANCH  25  27
ATOM     27  C   LIG A   1     -10.182   5.527 131.738  0.00  0.00    +0.049 C 
ATOM     28  C   LIG A   1      -9.069   5.991 132.675  0.00  0.00    +0.015 C 
ATOM     29  C   LIG A   1     -11.381   6.466 131.813  0.00  0.00    +0.015 C 
ENDBRANCH  25  27
ENDBRANCH  24  25
ENDBRANCH  17  24
TORSDOF 6
ENDMDL
