MODEL 1
REMARK VINA RESULT:      -8.4      0.000      0.000
REMARK  Name = NuBBE_2288
REMARK  3 active torsions:
REMARK  status: ('A' for Active; 'I' for Inactive)
REMARK    1  A    between atoms: C_1  and  C_2
REMARK    2  A    between atoms: C_18  and  C_19
REMARK    3  A    between atoms: C_18  and  C_20
REMARK                            x       y       z     vdW  Elec       q    Type
REMARK                         _______ _______ _______ _____ _____    ______ ____
ROOT
ATOM      1  C   LIG A   1      -7.614  -1.306 128.019  0.00  0.00    +0.016 C 
ATOM      2  C   LIG A   1      -7.736  -1.434 126.470  0.00  0.00    -0.007 C 
ATOM      3  C   LIG A   1      -8.014  -0.006 125.947  0.00  0.00    -0.054 C 
ATOM      4  C   LIG A   1      -9.233   0.466 125.603  0.00  0.00    +0.047 C 
ATOM      5  C   LIG A   1      -9.302   1.348 124.364  0.00  0.00    +0.163 C 
ATOM      6  O   LIG A   1     -10.336   1.806 124.022  0.00  0.00    -0.292 OA
ATOM      7  C   LIG A   1      -7.961   1.556 123.580  0.00  0.00    +0.086 C 
ATOM      8  C   LIG A   1      -6.921   0.522 123.970  0.00  0.00    +0.027 C 
ATOM      9  C   LIG A   1      -6.786   0.777 125.465  0.00  0.00    -0.003 C 
ATOM     10  C   LIG A   1      -6.855   2.343 125.560  0.00  0.00    +0.042 C 
ATOM     11  C   LIG A   1      -7.223   2.718 124.146  0.00  0.00    -0.065 C 
ATOM     12  C   LIG A   1      -6.694   3.701 123.409  0.00  0.00    +0.008 C 
ATOM     13  C   LIG A   1      -5.491   0.308 126.107  0.00  0.00    +0.012 C 
ATOM     14  C   LIG A   1      -5.205  -1.170 125.932  0.00  0.00    +0.006 C 
ATOM     15  C   LIG A   1      -6.431  -2.081 125.747  0.00  0.00    +0.005 C 
ATOM     16  C   LIG A   1      -6.462  -2.882 124.272  0.00  0.00    -0.031 C 
ATOM     17  C   LIG A   1      -5.085  -3.600 124.073  0.00  0.00    +0.011 C 
ATOM     18  C   LIG A   1      -6.722  -2.291 122.843  0.00  0.00    +0.011 C 
ATOM     19  C   LIG A   1      -7.575  -3.912 124.362  0.00  0.00    +0.007 C 
ATOM     20  C   LIG A   1      -8.681  -3.512 125.308  0.00  0.00    +0.001 C 
ATOM     21  C   LIG A   1      -8.893  -2.405 126.311  0.00  0.00    +0.011 C 
ENDROOT
TORSDOF 0
ENDMDL
MODEL 2
REMARK VINA RESULT:      -7.8      2.144      4.173
REMARK  Name = NuBBE_2288
REMARK  3 active torsions:
REMARK  status: ('A' for Active; 'I' for Inactive)
REMARK    1  A    between atoms: C_1  and  C_2
REMARK    2  A    between atoms: C_18  and  C_19
REMARK    3  A    between atoms: C_18  and  C_20
REMARK                            x       y       z     vdW  Elec       q    Type
REMARK                         _______ _______ _______ _____ _____    ______ ____
ROOT
ATOM      1  C   LIG A   1      -5.315   0.720 128.067  0.00  0.00    +0.016 C 
ATOM      2  C   LIG A   1      -6.551  -0.217 128.224  0.00  0.00    -0.007 C 
ATOM      3  C   LIG A   1      -7.253  -0.228 126.848  0.00  0.00    -0.054 C 
ATOM      4  C   LIG A   1      -8.349   0.500 126.536  0.00  0.00    +0.047 C 
ATOM      5  C   LIG A   1      -9.406  -0.185 125.682  0.00  0.00    +0.163 C 
ATOM      6  O   LIG A   1     -10.379   0.404 125.360  0.00  0.00    -0.292 OA
ATOM      7  C   LIG A   1      -9.143  -1.686 125.317  0.00  0.00    +0.086 C 
ATOM      8  C   LIG A   1      -8.081  -2.299 126.208  0.00  0.00    +0.027 C 
ATOM      9  C   LIG A   1      -6.888  -1.396 125.923  0.00  0.00    -0.003 C 
ATOM     10  C   LIG A   1      -7.002  -1.145 124.377  0.00  0.00    +0.042 C 
ATOM     11  C   LIG A   1      -8.342  -1.766 124.065  0.00  0.00    -0.065 C 
ATOM     12  C   LIG A   1      -8.641  -2.559 123.031  0.00  0.00    +0.008 C 
ATOM     13  C   LIG A   1      -5.519  -1.984 126.220  0.00  0.00    +0.012 C 
ATOM     14  C   LIG A   1      -5.332  -2.444 127.652  0.00  0.00    +0.006 C 
ATOM     15  C   LIG A   1      -6.188  -1.727 128.711  0.00  0.00    +0.005 C 
ATOM     16  C   LIG A   1      -7.248  -2.741 129.525  0.00  0.00    -0.031 C 
ATOM     17  C   LIG A   1      -6.438  -3.967 130.067  0.00  0.00    +0.011 C 
ATOM     18  C   LIG A   1      -8.547  -3.435 128.986  0.00  0.00    +0.011 C 
ATOM     19  C   LIG A   1      -7.812  -1.939 130.685  0.00  0.00    +0.007 C 
ATOM     20  C   LIG A   1      -7.855  -0.455 130.416  0.00  0.00    +0.001 C 
ATOM     21  C   LIG A   1      -7.336   0.459 129.334  0.00  0.00    +0.011 C 
ENDROOT
TORSDOF 0
ENDMDL
MODEL 3
REMARK VINA RESULT:      -7.8      1.825      2.725
REMARK  Name = NuBBE_2288
REMARK  3 active torsions:
REMARK  status: ('A' for Active; 'I' for Inactive)
REMARK    1  A    between atoms: C_1  and  C_2
REMARK    2  A    between atoms: C_18  and  C_19
REMARK    3  A    between atoms: C_18  and  C_20
REMARK                            x       y       z     vdW  Elec       q    Type
REMARK                         _______ _______ _______ _____ _____    ______ ____
ROOT
ATOM      1  C   LIG A   1      -5.118  -1.771 128.554  0.00  0.00    +0.016 C 
ATOM      2  C   LIG A   1      -6.574  -1.679 128.002  0.00  0.00    -0.007 C 
ATOM      3  C   LIG A   1      -6.851  -0.174 127.785  0.00  0.00    -0.054 C 
ATOM      4  C   LIG A   1      -7.551   0.611 128.635  0.00  0.00    +0.047 C 
ATOM      5  C   LIG A   1      -8.497   1.626 128.008  0.00  0.00    +0.163 C 
ATOM      6  O   LIG A   1      -9.123   2.354 128.697  0.00  0.00    -0.292 OA
ATOM      7  C   LIG A   1      -8.609   1.602 126.445  0.00  0.00    +0.086 C 
ATOM      8  C   LIG A   1      -8.060   0.313 125.866  0.00  0.00    +0.027 C 
ATOM      9  C   LIG A   1      -6.620   0.347 126.362  0.00  0.00    -0.003 C 
ATOM     10  C   LIG A   1      -6.234   1.862 126.210  0.00  0.00    +0.042 C 
ATOM     11  C   LIG A   1      -7.564   2.481 125.853  0.00  0.00    -0.065 C 
ATOM     12  C   LIG A   1      -7.800   3.391 124.902  0.00  0.00    +0.008 C 
ATOM     13  C   LIG A   1      -5.624  -0.489 125.576  0.00  0.00    +0.012 C 
ATOM     14  C   LIG A   1      -5.975  -1.961 125.486  0.00  0.00    +0.006 C 
ATOM     15  C   LIG A   1      -6.826  -2.526 126.636  0.00  0.00    +0.005 C 
ATOM     16  C   LIG A   1      -8.319  -3.114 126.147  0.00  0.00    -0.031 C 
ATOM     17  C   LIG A   1      -8.091  -4.109 124.960  0.00  0.00    +0.011 C 
ATOM     18  C   LIG A   1      -9.573  -2.312 125.652  0.00  0.00    +0.011 C 
ATOM     19  C   LIG A   1      -8.905  -3.854 127.337  0.00  0.00    +0.007 C 
ATOM     20  C   LIG A   1      -8.426  -3.320 128.664  0.00  0.00    +0.001 C 
ATOM     21  C   LIG A   1      -7.386  -2.323 129.112  0.00  0.00    +0.011 C 
ENDROOT
TORSDOF 0
ENDMDL
MODEL 4
REMARK VINA RESULT:      -7.5      1.722      3.309
REMARK  Name = NuBBE_2288
REMARK  3 active torsions:
REMARK  status: ('A' for Active; 'I' for Inactive)
REMARK    1  A    between atoms: C_1  and  C_2
REMARK    2  A    between atoms: C_18  and  C_19
REMARK    3  A    between atoms: C_18  and  C_20
REMARK                            x       y       z     vdW  Elec       q    Type
REMARK                         _______ _______ _______ _____ _____    ______ ____
ROOT
ATOM      1  C   LIG A   1      -9.153  -1.334 122.837  0.00  0.00    +0.016 C 
ATOM      2  C   LIG A   1      -7.866  -0.884 123.593  0.00  0.00    -0.007 C 
ATOM      3  C   LIG A   1      -7.865   0.661 123.550  0.00  0.00    -0.054 C 
ATOM      4  C   LIG A   1      -7.137   1.408 122.690  0.00  0.00    +0.047 C 
ATOM      5  C   LIG A   1      -6.498   2.670 123.251  0.00  0.00    +0.163 C 
ATOM      6  O   LIG A   1      -5.864   3.375 122.545  0.00  0.00    -0.292 OA
ATOM      7  C   LIG A   1      -6.694   2.930 124.784  0.00  0.00    +0.086 C 
ATOM      8  C   LIG A   1      -7.147   1.677 125.508  0.00  0.00    +0.027 C 
ATOM      9  C   LIG A   1      -8.449   1.361 124.783  0.00  0.00    -0.003 C 
ATOM     10  C   LIG A   1      -9.080   2.783 124.565  0.00  0.00    +0.042 C 
ATOM     11  C   LIG A   1      -7.956   3.687 125.008  0.00  0.00    -0.065 C 
ATOM     12  C   LIG A   1      -8.052   4.772 125.784  0.00  0.00    +0.008 C 
ATOM     13  C   LIG A   1      -9.444   0.500 125.542  0.00  0.00    +0.012 C 
ATOM     14  C   LIG A   1      -8.901  -0.846 125.980  0.00  0.00    +0.006 C 
ATOM     15  C   LIG A   1      -7.764  -1.429 125.123  0.00  0.00    +0.005 C 
ATOM     16  C   LIG A   1      -6.326  -1.642 125.961  0.00  0.00    -0.031 C 
ATOM     17  C   LIG A   1      -6.632  -2.448 127.267  0.00  0.00    +0.011 C 
ATOM     18  C   LIG A   1      -5.330  -0.551 126.488  0.00  0.00    +0.011 C 
ATOM     19  C   LIG A   1      -5.412  -2.450 125.056  0.00  0.00    +0.007 C 
ATOM     20  C   LIG A   1      -5.694  -2.243 123.588  0.00  0.00    +0.001 C 
ATOM     21  C   LIG A   1      -6.762  -1.544 122.784  0.00  0.00    +0.011 C 
ENDROOT
TORSDOF 0
ENDMDL
MODEL 5
REMARK VINA RESULT:      -7.5      1.956      5.074
REMARK  Name = NuBBE_2288
REMARK  3 active torsions:
REMARK  status: ('A' for Active; 'I' for Inactive)
REMARK    1  A    between atoms: C_1  and  C_2
REMARK    2  A    between atoms: C_18  and  C_19
REMARK    3  A    between atoms: C_18  and  C_20
REMARK                            x       y       z     vdW  Elec       q    Type
REMARK                         _______ _______ _______ _____ _____    ______ ____
ROOT
ATOM      1  C   LIG A   1      -9.783   1.151 124.971  0.00  0.00    +0.016 C 
ATOM      2  C   LIG A   1      -8.400   1.063 125.685  0.00  0.00    -0.007 C 
ATOM      3  C   LIG A   1      -7.980  -0.423 125.617  0.00  0.00    -0.054 C 
ATOM      4  C   LIG A   1      -8.110  -1.308 126.630  0.00  0.00    +0.047 C 
ATOM      5  C   LIG A   1      -6.965  -2.290 126.833  0.00  0.00    +0.163 C 
ATOM      6  O   LIG A   1      -7.027  -3.101 127.691  0.00  0.00    -0.292 OA
ATOM      7  C   LIG A   1      -5.726  -2.122 125.889  0.00  0.00    +0.086 C 
ATOM      8  C   LIG A   1      -5.722  -0.765 125.210  0.00  0.00    +0.027 C 
ATOM      9  C   LIG A   1      -7.047  -0.798 124.459  0.00  0.00    -0.003 C 
ATOM     10  C   LIG A   1      -7.116  -2.278 123.938  0.00  0.00    +0.042 C 
ATOM     11  C   LIG A   1      -5.936  -2.905 124.640  0.00  0.00    -0.065 C 
ATOM     12  C   LIG A   1      -5.026  -3.728 124.109  0.00  0.00    +0.008 C 
ATOM     13  C   LIG A   1      -7.164   0.141 123.271  0.00  0.00    +0.012 C 
ATOM     14  C   LIG A   1      -6.936   1.602 123.604  0.00  0.00    +0.006 C 
ATOM     15  C   LIG A   1      -7.255   2.027 125.047  0.00  0.00    +0.005 C 
ATOM     16  C   LIG A   1      -5.927   2.609 125.891  0.00  0.00    -0.031 C 
ATOM     17  C   LIG A   1      -5.241   3.719 125.026  0.00  0.00    +0.011 C 
ATOM     18  C   LIG A   1      -4.685   1.815 126.430  0.00  0.00    +0.011 C 
ATOM     19  C   LIG A   1      -6.461   3.212 127.179  0.00  0.00    +0.007 C 
ATOM     20  C   LIG A   1      -7.743   2.570 127.649  0.00  0.00    +0.001 C 
ATOM     21  C   LIG A   1      -8.719   1.571 127.081  0.00  0.00    +0.011 C 
ENDROOT
TORSDOF 0
ENDMDL
MODEL 6
REMARK VINA RESULT:      -7.4      6.937      8.534
REMARK  Name = NuBBE_2288
REMARK  3 active torsions:
REMARK  status: ('A' for Active; 'I' for Inactive)
REMARK    1  A    between atoms: C_1  and  C_2
REMARK    2  A    between atoms: C_18  and  C_19
REMARK    3  A    between atoms: C_18  and  C_20
REMARK                            x       y       z     vdW  Elec       q    Type
REMARK                         _______ _______ _______ _____ _____    ______ ____
ROOT
ATOM      1  C   LIG A   1      -7.468   5.664 133.646  0.00  0.00    +0.016 C 
ATOM      2  C   LIG A   1      -8.380   4.856 132.673  0.00  0.00    -0.007 C 
ATOM      3  C   LIG A   1      -9.265   5.900 131.956  0.00  0.00    -0.054 C 
ATOM      4  C   LIG A   1     -10.546   6.181 132.284  0.00  0.00    +0.047 C 
ATOM      5  C   LIG A   1     -11.513   6.415 131.132  0.00  0.00    +0.163 C 
ATOM      6  O   LIG A   1     -12.643   6.682 131.354  0.00  0.00    -0.292 OA
ATOM      7  C   LIG A   1     -10.934   6.233 129.687  0.00  0.00    +0.086 C 
ATOM      8  C   LIG A   1      -9.622   5.472 129.704  0.00  0.00    +0.027 C 
ATOM      9  C   LIG A   1      -8.763   6.369 130.585  0.00  0.00    -0.003 C 
ATOM     10  C   LIG A   1      -9.180   7.812 130.126  0.00  0.00    +0.042 C 
ATOM     11  C   LIG A   1     -10.347   7.517 129.216  0.00  0.00    -0.065 C 
ATOM     12  C   LIG A   1     -10.592   8.059 128.018  0.00  0.00    +0.008 C 
ATOM     13  C   LIG A   1      -7.259   6.223 130.420  0.00  0.00    +0.012 C 
ATOM     14  C   LIG A   1      -6.736   4.821 130.657  0.00  0.00    +0.006 C 
ATOM     15  C   LIG A   1      -7.569   3.938 131.603  0.00  0.00    +0.005 C 
ATOM     16  C   LIG A   1      -8.190   2.561 130.872  0.00  0.00    -0.031 C 
ATOM     17  C   LIG A   1      -7.017   1.814 130.153  0.00  0.00    +0.011 C 
ATOM     18  C   LIG A   1      -9.336   2.450 129.807  0.00  0.00    +0.011 C 
ATOM     19  C   LIG A   1      -8.751   1.693 131.986  0.00  0.00    +0.007 C 
ATOM     20  C   LIG A   1      -9.215   2.488 133.181  0.00  0.00    +0.001 C 
ATOM     21  C   LIG A   1      -9.127   3.930 133.617  0.00  0.00    +0.011 C 
ENDROOT
TORSDOF 0
ENDMDL
MODEL 7
REMARK VINA RESULT:      -7.3      1.985      4.996
REMARK  Name = NuBBE_2288
REMARK  3 active torsions:
REMARK  status: ('A' for Active; 'I' for Inactive)
REMARK    1  A    between atoms: C_1  and  C_2
REMARK    2  A    between atoms: C_18  and  C_19
REMARK    3  A    between atoms: C_18  and  C_20
REMARK                            x       y       z     vdW  Elec       q    Type
REMARK                         _______ _______ _______ _____ _____    ______ ____
ROOT
ATOM      1  C   LIG A   1      -7.081   0.207 128.431  0.00  0.00    +0.016 C 
ATOM      2  C   LIG A   1      -6.762   0.396 126.916  0.00  0.00    -0.007 C 
ATOM      3  C   LIG A   1      -7.082  -0.957 126.243  0.00  0.00    -0.054 C 
ATOM      4  C   LIG A   1      -6.162  -1.889 125.908  0.00  0.00    +0.047 C 
ATOM      5  C   LIG A   1      -6.360  -2.603 124.579  0.00  0.00    +0.163 C 
ATOM      6  O   LIG A   1      -5.600  -3.440 124.239  0.00  0.00    -0.292 OA
ATOM      7  C   LIG A   1      -7.573  -2.129 123.707  0.00  0.00    +0.086 C 
ATOM      8  C   LIG A   1      -8.094  -0.779 124.162  0.00  0.00    +0.027 C 
ATOM      9  C   LIG A   1      -8.474  -1.072 125.608  0.00  0.00    -0.003 C 
ATOM     10  C   LIG A   1      -9.102  -2.509 125.519  0.00  0.00    +0.042 C 
ATOM     11  C   LIG A   1      -8.795  -2.888 124.091  0.00  0.00    -0.065 C 
ATOM     12  C   LIG A   1      -9.622  -3.470 123.216  0.00  0.00    +0.008 C 
ATOM     13  C   LIG A   1      -9.493  -0.135 126.233  0.00  0.00    +0.012 C 
ATOM     14  C   LIG A   1      -9.090   1.326 126.220  0.00  0.00    +0.006 C 
ATOM     15  C   LIG A   1      -7.579   1.613 126.209  0.00  0.00    +0.005 C 
ATOM     16  C   LIG A   1      -7.057   2.438 124.844  0.00  0.00    -0.031 C 
ATOM     17  C   LIG A   1      -7.958   3.705 124.661  0.00  0.00    +0.011 C 
ATOM     18  C   LIG A   1      -6.940   1.916 123.370  0.00  0.00    +0.011 C 
ATOM     19  C   LIG A   1      -5.622   2.858 125.114  0.00  0.00    +0.007 C 
ATOM     20  C   LIG A   1      -4.899   1.932 126.061  0.00  0.00    +0.001 C 
ATOM     21  C   LIG A   1      -5.289   0.766 126.935  0.00  0.00    +0.011 C 
ENDROOT
TORSDOF 0
ENDMDL
MODEL 8
REMARK VINA RESULT:      -7.3      2.075      4.943
REMARK  Name = NuBBE_2288
REMARK  3 active torsions:
REMARK  status: ('A' for Active; 'I' for Inactive)
REMARK    1  A    between atoms: C_1  and  C_2
REMARK    2  A    between atoms: C_18  and  C_19
REMARK    3  A    between atoms: C_18  and  C_20
REMARK                            x       y       z     vdW  Elec       q    Type
REMARK                         _______ _______ _______ _____ _____    ______ ____
ROOT
ATOM      1  C   LIG A   1      -5.042  -1.926 127.742  0.00  0.00    +0.016 C 
ATOM      2  C   LIG A   1      -5.854  -0.945 126.843  0.00  0.00    -0.007 C 
ATOM      3  C   LIG A   1      -6.362  -1.785 125.650  0.00  0.00    -0.054 C 
ATOM      4  C   LIG A   1      -5.795  -1.806 124.424  0.00  0.00    +0.047 C 
ATOM      5  C   LIG A   1      -6.740  -1.832 123.231  0.00  0.00    +0.163 C 
ATOM      6  O   LIG A   1      -6.306  -1.869 122.133  0.00  0.00    -0.292 OA
ATOM      7  C   LIG A   1      -8.272  -1.760 123.554  0.00  0.00    +0.086 C 
ATOM      8  C   LIG A   1      -8.522  -1.279 124.970  0.00  0.00    +0.027 C 
ATOM      9  C   LIG A   1      -7.788  -2.336 125.784  0.00  0.00    -0.003 C 
ATOM     10  C   LIG A   1      -8.116  -3.663 125.010  0.00  0.00    +0.042 C 
ATOM     11  C   LIG A   1      -8.804  -3.133 123.775  0.00  0.00    -0.065 C 
ATOM     12  C   LIG A   1      -9.918  -3.607 123.208  0.00  0.00    +0.008 C 
ATOM     13  C   LIG A   1      -8.232  -2.494 127.228  0.00  0.00    +0.012 C 
ATOM     14  C   LIG A   1      -8.139  -1.227 128.054  0.00  0.00    +0.006 C 
ATOM     15  C   LIG A   1      -7.084  -0.201 127.605  0.00  0.00    +0.005 C 
ATOM     16  C   LIG A   1      -7.730   1.278 127.145  0.00  0.00    -0.031 C 
ATOM     17  C   LIG A   1      -8.676   1.778 128.287  0.00  0.00    +0.011 C 
ATOM     18  C   LIG A   1      -8.568   1.623 125.865  0.00  0.00    +0.011 C 
ATOM     19  C   LIG A   1      -6.559   2.232 126.986  0.00  0.00    +0.007 C 
ATOM     20  C   LIG A   1      -5.274   1.539 126.605  0.00  0.00    +0.001 C 
ATOM     21  C   LIG A   1      -4.817   0.106 126.485  0.00  0.00    +0.011 C 
ENDROOT
TORSDOF 0
ENDMDL
MODEL 9
REMARK VINA RESULT:      -7.2      3.258      4.929
REMARK  Name = NuBBE_2288
REMARK  3 active torsions:
REMARK  status: ('A' for Active; 'I' for Inactive)
REMARK    1  A    between atoms: C_1  and  C_2
REMARK    2  A    between atoms: C_18  and  C_19
REMARK    3  A    between atoms: C_18  and  C_20
REMARK                            x       y       z     vdW  Elec       q    Type
REMARK                         _______ _______ _______ _____ _____    ______ ____
ROOT
ATOM      1  C   LIG A   1      -6.187  -3.937 130.143  0.00  0.00    +0.016 C 
ATOM      2  C   LIG A   1      -7.092  -2.927 129.373  0.00  0.00    -0.007 C 
ATOM      3  C   LIG A   1      -7.221  -1.689 130.289  0.00  0.00    -0.054 C 
ATOM      4  C   LIG A   1      -8.284  -1.423 131.080  0.00  0.00    +0.047 C 
ATOM      5  C   LIG A   1      -8.735   0.029 131.157  0.00  0.00    +0.163 C 
ATOM      6  O   LIG A   1      -9.647   0.329 131.846  0.00  0.00    -0.292 OA
ATOM      7  C   LIG A   1      -7.961   1.048 130.253  0.00  0.00    +0.086 C 
ATOM      8  C   LIG A   1      -7.166   0.342 129.170  0.00  0.00    +0.027 C 
ATOM      9  C   LIG A   1      -6.245  -0.543 129.999  0.00  0.00    -0.003 C 
ATOM     10  C   LIG A   1      -5.858   0.388 131.204  0.00  0.00    +0.042 C 
ATOM     11  C   LIG A   1      -6.773   1.568 130.985  0.00  0.00    -0.065 C 
ATOM     12  C   LIG A   1      -6.453   2.863 131.071  0.00  0.00    +0.008 C 
ATOM     13  C   LIG A   1      -4.970  -1.005 129.314  0.00  0.00    +0.012 C 
ATOM     14  C   LIG A   1      -5.194  -1.768 128.024  0.00  0.00    +0.006 C 
ATOM     15  C   LIG A   1      -6.533  -2.515 127.902  0.00  0.00    +0.005 C 
ATOM     16  C   LIG A   1      -7.497  -1.975 126.639  0.00  0.00    -0.031 C 
ATOM     17  C   LIG A   1      -6.636  -1.970 125.331  0.00  0.00    +0.011 C 
ATOM     18  C   LIG A   1      -8.274  -0.619 126.511  0.00  0.00    +0.011 C 
ATOM     19  C   LIG A   1      -8.636  -2.971 126.505  0.00  0.00    +0.007 C 
ATOM     20  C   LIG A   1      -8.980  -3.658 127.804  0.00  0.00    +0.001 C 
ATOM     21  C   LIG A   1      -8.376  -3.716 129.185  0.00  0.00    +0.011 C 
ENDROOT
TORSDOF 0
ENDMDL
