MODEL 1
REMARK VINA RESULT:      -5.4      0.000      0.000
REMARK  Name = NuBBE_1254
REMARK  8 active torsions:
REMARK  status: ('A' for Active; 'I' for Inactive)
REMARK    1  A    between atoms: C_2  and  C_3
REMARK    2  A    between atoms: C_4  and  C_5
REMARK    3  A    between atoms: C_6  and  O_7
REMARK    4  A    between atoms: O_7  and  C_8
REMARK    5  A    between atoms: C_10  and  O_11
REMARK    6  A    between atoms: O_11  and  C_12
REMARK    7  A    between atoms: C_14  and  O_15
REMARK    8  A    between atoms: O_15  and  C_16
REMARK                            x       y       z     vdW  Elec       q    Type
REMARK                         _______ _______ _______ _____ _____    ______ ____
ROOT
ATOM      1  C   LIG A   1      -6.833  -1.723 124.177  0.00  0.00    +0.059 A 
ATOM      2  C   LIG A   1      -6.364  -0.537 124.783  0.00  0.00    +0.134 A 
ATOM      3  C   LIG A   1      -7.062   0.662 124.601  0.00  0.00    +0.092 A 
ATOM      4  C   LIG A   1      -8.248   0.693 123.872  0.00  0.00    +0.127 A 
ATOM      5  C   LIG A   1      -8.737  -0.485 123.305  0.00  0.00    +0.092 A 
ATOM      6  C   LIG A   1      -8.042  -1.694 123.445  0.00  0.00    +0.134 A 
ENDROOT
BRANCH   1   8
ATOM      7  C   LIG A   1      -5.108  -3.389 123.525  0.00  0.00    +0.043 C 
ATOM      8  C   LIG A   1      -6.079  -2.985 124.355  0.00  0.00    +0.018 C 
BRANCH   7  10
ATOM      9  O   LIG A   1      -4.076  -5.409 122.864  0.00  0.00    -0.296 OA
ATOM     10  C   LIG A   1      -4.384  -4.655 123.776  0.00  0.00    +0.251 C 
ENDBRANCH   7  10
ENDBRANCH   1   8
BRANCH   2  11
ATOM     11  O   LIG A   1      -5.205  -0.608 125.521  0.00  0.00    -0.494 OA
ATOM     12  C   LIG A   1      -5.337  -0.341 126.916  0.00  0.00    +0.277 C 
ENDBRANCH   2  11
BRANCH   4  13
ATOM     13  O   LIG A   1      -9.013   1.810 123.655  0.00  0.00    -0.495 OA
ATOM     14  C   LIG A   1      -8.381   3.065 123.898  0.00  0.00    +0.277 C 
ENDBRANCH   4  13
BRANCH   6  15
ATOM     15  O   LIG A   1      -8.480  -2.890 122.927  0.00  0.00    -0.494 OA
ATOM     16  C   LIG A   1      -9.673  -3.448 123.472  0.00  0.00    +0.277 C 
ENDBRANCH   6  15
TORSDOF 5
ENDMDL
MODEL 2
REMARK VINA RESULT:      -5.3      0.433      3.091
REMARK  Name = NuBBE_1254
REMARK  8 active torsions:
REMARK  status: ('A' for Active; 'I' for Inactive)
REMARK    1  A    between atoms: C_2  and  C_3
REMARK    2  A    between atoms: C_4  and  C_5
REMARK    3  A    between atoms: C_6  and  O_7
REMARK    4  A    between atoms: O_7  and  C_8
REMARK    5  A    between atoms: C_10  and  O_11
REMARK    6  A    between atoms: O_11  and  C_12
REMARK    7  A    between atoms: C_14  and  O_15
REMARK    8  A    between atoms: O_15  and  C_16
REMARK                            x       y       z     vdW  Elec       q    Type
REMARK                         _______ _______ _______ _____ _____    ______ ____
ROOT
ATOM      1  C   LIG A   1      -6.904  -1.749 124.197  0.00  0.00    +0.059 A 
ATOM      2  C   LIG A   1      -8.068  -1.673 123.402  0.00  0.00    +0.134 A 
ATOM      3  C   LIG A   1      -8.750  -0.457 123.279  0.00  0.00    +0.092 A 
ATOM      4  C   LIG A   1      -8.265   0.697 123.887  0.00  0.00    +0.127 A 
ATOM      5  C   LIG A   1      -7.092   0.636 124.641  0.00  0.00    +0.092 A 
ATOM      6  C   LIG A   1      -6.405  -0.576 124.807  0.00  0.00    +0.134 A 
ENDROOT
BRANCH   1   8
ATOM      7  C   LIG A   1      -5.168  -3.413 123.569  0.00  0.00    +0.043 C 
ATOM      8  C   LIG A   1      -6.198  -3.042 124.342  0.00  0.00    +0.018 C 
BRANCH   7  10
ATOM      9  O   LIG A   1      -4.137  -5.414 122.849  0.00  0.00    -0.296 OA
ATOM     10  C   LIG A   1      -4.497  -4.714 123.786  0.00  0.00    +0.251 C 
ENDBRANCH   7  10
ENDBRANCH   1   8
BRANCH   2  11
ATOM     11  O   LIG A   1      -8.505  -2.826 122.791  0.00  0.00    -0.494 OA
ATOM     12  C   LIG A   1      -9.763  -3.329 123.237  0.00  0.00    +0.277 C 
ENDBRANCH   2  11
BRANCH   4  13
ATOM     13  O   LIG A   1      -8.848   1.936 123.809  0.00  0.00    -0.495 OA
ATOM     14  C   LIG A   1      -9.011   2.476 122.500  0.00  0.00    +0.277 C 
ENDBRANCH   4  13
BRANCH   6  15
ATOM     15  O   LIG A   1      -5.237  -0.698 125.521  0.00  0.00    -0.494 OA
ATOM     16  C   LIG A   1      -5.315  -0.584 126.940  0.00  0.00    +0.277 C 
ENDBRANCH   6  15
TORSDOF 5
ENDMDL
MODEL 3
REMARK VINA RESULT:      -5.0     10.186     11.919
REMARK  Name = NuBBE_1254
REMARK  8 active torsions:
REMARK  status: ('A' for Active; 'I' for Inactive)
REMARK    1  A    between atoms: C_2  and  C_3
REMARK    2  A    between atoms: C_4  and  C_5
REMARK    3  A    between atoms: C_6  and  O_7
REMARK    4  A    between atoms: O_7  and  C_8
REMARK    5  A    between atoms: C_10  and  O_11
REMARK    6  A    between atoms: O_11  and  C_12
REMARK    7  A    between atoms: C_14  and  O_15
REMARK    8  A    between atoms: O_15  and  C_16
REMARK                            x       y       z     vdW  Elec       q    Type
REMARK                         _______ _______ _______ _____ _____    ______ ____
ROOT
ATOM      1  C   LIG A   1      -9.523   6.764 130.758  0.00  0.00    +0.059 A 
ATOM      2  C   LIG A   1     -10.518   6.146 131.545  0.00  0.00    +0.134 A 
ATOM      3  C   LIG A   1     -10.162   5.475 132.720  0.00  0.00    +0.092 A 
ATOM      4  C   LIG A   1      -8.840   5.456 133.157  0.00  0.00    +0.127 A 
ATOM      5  C   LIG A   1      -7.858   6.100 132.404  0.00  0.00    +0.092 A 
ATOM      6  C   LIG A   1      -8.181   6.753 131.206  0.00  0.00    +0.134 A 
ENDROOT
BRANCH   1   8
ATOM      7  C   LIG A   1     -10.261   6.810 128.386  0.00  0.00    +0.043 C 
ATOM      8  C   LIG A   1      -9.901   7.454 129.504  0.00  0.00    +0.018 C 
BRANCH   7  10
ATOM      9  O   LIG A   1     -11.070   7.004 126.174  0.00  0.00    -0.296 OA
ATOM     10  C   LIG A   1     -10.645   7.567 127.174  0.00  0.00    +0.251 C 
ENDBRANCH   7  10
ENDBRANCH   1   8
BRANCH   2  11
ATOM     11  O   LIG A   1     -11.819   6.209 131.099  0.00  0.00    -0.494 OA
ATOM     12  C   LIG A   1     -12.603   7.283 131.617  0.00  0.00    +0.277 C 
ENDBRANCH   2  11
BRANCH   4  13
ATOM     13  O   LIG A   1      -8.396   4.845 134.302  0.00  0.00    -0.495 OA
ATOM     14  C   LIG A   1      -7.682   5.668 135.220  0.00  0.00    +0.277 C 
ENDBRANCH   4  13
BRANCH   6  15
ATOM     15  O   LIG A   1      -7.264   7.421 130.429  0.00  0.00    -0.494 OA
ATOM     16  C   LIG A   1      -5.883   7.230 130.728  0.00  0.00    +0.277 C 
ENDBRANCH   6  15
TORSDOF 5
ENDMDL
MODEL 4
REMARK VINA RESULT:      -4.8      3.964      5.720
REMARK  Name = NuBBE_1254
REMARK  8 active torsions:
REMARK  status: ('A' for Active; 'I' for Inactive)
REMARK    1  A    between atoms: C_2  and  C_3
REMARK    2  A    between atoms: C_4  and  C_5
REMARK    3  A    between atoms: C_6  and  O_7
REMARK    4  A    between atoms: O_7  and  C_8
REMARK    5  A    between atoms: C_10  and  O_11
REMARK    6  A    between atoms: O_11  and  C_12
REMARK    7  A    between atoms: C_14  and  O_15
REMARK    8  A    between atoms: O_15  and  C_16
REMARK                            x       y       z     vdW  Elec       q    Type
REMARK                         _______ _______ _______ _____ _____    ______ ____
ROOT
ATOM      1  C   LIG A   1      -7.046   3.234 122.660  0.00  0.00    +0.059 A 
ATOM      2  C   LIG A   1      -6.142   3.845 121.764  0.00  0.00    +0.134 A 
ATOM      3  C   LIG A   1      -6.570   4.210 120.482  0.00  0.00    +0.092 A 
ATOM      4  C   LIG A   1      -7.895   4.029 120.094  0.00  0.00    +0.127 A 
ATOM      5  C   LIG A   1      -8.802   3.463 120.991  0.00  0.00    +0.092 A 
ATOM      6  C   LIG A   1      -8.394   3.059 122.270  0.00  0.00    +0.134 A 
ENDROOT
BRANCH   1   8
ATOM      7  C   LIG A   1      -6.490   1.554 124.404  0.00  0.00    +0.043 C 
ATOM      8  C   LIG A   1      -6.584   2.830 124.007  0.00  0.00    +0.018 C 
BRANCH   7  10
ATOM      9  O   LIG A   1      -4.907   1.600 126.158  0.00  0.00    -0.296 OA
ATOM     10  C   LIG A   1      -6.001   1.224 125.761  0.00  0.00    +0.251 C 
ENDBRANCH   7  10
ENDBRANCH   1   8
BRANCH   2  11
ATOM     11  O   LIG A   1      -4.847   4.036 122.189  0.00  0.00    -0.494 OA
ATOM     12  C   LIG A   1      -4.175   5.173 121.649  0.00  0.00    +0.277 C 
ENDBRANCH   2  11
BRANCH   4  13
ATOM     13  O   LIG A   1      -8.414   4.372 118.872  0.00  0.00    -0.495 OA
ATOM     14  C   LIG A   1      -9.834   4.451 118.789  0.00  0.00    +0.277 C 
ENDBRANCH   4  13
BRANCH   6  15
ATOM     15  O   LIG A   1      -9.242   2.512 123.204  0.00  0.00    -0.494 OA
ATOM     16  C   LIG A   1      -9.875   1.278 122.878  0.00  0.00    +0.277 C 
ENDBRANCH   6  15
TORSDOF 5
ENDMDL
MODEL 5
REMARK VINA RESULT:      -4.7      4.455      6.053
REMARK  Name = NuBBE_1254
REMARK  8 active torsions:
REMARK  status: ('A' for Active; 'I' for Inactive)
REMARK    1  A    between atoms: C_2  and  C_3
REMARK    2  A    between atoms: C_4  and  C_5
REMARK    3  A    between atoms: C_6  and  O_7
REMARK    4  A    between atoms: O_7  and  C_8
REMARK    5  A    between atoms: C_10  and  O_11
REMARK    6  A    between atoms: O_11  and  C_12
REMARK    7  A    between atoms: C_14  and  O_15
REMARK    8  A    between atoms: O_15  and  C_16
REMARK                            x       y       z     vdW  Elec       q    Type
REMARK                         _______ _______ _______ _____ _____    ______ ____
ROOT
ATOM      1  C   LIG A   1      -7.447   2.675 124.478  0.00  0.00    +0.059 A 
ATOM      2  C   LIG A   1      -6.463   3.428 123.801  0.00  0.00    +0.134 A 
ATOM      3  C   LIG A   1      -5.754   4.422 124.483  0.00  0.00    +0.092 A 
ATOM      4  C   LIG A   1      -5.965   4.645 125.841  0.00  0.00    +0.127 A 
ATOM      5  C   LIG A   1      -6.908   3.876 126.524  0.00  0.00    +0.092 A 
ATOM      6  C   LIG A   1      -7.656   2.894 125.859  0.00  0.00    +0.134 A 
ENDROOT
BRANCH   1   8
ATOM      7  C   LIG A   1      -9.368   1.879 123.118  0.00  0.00    +0.043 C 
ATOM      8  C   LIG A   1      -8.210   1.638 123.747  0.00  0.00    +0.018 C 
BRANCH   7  10
ATOM      9  O   LIG A   1     -11.194   0.437 122.703  0.00  0.00    -0.296 OA
ATOM     10  C   LIG A   1     -10.067   0.796 122.391  0.00  0.00    +0.251 C 
ENDBRANCH   7  10
ENDBRANCH   1   8
BRANCH   2  11
ATOM     11  O   LIG A   1      -6.258   3.162 122.466  0.00  0.00    -0.494 OA
ATOM     12  C   LIG A   1      -5.496   4.132 121.748  0.00  0.00    +0.277 C 
ENDBRANCH   2  11
BRANCH   4  13
ATOM     13  O   LIG A   1      -5.308   5.579 126.600  0.00  0.00    -0.495 OA
ATOM     14  C   LIG A   1      -4.117   5.141 127.249  0.00  0.00    +0.277 C 
ENDBRANCH   4  13
BRANCH   6  15
ATOM     15  O   LIG A   1      -8.585   2.092 126.479  0.00  0.00    -0.494 OA
ATOM     16  C   LIG A   1      -8.425   1.855 127.875  0.00  0.00    +0.277 C 
ENDBRANCH   6  15
TORSDOF 5
ENDMDL
MODEL 6
REMARK VINA RESULT:      -4.7      7.855     11.032
REMARK  Name = NuBBE_1254
REMARK  8 active torsions:
REMARK  status: ('A' for Active; 'I' for Inactive)
REMARK    1  A    between atoms: C_2  and  C_3
REMARK    2  A    between atoms: C_4  and  C_5
REMARK    3  A    between atoms: C_6  and  O_7
REMARK    4  A    between atoms: O_7  and  C_8
REMARK    5  A    between atoms: C_10  and  O_11
REMARK    6  A    between atoms: O_11  and  C_12
REMARK    7  A    between atoms: C_14  and  O_15
REMARK    8  A    between atoms: O_15  and  C_16
REMARK                            x       y       z     vdW  Elec       q    Type
REMARK                         _______ _______ _______ _____ _____    ______ ____
ROOT
ATOM      1  C   LIG A   1     -10.197   6.388 129.535  0.00  0.00    +0.059 A 
ATOM      2  C   LIG A   1     -10.846   6.798 130.720  0.00  0.00    +0.134 A 
ATOM      3  C   LIG A   1     -10.612   6.112 131.917  0.00  0.00    +0.092 A 
ATOM      4  C   LIG A   1      -9.702   5.059 131.969  0.00  0.00    +0.127 A 
ATOM      5  C   LIG A   1      -9.027   4.676 130.809  0.00  0.00    +0.092 A 
ATOM      6  C   LIG A   1      -9.266   5.325 129.589  0.00  0.00    +0.134 A 
ENDROOT
BRANCH   1   8
ATOM      7  C   LIG A   1     -11.524   6.853 127.486  0.00  0.00    +0.043 C 
ATOM      8  C   LIG A   1     -10.463   7.103 128.266  0.00  0.00    +0.018 C 
BRANCH   7  10
ATOM      9  O   LIG A   1     -10.797   8.004 125.554  0.00  0.00    -0.296 OA
ATOM     10  C   LIG A   1     -11.736   7.622 126.240  0.00  0.00    +0.251 C 
ENDBRANCH   7  10
ENDBRANCH   1   8
BRANCH   2  11
ATOM     11  O   LIG A   1     -11.717   7.861 130.639  0.00  0.00    -0.494 OA
ATOM     12  C   LIG A   1     -13.002   7.658 131.225  0.00  0.00    +0.277 C 
ENDBRANCH   2  11
BRANCH   4  13
ATOM     13  O   LIG A   1      -9.390   4.340 133.094  0.00  0.00    -0.495 OA
ATOM     14  C   LIG A   1      -9.175   2.943 132.911  0.00  0.00    +0.277 C 
ENDBRANCH   4  13
BRANCH   6  15
ATOM     15  O   LIG A   1      -8.621   5.007 128.417  0.00  0.00    -0.494 OA
ATOM     16  C   LIG A   1      -7.591   4.024 128.477  0.00  0.00    +0.277 C 
ENDBRANCH   6  15
TORSDOF 5
ENDMDL
MODEL 7
REMARK VINA RESULT:      -4.6      3.186      6.059
REMARK  Name = NuBBE_1254
REMARK  8 active torsions:
REMARK  status: ('A' for Active; 'I' for Inactive)
REMARK    1  A    between atoms: C_2  and  C_3
REMARK    2  A    between atoms: C_4  and  C_5
REMARK    3  A    between atoms: C_6  and  O_7
REMARK    4  A    between atoms: O_7  and  C_8
REMARK    5  A    between atoms: C_10  and  O_11
REMARK    6  A    between atoms: O_11  and  C_12
REMARK    7  A    between atoms: C_14  and  O_15
REMARK    8  A    between atoms: O_15  and  C_16
REMARK                            x       y       z     vdW  Elec       q    Type
REMARK                         _______ _______ _______ _____ _____    ______ ____
ROOT
ATOM      1  C   LIG A   1      -8.742  -0.792 126.149  0.00  0.00    +0.059 A 
ATOM      2  C   LIG A   1      -8.892  -2.195 126.192  0.00  0.00    +0.134 A 
ATOM      3  C   LIG A   1      -8.157  -2.947 127.116  0.00  0.00    +0.092 A 
ATOM      4  C   LIG A   1      -7.318  -2.324 128.036  0.00  0.00    +0.127 A 
ATOM      5  C   LIG A   1      -7.198  -0.933 128.024  0.00  0.00    +0.092 A 
ATOM      6  C   LIG A   1      -7.897  -0.158 127.089  0.00  0.00    +0.134 A 
ENDROOT
BRANCH   1   8
ATOM      7  C   LIG A   1      -9.068   0.240 123.913  0.00  0.00    +0.043 C 
ATOM      8  C   LIG A   1      -9.504  -0.003 125.156  0.00  0.00    +0.018 C 
BRANCH   7  10
ATOM      9  O   LIG A   1     -10.948   0.587 122.524  0.00  0.00    -0.296 OA
ATOM     10  C   LIG A   1      -9.894   1.023 122.966  0.00  0.00    +0.251 C 
ENDBRANCH   7  10
ENDBRANCH   1   8
BRANCH   2  11
ATOM     11  O   LIG A   1      -9.752  -2.777 125.289  0.00  0.00    -0.494 OA
ATOM     12  C   LIG A   1      -9.138  -3.465 124.200  0.00  0.00    +0.277 C 
ENDBRANCH   2  11
BRANCH   4  13
ATOM     13  O   LIG A   1      -6.575  -2.969 128.991  0.00  0.00    -0.495 OA
ATOM     14  C   LIG A   1      -7.271  -3.373 130.167  0.00  0.00    +0.277 C 
ENDBRANCH   4  13
BRANCH   6  15
ATOM     15  O   LIG A   1      -7.835   1.215 127.037  0.00  0.00    -0.494 OA
ATOM     16  C   LIG A   1      -8.402   1.942 128.125  0.00  0.00    +0.277 C 
ENDBRANCH   6  15
TORSDOF 5
ENDMDL
MODEL 8
REMARK VINA RESULT:      -4.6      3.008      5.555
REMARK  Name = NuBBE_1254
REMARK  8 active torsions:
REMARK  status: ('A' for Active; 'I' for Inactive)
REMARK    1  A    between atoms: C_2  and  C_3
REMARK    2  A    between atoms: C_4  and  C_5
REMARK    3  A    between atoms: C_6  and  O_7
REMARK    4  A    between atoms: O_7  and  C_8
REMARK    5  A    between atoms: C_10  and  O_11
REMARK    6  A    between atoms: O_11  and  C_12
REMARK    7  A    between atoms: C_14  and  O_15
REMARK    8  A    between atoms: O_15  and  C_16
REMARK                            x       y       z     vdW  Elec       q    Type
REMARK                         _______ _______ _______ _____ _____    ______ ____
ROOT
ATOM      1  C   LIG A   1      -8.413  -0.960 126.158  0.00  0.00    +0.059 A 
ATOM      2  C   LIG A   1      -7.616  -0.634 127.276  0.00  0.00    +0.134 A 
ATOM      3  C   LIG A   1      -7.448  -1.563 128.308  0.00  0.00    +0.092 A 
ATOM      4  C   LIG A   1      -8.014  -2.833 128.224  0.00  0.00    +0.127 A 
ATOM      5  C   LIG A   1      -8.770  -3.174 127.101  0.00  0.00    +0.092 A 
ATOM      6  C   LIG A   1      -8.981  -2.252 126.067  0.00  0.00    +0.134 A 
ENDROOT
BRANCH   1   8
ATOM      7  C   LIG A   1      -9.576   0.959 125.089  0.00  0.00    +0.043 C 
ATOM      8  C   LIG A   1      -8.606   0.034 125.078  0.00  0.00    +0.018 C 
BRANCH   7  10
ATOM      9  O   LIG A   1      -9.022   2.955 123.951  0.00  0.00    -0.296 OA
ATOM     10  C   LIG A   1      -9.696   1.934 123.983  0.00  0.00    +0.251 C 
ENDBRANCH   7  10
ENDBRANCH   1   8
BRANCH   2  11
ATOM     11  O   LIG A   1      -7.047   0.619 127.315  0.00  0.00    -0.494 OA
ATOM     12  C   LIG A   1      -7.499   1.476 128.362  0.00  0.00    +0.277 C 
ENDBRANCH   2  11
BRANCH   4  13
ATOM     13  O   LIG A   1      -7.891  -3.817 129.170  0.00  0.00    -0.495 OA
ATOM     14  C   LIG A   1      -6.697  -3.799 129.949  0.00  0.00    +0.277 C 
ENDBRANCH   4  13
BRANCH   6  15
ATOM     15  O   LIG A   1      -9.699  -2.533 124.929  0.00  0.00    -0.494 OA
ATOM     16  C   LIG A   1      -9.119  -3.432 123.987  0.00  0.00    +0.277 C 
ENDBRANCH   6  15
TORSDOF 5
ENDMDL
MODEL 9
REMARK VINA RESULT:      -4.6      3.838      5.657
REMARK  Name = NuBBE_1254
REMARK  8 active torsions:
REMARK  status: ('A' for Active; 'I' for Inactive)
REMARK    1  A    between atoms: C_2  and  C_3
REMARK    2  A    between atoms: C_4  and  C_5
REMARK    3  A    between atoms: C_6  and  O_7
REMARK    4  A    between atoms: O_7  and  C_8
REMARK    5  A    between atoms: C_10  and  O_11
REMARK    6  A    between atoms: O_11  and  C_12
REMARK    7  A    between atoms: C_14  and  O_15
REMARK    8  A    between atoms: O_15  and  C_16
REMARK                            x       y       z     vdW  Elec       q    Type
REMARK                         _______ _______ _______ _____ _____    ______ ____
ROOT
ATOM      1  C   LIG A   1      -6.912   2.142 124.011  0.00  0.00    +0.059 A 
ATOM      2  C   LIG A   1      -6.360   3.305 123.433  0.00  0.00    +0.134 A 
ATOM      3  C   LIG A   1      -5.430   4.066 124.150  0.00  0.00    +0.092 A 
ATOM      4  C   LIG A   1      -4.996   3.661 125.409  0.00  0.00    +0.127 A 
ATOM      5  C   LIG A   1      -5.509   2.489 125.968  0.00  0.00    +0.092 A 
ATOM      6  C   LIG A   1      -6.466   1.724 125.286  0.00  0.00    +0.134 A 
ENDROOT
BRANCH   1   8
ATOM      7  C   LIG A   1      -9.235   1.542 123.361  0.00  0.00    +0.043 C 
ATOM      8  C   LIG A   1      -7.913   1.351 123.258  0.00  0.00    +0.018 C 
BRANCH   7  10
ATOM      9  O   LIG A   1     -10.171  -0.496 122.619  0.00  0.00    -0.296 OA
ATOM     10  C   LIG A   1     -10.175   0.726 122.562  0.00  0.00    +0.251 C 
ENDBRANCH   7  10
ENDBRANCH   1   8
BRANCH   2  11
ATOM     11  O   LIG A   1      -6.789   3.662 122.175  0.00  0.00    -0.494 OA
ATOM     12  C   LIG A   1      -5.783   3.709 121.165  0.00  0.00    +0.277 C 
ENDBRANCH   2  11
BRANCH   4  13
ATOM     13  O   LIG A   1      -4.076   4.325 126.179  0.00  0.00    -0.495 OA
ATOM     14  C   LIG A   1      -2.895   3.602 126.517  0.00  0.00    +0.277 C 
ENDBRANCH   4  13
BRANCH   6  15
ATOM     15  O   LIG A   1      -6.995   0.553 125.774  0.00  0.00    -0.494 OA
ATOM     16  C   LIG A   1      -7.802   0.631 126.946  0.00  0.00    +0.277 C 
ENDBRANCH   6  15
TORSDOF 5
ENDMDL
