MODEL 1
REMARK VINA RESULT:     -10.3      0.000      0.000
REMARK  Name = NuBBE_266
REMARK  10 active torsions:
REMARK  status: ('A' for Active; 'I' for Inactive)
REMARK    1  A    between atoms: C_5  and  C_6
REMARK    2  A    between atoms: C_6  and  C_7
REMARK    3  A    between atoms: C_16  and  O_23
REMARK    4  A    between atoms: C_20  and  O_21
REMARK    5  A    between atoms: C_20  and  C_22
REMARK    6  A    between atoms: O_23  and  C_24
REMARK    7  A    between atoms: C_24  and  C_25
REMARK    8  A    between atoms: C_32  and  C_34
REMARK    9  A    between atoms: C_37  and  O_39
REMARK   10  A    between atoms: C_41  and  C_43
REMARK                            x       y       z     vdW  Elec       q    Type
REMARK                         _______ _______ _______ _____ _____    ______ ____
ROOT
ATOM      1  H   LIG A   1      -7.523   5.382 124.299  0.00  0.00    +0.149 HD
ATOM      2  N   LIG A   1      -7.152   4.551 124.748  0.00  0.00    -0.311 N 
ATOM      3  C   LIG A   1      -7.734   4.030 125.883  0.00  0.00    +0.224 C 
ATOM      4  O   LIG A   1      -8.647   4.546 126.499  0.00  0.00    -0.275 OA
ATOM      5  C   LIG A   1      -6.151   3.680 124.190  0.00  0.00    +0.082 C 
ATOM      6  C   LIG A   1      -5.669   2.911 125.459  0.00  0.00    +0.036 C 
ATOM      7  C   LIG A   1      -7.061   2.697 126.210  0.00  0.00    +0.101 C 
ATOM      8  C   LIG A   1      -7.954   1.551 125.510  0.00  0.00    +0.215 C 
ATOM      9  C   LIG A   1      -8.122   0.200 126.211  0.00  0.00    +0.017 C 
ATOM     10  C   LIG A   1      -7.446  -0.919 125.892  0.00  0.00    +0.014 C 
ATOM     11  C   LIG A   1      -7.512  -2.323 126.453  0.00  0.00    +0.139 C 
ATOM     12  C   LIG A   1      -8.314  -3.170 125.440  0.00  0.00    +0.054 C 
ATOM     13  C   LIG A   1      -6.893   2.551 127.748  0.00  0.00    +0.063 C 
ATOM     14  C   LIG A   1      -6.286   1.205 128.105  0.00  0.00    -0.024 C 
ATOM     15  C   LIG A   1      -6.739   0.438 129.103  0.00  0.00    -0.030 C 
ATOM     16  C   LIG A   1      -6.436  -1.030 129.179  0.00  0.00    +0.037 C 
ATOM     17  C   LIG A   1      -7.777  -1.781 129.115  0.00  0.00    +0.059 C 
ATOM     18  C   LIG A   1      -7.928  -2.593 130.415  0.00  0.00    +0.016 C 
ATOM     19  C   LIG A   1      -8.011  -2.687 127.897  0.00  0.00    +0.171 C 
ATOM     20  O   LIG A   1      -8.598  -3.767 128.070  0.00  0.00    -0.294 OA
ATOM     21  C   LIG A   1      -6.014   3.652 128.371  0.00  0.00    +0.148 C 
ATOM     22  C   LIG A   1      -4.562   3.709 126.262  0.00  0.00    +0.020 C 
ATOM     23  C   LIG A   1      -3.165   3.334 125.723  0.00  0.00    +0.013 C 
ATOM     24  C   LIG A   1      -4.628   3.574 127.783  0.00  0.00    -0.045 C 
ATOM     25  C   LIG A   1      -3.577   3.387 128.606  0.00  0.00    +0.010 C 
ENDROOT
BRANCH  11  26
ATOM     26  O   LIG A   1      -6.155  -2.801 126.412  0.00  0.00    -0.377 OA
ATOM     27  H   LIG A   1      -5.888  -2.963 127.336  0.00  0.00    +0.211 HD
ENDBRANCH  11  26
BRANCH  21  28
ATOM     28  O   LIG A   1      -6.494   4.970 128.164  0.00  0.00    -0.387 OA
ATOM     29  H   LIG A   1      -7.155   5.177 128.853  0.00  0.00    +0.210 HD
ENDBRANCH  21  28
BRANCH   5  30
ATOM     30  C   LIG A   1      -5.143   4.409 123.289  0.00  0.00    +0.057 C 
BRANCH  30  31
ATOM     31  C   LIG A   1      -5.535   4.529 121.823  0.00  0.00    -0.046 A 
ATOM     32  C   LIG A   1      -6.663   3.831 121.366  0.00  0.00    +0.003 A 
ATOM     33  C   LIG A   1      -7.064   3.909 120.029  0.00  0.00    +0.000 A 
ATOM     34  C   LIG A   1      -6.353   4.702 119.132  0.00  0.00    +0.000 A 
ATOM     35  C   LIG A   1      -5.249   5.423 119.574  0.00  0.00    +0.000 A 
ATOM     36  C   LIG A   1      -4.849   5.345 120.910  0.00  0.00    +0.003 A 
ENDBRANCH  30  31
ENDBRANCH   5  30
BRANCH   8  37
ATOM     37  O   LIG A   1      -9.338   1.950 125.339  0.00  0.00    -0.456 OA
BRANCH  37  38
ATOM     38  C   LIG A   1      -9.974   1.549 124.204  0.00  0.00    +0.304 C 
ATOM     39  C   LIG A   1      -9.092   1.767 123.009  0.00  0.00    +0.136 C 
ATOM     40  O   LIG A   1     -11.117   1.122 124.138  0.00  0.00    -0.251 OA
ENDBRANCH  37  38
ENDBRANCH   8  37
TORSDOF 6
ENDMDL
MODEL 2
REMARK VINA RESULT:      -9.3      4.749      8.366
REMARK  Name = NuBBE_266
REMARK  10 active torsions:
REMARK  status: ('A' for Active; 'I' for Inactive)
REMARK    1  A    between atoms: C_5  and  C_6
REMARK    2  A    between atoms: C_6  and  C_7
REMARK    3  A    between atoms: C_16  and  O_23
REMARK    4  A    between atoms: C_20  and  O_21
REMARK    5  A    between atoms: C_20  and  C_22
REMARK    6  A    between atoms: O_23  and  C_24
REMARK    7  A    between atoms: C_24  and  C_25
REMARK    8  A    between atoms: C_32  and  C_34
REMARK    9  A    between atoms: C_37  and  O_39
REMARK   10  A    between atoms: C_41  and  C_43
REMARK                            x       y       z     vdW  Elec       q    Type
REMARK                         _______ _______ _______ _____ _____    ______ ____
ROOT
ATOM      1  H   LIG A   1     -10.292   2.348 129.636  0.00  0.00    +0.149 HD
ATOM      2  N   LIG A   1      -9.613   2.980 130.048  0.00  0.00    -0.311 N 
ATOM      3  C   LIG A   1      -8.367   2.536 130.437  0.00  0.00    +0.224 C 
ATOM      4  O   LIG A   1      -8.004   1.376 130.426  0.00  0.00    -0.275 OA
ATOM      5  C   LIG A   1      -9.728   4.414 130.091  0.00  0.00    +0.082 C 
ATOM      6  C   LIG A   1      -8.694   4.774 131.203  0.00  0.00    +0.036 C 
ATOM      7  C   LIG A   1      -7.527   3.744 130.852  0.00  0.00    +0.101 C 
ATOM      8  C   LIG A   1      -6.699   4.194 129.543  0.00  0.00    +0.215 C 
ATOM      9  C   LIG A   1      -5.275   4.735 129.706  0.00  0.00    +0.017 C 
ATOM     10  C   LIG A   1      -4.941   6.038 129.676  0.00  0.00    +0.014 C 
ATOM     11  C   LIG A   1      -3.600   6.731 129.788  0.00  0.00    +0.139 C 
ATOM     12  C   LIG A   1      -3.198   7.155 128.358  0.00  0.00    +0.054 C 
ATOM     13  C   LIG A   1      -6.655   3.385 132.087  0.00  0.00    +0.063 C 
ATOM     14  C   LIG A   1      -5.760   4.548 132.481  0.00  0.00    -0.024 C 
ATOM     15  C   LIG A   1      -4.469   4.404 132.799  0.00  0.00    -0.030 C 
ATOM     16  C   LIG A   1      -3.507   5.556 132.766  0.00  0.00    +0.037 C 
ATOM     17  C   LIG A   1      -2.421   5.219 131.730  0.00  0.00    +0.059 C 
ATOM     18  C   LIG A   1      -1.065   5.188 132.458  0.00  0.00    +0.016 C 
ATOM     19  C   LIG A   1      -2.335   6.123 130.492  0.00  0.00    +0.171 C 
ATOM     20  O   LIG A   1      -1.211   6.405 130.046  0.00  0.00    -0.294 OA
ATOM     21  C   LIG A   1      -7.486   2.985 133.321  0.00  0.00    +0.148 C 
ATOM     22  C   LIG A   1      -9.310   4.656 132.657  0.00  0.00    +0.020 C 
ATOM     23  C   LIG A   1      -9.942   6.006 133.058  0.00  0.00    +0.013 C 
ATOM     24  C   LIG A   1      -8.354   4.146 133.735  0.00  0.00    -0.045 C 
ATOM     25  C   LIG A   1      -8.228   4.646 134.980  0.00  0.00    +0.010 C 
ENDROOT
BRANCH  11  26
ATOM     26  O   LIG A   1      -3.870   7.942 130.519  0.00  0.00    -0.377 OA
ATOM     27  H   LIG A   1      -4.282   8.562 129.890  0.00  0.00    +0.211 HD
ENDBRANCH  11  26
BRANCH  21  28
ATOM     28  O   LIG A   1      -8.336   1.868 133.116  0.00  0.00    -0.387 OA
ATOM     29  H   LIG A   1      -7.997   1.114 133.638  0.00  0.00    +0.210 HD
ENDBRANCH  21  28
BRANCH   5  30
ATOM     30  C   LIG A   1     -11.180   4.906 130.186  0.00  0.00    +0.057 C 
BRANCH  30  31
ATOM     31  C   LIG A   1     -11.440   6.305 129.644  0.00  0.00    -0.046 A 
ATOM     32  C   LIG A   1     -12.458   7.076 130.225  0.00  0.00    +0.003 A 
ATOM     33  C   LIG A   1     -12.734   8.366 129.761  0.00  0.00    +0.000 A 
ATOM     34  C   LIG A   1     -11.986   8.910 128.721  0.00  0.00    +0.000 A 
ATOM     35  C   LIG A   1     -10.955   8.170 128.152  0.00  0.00    +0.000 A 
ATOM     36  C   LIG A   1     -10.678   6.882 128.616  0.00  0.00    +0.003 A 
ENDBRANCH  30  31
ENDBRANCH   5  30
BRANCH   8  37
ATOM     37  O   LIG A   1      -6.476   3.098 128.619  0.00  0.00    -0.456 OA
BRANCH  37  38
ATOM     38  C   LIG A   1      -6.987   3.219 127.363  0.00  0.00    +0.304 C 
ATOM     39  C   LIG A   1      -5.883   3.183 126.347  0.00  0.00    +0.136 C 
ATOM     40  O   LIG A   1      -8.165   3.388 127.084  0.00  0.00    -0.251 OA
ENDBRANCH  37  38
ENDBRANCH   8  37
TORSDOF 6
ENDMDL
MODEL 3
REMARK VINA RESULT:      -9.1      3.424      7.251
REMARK  Name = NuBBE_266
REMARK  10 active torsions:
REMARK  status: ('A' for Active; 'I' for Inactive)
REMARK    1  A    between atoms: C_5  and  C_6
REMARK    2  A    between atoms: C_6  and  C_7
REMARK    3  A    between atoms: C_16  and  O_23
REMARK    4  A    between atoms: C_20  and  O_21
REMARK    5  A    between atoms: C_20  and  C_22
REMARK    6  A    between atoms: O_23  and  C_24
REMARK    7  A    between atoms: C_24  and  C_25
REMARK    8  A    between atoms: C_32  and  C_34
REMARK    9  A    between atoms: C_37  and  O_39
REMARK   10  A    between atoms: C_41  and  C_43
REMARK                            x       y       z     vdW  Elec       q    Type
REMARK                         _______ _______ _______ _____ _____    ______ ____
ROOT
ATOM      1  H   LIG A   1      -6.944   1.089 132.731  0.00  0.00    +0.149 HD
ATOM      2  N   LIG A   1      -6.762   0.587 131.867  0.00  0.00    -0.311 N 
ATOM      3  C   LIG A   1      -7.771  -0.061 131.189  0.00  0.00    +0.224 C 
ATOM      4  O   LIG A   1      -8.913  -0.185 131.587  0.00  0.00    -0.275 OA
ATOM      5  C   LIG A   1      -5.537   0.647 131.113  0.00  0.00    +0.082 C 
ATOM      6  C   LIG A   1      -5.664  -0.624 130.217  0.00  0.00    +0.036 C 
ATOM      7  C   LIG A   1      -7.217  -0.565 129.856  0.00  0.00    +0.101 C 
ATOM      8  C   LIG A   1      -7.540   0.579 128.766  0.00  0.00    +0.215 C 
ATOM      9  C   LIG A   1      -7.897   0.172 127.334  0.00  0.00    +0.017 C 
ATOM     10  C   LIG A   1      -7.047   0.208 126.291  0.00  0.00    +0.014 C 
ATOM     11  C   LIG A   1      -7.243  -0.126 124.828  0.00  0.00    +0.139 C 
ATOM     12  C   LIG A   1      -7.362   1.218 124.078  0.00  0.00    +0.054 C 
ATOM     13  C   LIG A   1      -7.808  -1.965 129.531  0.00  0.00    +0.063 C 
ATOM     14  C   LIG A   1      -7.326  -2.461 128.178  0.00  0.00    -0.024 C 
ATOM     15  C   LIG A   1      -8.132  -3.033 127.278  0.00  0.00    -0.030 C 
ATOM     16  C   LIG A   1      -7.764  -3.125 125.825  0.00  0.00    +0.037 C 
ATOM     17  C   LIG A   1      -8.823  -2.342 125.032  0.00  0.00    +0.059 C 
ATOM     18  C   LIG A   1      -9.511  -3.321 124.062  0.00  0.00    +0.016 C 
ATOM     19  C   LIG A   1      -8.345  -1.096 124.271  0.00  0.00    +0.171 C 
ATOM     20  O   LIG A   1      -8.835  -0.863 123.154  0.00  0.00    -0.294 OA
ATOM     21  C   LIG A   1      -7.456  -3.033 130.584  0.00  0.00    +0.148 C 
ATOM     22  C   LIG A   1      -5.172  -1.934 130.958  0.00  0.00    +0.020 C 
ATOM     23  C   LIG A   1      -3.661  -2.129 130.710  0.00  0.00    +0.013 C 
ATOM     24  C   LIG A   1      -5.959  -3.205 130.637  0.00  0.00    -0.045 C 
ATOM     25  C   LIG A   1      -5.431  -4.421 130.395  0.00  0.00    +0.010 C 
ENDROOT
BRANCH  11  26
ATOM     26  O   LIG A   1      -5.999  -0.723 124.416  0.00  0.00    -0.377 OA
ATOM     27  H   LIG A   1      -5.287  -0.178 124.800  0.00  0.00    +0.211 HD
ENDBRANCH  11  26
BRANCH  21  28
ATOM     28  O   LIG A   1      -7.898  -2.727 131.896  0.00  0.00    -0.387 OA
ATOM     29  H   LIG A   1      -7.730  -3.499 132.473  0.00  0.00    +0.210 HD
ENDBRANCH  21  28
BRANCH   5  30
ATOM     30  C   LIG A   1      -4.293   0.864 131.988  0.00  0.00    +0.057 C 
BRANCH  30  31
ATOM     31  C   LIG A   1      -3.678   2.256 131.926  0.00  0.00    -0.046 A 
ATOM     32  C   LIG A   1      -2.822   2.663 132.961  0.00  0.00    +0.003 A 
ATOM     33  C   LIG A   1      -2.234   3.931 132.950  0.00  0.00    +0.000 A 
ATOM     34  C   LIG A   1      -2.480   4.806 131.895  0.00  0.00    +0.000 A 
ATOM     35  C   LIG A   1      -3.304   4.409 130.848  0.00  0.00    +0.000 A 
ATOM     36  C   LIG A   1      -3.891   3.141 130.858  0.00  0.00    +0.003 A 
ENDBRANCH  30  31
ENDBRANCH   5  30
BRANCH   8  37
ATOM     37  O   LIG A   1      -8.696   1.381 129.124  0.00  0.00    -0.456 OA
BRANCH  37  38
ATOM     38  C   LIG A   1      -8.553   2.734 129.112  0.00  0.00    +0.304 C 
ATOM     39  C   LIG A   1      -7.106   3.103 128.959  0.00  0.00    +0.136 C 
ATOM     40  O   LIG A   1      -9.451   3.549 129.258  0.00  0.00    -0.251 OA
ENDBRANCH  37  38
ENDBRANCH   8  37
TORSDOF 6
ENDMDL
MODEL 4
REMARK VINA RESULT:      -9.0      3.216      6.333
REMARK  Name = NuBBE_266
REMARK  10 active torsions:
REMARK  status: ('A' for Active; 'I' for Inactive)
REMARK    1  A    between atoms: C_5  and  C_6
REMARK    2  A    between atoms: C_6  and  C_7
REMARK    3  A    between atoms: C_16  and  O_23
REMARK    4  A    between atoms: C_20  and  O_21
REMARK    5  A    between atoms: C_20  and  C_22
REMARK    6  A    between atoms: O_23  and  C_24
REMARK    7  A    between atoms: C_24  and  C_25
REMARK    8  A    between atoms: C_32  and  C_34
REMARK    9  A    between atoms: C_37  and  O_39
REMARK   10  A    between atoms: C_41  and  C_43
REMARK                            x       y       z     vdW  Elec       q    Type
REMARK                         _______ _______ _______ _____ _____    ______ ____
ROOT
ATOM      1  H   LIG A   1      -5.832   0.138 125.144  0.00  0.00    +0.149 HD
ATOM      2  N   LIG A   1      -6.323   0.170 126.031  0.00  0.00    -0.311 N 
ATOM      3  C   LIG A   1      -5.806   0.853 127.111  0.00  0.00    +0.224 C 
ATOM      4  O   LIG A   1      -4.709   1.377 127.146  0.00  0.00    -0.275 OA
ATOM      5  C   LIG A   1      -7.676  -0.270 126.251  0.00  0.00    +0.082 C 
ATOM      6  C   LIG A   1      -7.704  -0.418 127.804  0.00  0.00    +0.036 C 
ATOM      7  C   LIG A   1      -6.849   0.860 128.229  0.00  0.00    +0.101 C 
ATOM      8  C   LIG A   1      -7.686   2.228 128.063  0.00  0.00    +0.215 C 
ATOM      9  C   LIG A   1      -8.178   2.962 129.314  0.00  0.00    +0.017 C 
ATOM     10  C   LIG A   1      -9.436   2.910 129.789  0.00  0.00    +0.014 C 
ATOM     11  C   LIG A   1     -10.088   3.587 130.976  0.00  0.00    +0.139 C 
ATOM     12  C   LIG A   1     -10.928   4.755 130.414  0.00  0.00    +0.054 C 
ATOM     13  C   LIG A   1      -6.151   0.681 129.606  0.00  0.00    +0.063 C 
ATOM     14  C   LIG A   1      -7.159   0.750 130.741  0.00  0.00    -0.024 C 
ATOM     15  C   LIG A   1      -6.949   1.443 131.866  0.00  0.00    -0.030 C 
ATOM     16  C   LIG A   1      -8.075   1.857 132.768  0.00  0.00    +0.037 C 
ATOM     17  C   LIG A   1      -8.084   3.394 132.819  0.00  0.00    +0.059 C 
ATOM     18  C   LIG A   1      -7.861   3.822 134.281  0.00  0.00    +0.016 C 
ATOM     19  C   LIG A   1      -9.320   4.103 132.244  0.00  0.00    +0.171 C 
ATOM     20  O   LIG A   1      -9.743   5.114 132.828  0.00  0.00    -0.294 OA
ATOM     21  C   LIG A   1      -5.384  -0.649 129.730  0.00  0.00    +0.148 C 
ATOM     22  C   LIG A   1      -7.145  -1.820 128.284  0.00  0.00    +0.020 C 
ATOM     23  C   LIG A   1      -8.301  -2.841 128.344  0.00  0.00    +0.013 C 
ATOM     24  C   LIG A   1      -6.351  -1.797 129.590  0.00  0.00    -0.045 C 
ATOM     25  C   LIG A   1      -6.457  -2.690 130.594  0.00  0.00    +0.010 C 
ENDROOT
BRANCH  11  26
ATOM     26  O   LIG A   1     -11.018   2.615 131.490  0.00  0.00    -0.377 OA
ATOM     27  H   LIG A   1     -11.429   2.186 130.717  0.00  0.00    +0.211 HD
ENDBRANCH  11  26
BRANCH  21  28
ATOM     28  O   LIG A   1      -4.365  -0.829 128.760  0.00  0.00    -0.387 OA
ATOM     29  H   LIG A   1      -3.819  -1.598 129.016  0.00  0.00    +0.210 HD
ENDBRANCH  21  28
BRANCH   5  30
ATOM     30  C   LIG A   1      -8.090  -1.440 125.347  0.00  0.00    +0.057 C 
BRANCH  30  31
ATOM     31  C   LIG A   1      -6.989  -2.013 124.464  0.00  0.00    -0.046 A 
ATOM     32  C   LIG A   1      -6.136  -2.992 124.997  0.00  0.00    +0.003 A 
ATOM     33  C   LIG A   1      -5.111  -3.547 124.226  0.00  0.00    +0.000 A 
ATOM     34  C   LIG A   1      -4.934  -3.146 122.905  0.00  0.00    +0.000 A 
ATOM     35  C   LIG A   1      -5.788  -2.197 122.352  0.00  0.00    +0.000 A 
ATOM     36  C   LIG A   1      -6.813  -1.642 123.122  0.00  0.00    +0.003 A 
ENDBRANCH  30  31
ENDBRANCH   5  30
BRANCH   8  37
ATOM     37  O   LIG A   1      -6.922   3.274 127.410  0.00  0.00    -0.456 OA
BRANCH  37  38
ATOM     38  C   LIG A   1      -7.558   4.028 126.473  0.00  0.00    +0.304 C 
ATOM     39  C   LIG A   1      -7.122   3.624 125.095  0.00  0.00    +0.136 C 
ATOM     40  O   LIG A   1      -8.334   4.945 126.700  0.00  0.00    -0.251 OA
ENDBRANCH  37  38
ENDBRANCH   8  37
TORSDOF 6
ENDMDL
MODEL 5
REMARK VINA RESULT:      -8.8      3.012      5.768
REMARK  Name = NuBBE_266
REMARK  10 active torsions:
REMARK  status: ('A' for Active; 'I' for Inactive)
REMARK    1  A    between atoms: C_5  and  C_6
REMARK    2  A    between atoms: C_6  and  C_7
REMARK    3  A    between atoms: C_16  and  O_23
REMARK    4  A    between atoms: C_20  and  O_21
REMARK    5  A    between atoms: C_20  and  C_22
REMARK    6  A    between atoms: O_23  and  C_24
REMARK    7  A    between atoms: C_24  and  C_25
REMARK    8  A    between atoms: C_32  and  C_34
REMARK    9  A    between atoms: C_37  and  O_39
REMARK   10  A    between atoms: C_41  and  C_43
REMARK                            x       y       z     vdW  Elec       q    Type
REMARK                         _______ _______ _______ _____ _____    ______ ____
ROOT
ATOM      1  H   LIG A   1      -6.798   3.584 130.637  0.00  0.00    +0.149 HD
ATOM      2  N   LIG A   1      -6.650   2.755 130.071  0.00  0.00    -0.311 N 
ATOM      3  C   LIG A   1      -7.710   2.016 129.593  0.00  0.00    +0.224 C 
ATOM      4  O   LIG A   1      -8.878   2.210 129.871  0.00  0.00    -0.275 OA
ATOM      5  C   LIG A   1      -5.391   2.347 129.504  0.00  0.00    +0.082 C 
ATOM      6  C   LIG A   1      -5.671   0.848 129.177  0.00  0.00    +0.036 C 
ATOM      7  C   LIG A   1      -7.171   0.946 128.643  0.00  0.00    +0.101 C 
ATOM      8  C   LIG A   1      -7.244   1.575 127.160  0.00  0.00    +0.215 C 
ATOM      9  C   LIG A   1      -7.580   0.664 125.976  0.00  0.00    +0.017 C 
ATOM     10  C   LIG A   1      -6.679   0.164 125.111  0.00  0.00    +0.014 C 
ATOM     11  C   LIG A   1      -6.843  -0.713 123.888  0.00  0.00    +0.139 C 
ATOM     12  C   LIG A   1      -6.701   0.210 122.658  0.00  0.00    +0.054 C 
ATOM     13  C   LIG A   1      -7.961  -0.378 128.833  0.00  0.00    +0.063 C 
ATOM     14  C   LIG A   1      -7.490  -1.441 127.855  0.00  0.00    -0.024 C 
ATOM     15  C   LIG A   1      -8.325  -2.226 127.168  0.00  0.00    -0.030 C 
ATOM     16  C   LIG A   1      -7.896  -2.950 125.924  0.00  0.00    +0.037 C 
ATOM     17  C   LIG A   1      -8.769  -2.435 124.768  0.00  0.00    +0.059 C 
ATOM     18  C   LIG A   1      -9.550  -3.632 124.193  0.00  0.00    +0.016 C 
ATOM     19  C   LIG A   1      -8.054  -1.680 123.637  0.00  0.00    +0.171 C 
ATOM     20  O   LIG A   1      -8.436  -1.867 122.470  0.00  0.00    -0.294 OA
ATOM     21  C   LIG A   1      -7.845  -0.956 130.257  0.00  0.00    +0.148 C 
ATOM     22  C   LIG A   1      -5.439  -0.094 130.429  0.00  0.00    +0.020 C 
ATOM     23  C   LIG A   1      -3.968  -0.560 130.457  0.00  0.00    +0.013 C 
ATOM     24  C   LIG A   1      -6.401  -1.276 130.548  0.00  0.00    -0.045 C 
ATOM     25  C   LIG A   1      -6.063  -2.540 130.872  0.00  0.00    +0.010 C 
ENDROOT
BRANCH  11  26
ATOM     26  O   LIG A   1      -5.690  -1.576 123.896  0.00  0.00    -0.377 OA
ATOM     27  H   LIG A   1      -5.754  -2.133 123.098  0.00  0.00    +0.211 HD
ENDBRANCH  11  26
BRANCH  21  28
ATOM     28  O   LIG A   1      -8.305  -0.087 131.279  0.00  0.00    -0.387 OA
ATOM     29  H   LIG A   1      -8.926  -0.578 131.853  0.00  0.00    +0.210 HD
ENDBRANCH  21  28
BRANCH   5  30
ATOM     30  C   LIG A   1      -4.180   2.747 130.360  0.00  0.00    +0.057 C 
BRANCH  30  31
ATOM     31  C   LIG A   1      -3.446   4.006 129.917  0.00  0.00    -0.046 A 
ATOM     32  C   LIG A   1      -3.247   4.224 128.545  0.00  0.00    +0.003 A 
ATOM     33  C   LIG A   1      -2.578   5.364 128.089  0.00  0.00    +0.000 A 
ATOM     34  C   LIG A   1      -2.115   6.312 128.997  0.00  0.00    +0.000 A 
ATOM     35  C   LIG A   1      -2.328   6.126 130.359  0.00  0.00    +0.000 A 
ATOM     36  C   LIG A   1      -2.996   4.987 130.815  0.00  0.00    +0.003 A 
ENDBRANCH  30  31
ENDBRANCH   5  30
BRANCH   8  37
ATOM     37  O   LIG A   1      -8.273   2.589 127.033  0.00  0.00    -0.456 OA
BRANCH  37  38
ATOM     38  C   LIG A   1      -8.008   3.660 126.236  0.00  0.00    +0.304 C 
ATOM     39  C   LIG A   1      -6.642   4.205 126.534  0.00  0.00    +0.136 C 
ATOM     40  O   LIG A   1      -8.778   4.157 125.428  0.00  0.00    -0.251 OA
ENDBRANCH  37  38
ENDBRANCH   8  37
TORSDOF 6
ENDMDL
MODEL 6
REMARK VINA RESULT:      -8.7      3.290      5.646
REMARK  Name = NuBBE_266
REMARK  10 active torsions:
REMARK  status: ('A' for Active; 'I' for Inactive)
REMARK    1  A    between atoms: C_5  and  C_6
REMARK    2  A    between atoms: C_6  and  C_7
REMARK    3  A    between atoms: C_16  and  O_23
REMARK    4  A    between atoms: C_20  and  O_21
REMARK    5  A    between atoms: C_20  and  C_22
REMARK    6  A    between atoms: O_23  and  C_24
REMARK    7  A    between atoms: C_24  and  C_25
REMARK    8  A    between atoms: C_32  and  C_34
REMARK    9  A    between atoms: C_37  and  O_39
REMARK   10  A    between atoms: C_41  and  C_43
REMARK                            x       y       z     vdW  Elec       q    Type
REMARK                         _______ _______ _______ _____ _____    ______ ____
ROOT
ATOM      1  H   LIG A   1      -8.439   6.259 129.893  0.00  0.00    +0.149 HD
ATOM      2  N   LIG A   1      -8.046   5.325 129.950  0.00  0.00    -0.311 N 
ATOM      3  C   LIG A   1      -8.829   4.207 129.764  0.00  0.00    +0.224 C 
ATOM      4  O   LIG A   1     -10.037   4.215 129.623  0.00  0.00    -0.275 OA
ATOM      5  C   LIG A   1      -6.641   5.015 130.005  0.00  0.00    +0.082 C 
ATOM      6  C   LIG A   1      -6.669   3.550 130.541  0.00  0.00    +0.036 C 
ATOM      7  C   LIG A   1      -7.923   2.975 129.739  0.00  0.00    +0.101 C 
ATOM      8  C   LIG A   1      -7.573   2.699 128.189  0.00  0.00    +0.215 C 
ATOM      9  C   LIG A   1      -7.433   1.255 127.699  0.00  0.00    +0.017 C 
ATOM     10  C   LIG A   1      -6.262   0.624 127.493  0.00  0.00    +0.014 C 
ATOM     11  C   LIG A   1      -5.949  -0.768 126.990  0.00  0.00    +0.139 C 
ATOM     12  C   LIG A   1      -5.504  -0.619 125.518  0.00  0.00    +0.054 C 
ATOM     13  C   LIG A   1      -8.613   1.794 130.476  0.00  0.00    +0.063 C 
ATOM     14  C   LIG A   1      -7.763   0.537 130.409  0.00  0.00    -0.024 C 
ATOM     15  C   LIG A   1      -8.263  -0.672 130.133  0.00  0.00    -0.030 C 
ATOM     16  C   LIG A   1      -7.398  -1.801 129.653  0.00  0.00    +0.037 C 
ATOM     17  C   LIG A   1      -7.897  -2.202 128.255  0.00  0.00    +0.059 C 
ATOM     18  C   LIG A   1      -8.345  -3.674 128.314  0.00  0.00    +0.016 C 
ATOM     19  C   LIG A   1      -6.927  -1.994 127.082  0.00  0.00    +0.171 C 
ATOM     20  O   LIG A   1      -6.899  -2.848 126.181  0.00  0.00    -0.294 OA
ATOM     21  C   LIG A   1      -8.908   2.091 131.958  0.00  0.00    +0.148 C 
ATOM     22  C   LIG A   1      -6.769   3.490 132.121  0.00  0.00    +0.020 C 
ATOM     23  C   LIG A   1      -5.348   3.495 132.725  0.00  0.00    +0.013 C 
ATOM     24  C   LIG A   1      -7.610   2.345 132.683  0.00  0.00    -0.045 C 
ATOM     25  C   LIG A   1      -7.284   1.567 133.734  0.00  0.00    +0.010 C 
ENDROOT
BRANCH  11  26
ATOM     26  O   LIG A   1      -4.788  -1.179 127.736  0.00  0.00    -0.377 OA
ATOM     27  H   LIG A   1      -4.236  -1.703 127.126  0.00  0.00    +0.211 HD
ENDBRANCH  11  26
BRANCH  21  28
ATOM     28  O   LIG A   1      -9.745   3.216 132.174  0.00  0.00    -0.387 OA
ATOM     29  H   LIG A   1     -10.357   3.302 131.417  0.00  0.00    +0.210 HD
ENDBRANCH  21  28
BRANCH   5  30
ATOM     30  C   LIG A   1      -5.807   6.091 130.715  0.00  0.00    +0.057 C 
BRANCH  30  31
ATOM     31  C   LIG A   1      -4.362   6.219 130.249  0.00  0.00    -0.046 A 
ATOM     32  C   LIG A   1      -3.355   6.390 131.212  0.00  0.00    +0.003 A 
ATOM     33  C   LIG A   1      -2.015   6.513 130.834  0.00  0.00    +0.000 A 
ATOM     34  C   LIG A   1      -1.659   6.450 129.490  0.00  0.00    +0.000 A 
ATOM     35  C   LIG A   1      -2.641   6.254 128.525  0.00  0.00    +0.000 A 
ATOM     36  C   LIG A   1      -3.980   6.130 128.902  0.00  0.00    +0.003 A 
ENDBRANCH  30  31
ENDBRANCH   5  30
BRANCH   8  37
ATOM     37  O   LIG A   1      -8.593   3.202 127.288  0.00  0.00    -0.456 OA
BRANCH  37  38
ATOM     38  C   LIG A   1      -8.180   3.758 126.117  0.00  0.00    +0.304 C 
ATOM     39  C   LIG A   1      -6.847   4.425 126.298  0.00  0.00    +0.136 C 
ATOM     40  O   LIG A   1      -8.812   3.774 125.071  0.00  0.00    -0.251 OA
ENDBRANCH  37  38
ENDBRANCH   8  37
TORSDOF 6
ENDMDL
MODEL 7
REMARK VINA RESULT:      -8.6      3.694      8.923
REMARK  Name = NuBBE_266
REMARK  10 active torsions:
REMARK  status: ('A' for Active; 'I' for Inactive)
REMARK    1  A    between atoms: C_5  and  C_6
REMARK    2  A    between atoms: C_6  and  C_7
REMARK    3  A    between atoms: C_16  and  O_23
REMARK    4  A    between atoms: C_20  and  O_21
REMARK    5  A    between atoms: C_20  and  C_22
REMARK    6  A    between atoms: O_23  and  C_24
REMARK    7  A    between atoms: C_24  and  C_25
REMARK    8  A    between atoms: C_32  and  C_34
REMARK    9  A    between atoms: C_37  and  O_39
REMARK   10  A    between atoms: C_41  and  C_43
REMARK                            x       y       z     vdW  Elec       q    Type
REMARK                         _______ _______ _______ _____ _____    ______ ____
ROOT
ATOM      1  H   LIG A   1      -4.936  -1.279 132.537  0.00  0.00    +0.149 HD
ATOM      2  N   LIG A   1      -5.616  -1.118 131.801  0.00  0.00    -0.311 N 
ATOM      3  C   LIG A   1      -5.253  -0.537 130.606  0.00  0.00    +0.224 C 
ATOM      4  O   LIG A   1      -4.153  -0.082 130.356  0.00  0.00    -0.275 OA
ATOM      5  C   LIG A   1      -6.957  -1.640 131.779  0.00  0.00    +0.082 C 
ATOM      6  C   LIG A   1      -7.631  -0.715 130.718  0.00  0.00    +0.036 C 
ATOM      7  C   LIG A   1      -6.448  -0.591 129.654  0.00  0.00    +0.101 C 
ATOM      8  C   LIG A   1      -6.277  -1.937 128.783  0.00  0.00    +0.215 C 
ATOM      9  C   LIG A   1      -6.712  -1.940 127.315  0.00  0.00    +0.017 C 
ATOM     10  C   LIG A   1      -7.865  -2.461 126.857  0.00  0.00    +0.014 C 
ATOM     11  C   LIG A   1      -8.426  -2.573 125.455  0.00  0.00    +0.139 C 
ATOM     12  C   LIG A   1      -8.220  -4.037 125.010  0.00  0.00    +0.054 C 
ATOM     13  C   LIG A   1      -6.526   0.721 128.825  0.00  0.00    +0.063 C 
ATOM     14  C   LIG A   1      -7.667   0.667 127.823  0.00  0.00    -0.024 C 
ATOM     15  C   LIG A   1      -7.547   1.069 126.553  0.00  0.00    -0.030 C 
ATOM     16  C   LIG A   1      -8.505   0.629 125.485  0.00  0.00    +0.037 C 
ATOM     17  C   LIG A   1      -7.697  -0.150 124.433  0.00  0.00    +0.059 C 
ATOM     18  C   LIG A   1      -7.835   0.587 123.088  0.00  0.00    +0.016 C 
ATOM     19  C   LIG A   1      -8.033  -1.638 124.257  0.00  0.00    +0.171 C 
ATOM     20  O   LIG A   1      -8.020  -2.113 123.109  0.00  0.00    -0.294 OA
ATOM     21  C   LIG A   1      -6.714   1.979 129.694  0.00  0.00    +0.148 C 
ATOM     22  C   LIG A   1      -8.146   0.644 131.346  0.00  0.00    +0.020 C 
ATOM     23  C   LIG A   1      -9.594   0.463 131.847  0.00  0.00    +0.013 C 
ATOM     24  C   LIG A   1      -8.015   1.873 130.448  0.00  0.00    -0.045 C 
ATOM     25  C   LIG A   1      -8.949   2.830 130.278  0.00  0.00    +0.010 C 
ENDROOT
BRANCH  11  26
ATOM     26  O   LIG A   1      -9.845  -2.381 125.610  0.00  0.00    -0.377 OA
ATOM     27  H   LIG A   1     -10.044  -2.519 126.555  0.00  0.00    +0.211 HD
ENDBRANCH  11  26
BRANCH  21  28
ATOM     28  O   LIG A   1      -5.684   2.190 130.647  0.00  0.00    -0.387 OA
ATOM     29  H   LIG A   1      -5.728   3.116 130.958  0.00  0.00    +0.210 HD
ENDBRANCH  21  28
BRANCH   5  30
ATOM     30  C   LIG A   1      -7.572  -1.802 133.177  0.00  0.00    +0.057 C 
BRANCH  30  31
ATOM     31  C   LIG A   1      -7.349  -3.154 133.843  0.00  0.00    -0.046 A 
ATOM     32  C   LIG A   1      -8.249  -3.574 134.834  0.00  0.00    +0.003 A 
ATOM     33  C   LIG A   1      -8.086  -4.806 135.475  0.00  0.00    +0.000 A 
ATOM     34  C   LIG A   1      -7.032  -5.644 135.122  0.00  0.00    +0.000 A 
ATOM     35  C   LIG A   1      -6.147  -5.255 134.122  0.00  0.00    +0.000 A 
ATOM     36  C   LIG A   1      -6.309  -4.024 133.482  0.00  0.00    +0.003 A 
ENDBRANCH  30  31
ENDBRANCH   5  30
BRANCH   8  37
ATOM     37  O   LIG A   1      -4.892  -2.353 128.664  0.00  0.00    -0.456 OA
BRANCH  37  38
ATOM     38  C   LIG A   1      -4.502  -3.455 129.361  0.00  0.00    +0.304 C 
ATOM     39  C   LIG A   1      -3.022  -3.662 129.222  0.00  0.00    +0.136 C 
ATOM     40  O   LIG A   1      -5.242  -4.212 129.973  0.00  0.00    -0.251 OA
ENDBRANCH  37  38
ENDBRANCH   8  37
TORSDOF 6
ENDMDL
MODEL 8
REMARK VINA RESULT:      -8.5      4.318      7.337
REMARK  Name = NuBBE_266
REMARK  10 active torsions:
REMARK  status: ('A' for Active; 'I' for Inactive)
REMARK    1  A    between atoms: C_5  and  C_6
REMARK    2  A    between atoms: C_6  and  C_7
REMARK    3  A    between atoms: C_16  and  O_23
REMARK    4  A    between atoms: C_20  and  O_21
REMARK    5  A    between atoms: C_20  and  C_22
REMARK    6  A    between atoms: O_23  and  C_24
REMARK    7  A    between atoms: C_24  and  C_25
REMARK    8  A    between atoms: C_32  and  C_34
REMARK    9  A    between atoms: C_37  and  O_39
REMARK   10  A    between atoms: C_41  and  C_43
REMARK                            x       y       z     vdW  Elec       q    Type
REMARK                         _______ _______ _______ _____ _____    ______ ____
ROOT
ATOM      1  H   LIG A   1      -5.699   3.210 133.753  0.00  0.00    +0.149 HD
ATOM      2  N   LIG A   1      -5.611   2.386 133.166  0.00  0.00    -0.311 N 
ATOM      3  C   LIG A   1      -6.683   1.552 132.938  0.00  0.00    +0.224 C 
ATOM      4  O   LIG A   1      -7.770   1.650 133.474  0.00  0.00    -0.275 OA
ATOM      5  C   LIG A   1      -4.481   2.078 132.329  0.00  0.00    +0.082 C 
ATOM      6  C   LIG A   1      -4.695   0.555 132.070  0.00  0.00    +0.036 C 
ATOM      7  C   LIG A   1      -6.281   0.515 131.889  0.00  0.00    +0.101 C 
ATOM      8  C   LIG A   1      -6.740   1.110 130.462  0.00  0.00    +0.215 C 
ATOM      9  C   LIG A   1      -7.254   0.153 129.382  0.00  0.00    +0.017 C 
ATOM     10  C   LIG A   1      -6.531  -0.283 128.335  0.00  0.00    +0.014 C 
ATOM     11  C   LIG A   1      -6.889  -1.192 127.179  0.00  0.00    +0.139 C 
ATOM     12  C   LIG A   1      -7.109  -0.282 125.950  0.00  0.00    +0.054 C 
ATOM     13  C   LIG A   1      -6.889  -0.868 132.249  0.00  0.00    +0.063 C 
ATOM     14  C   LIG A   1      -6.559  -1.903 131.187  0.00  0.00    -0.024 C 
ATOM     15  C   LIG A   1      -7.457  -2.769 130.704  0.00  0.00    -0.030 C 
ATOM     16  C   LIG A   1      -7.258  -3.475 129.395  0.00  0.00    +0.037 C 
ATOM     17  C   LIG A   1      -8.410  -3.057 128.466  0.00  0.00    +0.059 C 
ATOM     18  C   LIG A   1      -9.193  -4.325 128.080  0.00  0.00    +0.016 C 
ATOM     19  C   LIG A   1      -8.037  -2.263 127.205  0.00  0.00    +0.171 C 
ATOM     20  O   LIG A   1      -8.654  -2.501 126.155  0.00  0.00    -0.294 OA
ATOM     21  C   LIG A   1      -6.406  -1.409 133.608  0.00  0.00    +0.148 C 
ATOM     22  C   LIG A   1      -4.107  -0.342 133.235  0.00  0.00    +0.020 C 
ATOM     23  C   LIG A   1      -2.632  -0.680 132.928  0.00  0.00    +0.013 C 
ATOM     24  C   LIG A   1      -4.911  -1.600 133.565  0.00  0.00    -0.045 C 
ATOM     25  C   LIG A   1      -4.400  -2.824 133.801  0.00  0.00    +0.010 C 
ENDROOT
BRANCH  11  26
ATOM     26  O   LIG A   1      -5.694  -1.953 126.923  0.00  0.00    -0.377 OA
ATOM     27  H   LIG A   1      -5.786  -2.791 127.414  0.00  0.00    +0.211 HD
ENDBRANCH  11  26
BRANCH  21  28
ATOM     28  O   LIG A   1      -6.697  -0.565 134.710  0.00  0.00    -0.387 OA
ATOM     29  H   LIG A   1      -5.881  -0.436 135.232  0.00  0.00    +0.210 HD
ENDBRANCH  21  28
BRANCH   5  30
ATOM     30  C   LIG A   1      -3.148   2.594 132.889  0.00  0.00    +0.057 C 
BRANCH  30  31
ATOM     31  C   LIG A   1      -2.627   3.884 132.269  0.00  0.00    -0.046 A 
ATOM     32  C   LIG A   1      -3.234   4.364 131.099  0.00  0.00    +0.003 A 
ATOM     33  C   LIG A   1      -2.791   5.543 130.492  0.00  0.00    +0.000 A 
ATOM     34  C   LIG A   1      -1.746   6.269 131.056  0.00  0.00    +0.000 A 
ATOM     35  C   LIG A   1      -1.150   5.822 132.230  0.00  0.00    +0.000 A 
ATOM     36  C   LIG A   1      -1.593   4.645 132.837  0.00  0.00    +0.003 A 
ENDBRANCH  30  31
ENDBRANCH   5  30
BRANCH   8  37
ATOM     37  O   LIG A   1      -7.856   2.030 130.573  0.00  0.00    -0.456 OA
BRANCH  37  38
ATOM     38  C   LIG A   1      -7.920   3.054 129.680  0.00  0.00    +0.304 C 
ATOM     39  C   LIG A   1      -6.654   3.860 129.719  0.00  0.00    +0.136 C 
ATOM     40  O   LIG A   1      -8.881   3.330 128.976  0.00  0.00    -0.251 OA
ENDBRANCH  37  38
ENDBRANCH   8  37
TORSDOF 6
ENDMDL
MODEL 9
REMARK VINA RESULT:      -8.4      4.645      7.513
REMARK  Name = NuBBE_266
REMARK  10 active torsions:
REMARK  status: ('A' for Active; 'I' for Inactive)
REMARK    1  A    between atoms: C_5  and  C_6
REMARK    2  A    between atoms: C_6  and  C_7
REMARK    3  A    between atoms: C_16  and  O_23
REMARK    4  A    between atoms: C_20  and  O_21
REMARK    5  A    between atoms: C_20  and  C_22
REMARK    6  A    between atoms: O_23  and  C_24
REMARK    7  A    between atoms: C_24  and  C_25
REMARK    8  A    between atoms: C_32  and  C_34
REMARK    9  A    between atoms: C_37  and  O_39
REMARK   10  A    between atoms: C_41  and  C_43
REMARK                            x       y       z     vdW  Elec       q    Type
REMARK                         _______ _______ _______ _____ _____    ______ ____
ROOT
ATOM      1  H   LIG A   1      -5.319   6.531 130.075  0.00  0.00    +0.149 HD
ATOM      2  N   LIG A   1      -5.517   5.612 130.457  0.00  0.00    -0.311 N 
ATOM      3  C   LIG A   1      -6.247   4.684 129.747  0.00  0.00    +0.224 C 
ATOM      4  O   LIG A   1      -6.797   4.894 128.683  0.00  0.00    -0.275 OA
ATOM      5  C   LIG A   1      -4.915   5.054 131.640  0.00  0.00    +0.082 C 
ATOM      6  C   LIG A   1      -5.906   3.897 131.975  0.00  0.00    +0.036 C 
ATOM      7  C   LIG A   1      -6.222   3.357 130.506  0.00  0.00    +0.101 C 
ATOM      8  C   LIG A   1      -4.994   2.507 129.899  0.00  0.00    +0.215 C 
ATOM      9  C   LIG A   1      -5.125   0.987 129.772  0.00  0.00    +0.017 C 
ATOM     10  C   LIG A   1      -4.585   0.096 130.623  0.00  0.00    +0.014 C 
ATOM     11  C   LIG A   1      -4.592  -1.418 130.628  0.00  0.00    +0.139 C 
ATOM     12  C   LIG A   1      -3.202  -1.870 130.129  0.00  0.00    +0.054 C 
ATOM     13  C   LIG A   1      -7.610   2.664 130.411  0.00  0.00    +0.063 C 
ATOM     14  C   LIG A   1      -7.594   1.312 131.102  0.00  0.00    -0.024 C 
ATOM     15  C   LIG A   1      -8.140   0.212 130.572  0.00  0.00    -0.030 C 
ATOM     16  C   LIG A   1      -7.760  -1.166 131.031  0.00  0.00    +0.037 C 
ATOM     17  C   LIG A   1      -7.155  -1.903 129.825  0.00  0.00    +0.059 C 
ATOM     18  C   LIG A   1      -8.025  -3.142 129.541  0.00  0.00    +0.016 C 
ATOM     19  C   LIG A   1      -5.677  -2.309 129.924  0.00  0.00    +0.171 C 
ATOM     20  O   LIG A   1      -5.333  -3.404 129.450  0.00  0.00    -0.294 OA
ATOM     21  C   LIG A   1      -8.750   3.500 131.024  0.00  0.00    +0.148 C 
ATOM     22  C   LIG A   1      -7.152   4.396 132.814  0.00  0.00    +0.020 C 
ATOM     23  C   LIG A   1      -6.824   4.311 134.320  0.00  0.00    +0.013 C 
ATOM     24  C   LIG A   1      -8.479   3.709 132.492  0.00  0.00    -0.045 C 
ATOM     25  C   LIG A   1      -9.386   3.283 133.393  0.00  0.00    +0.010 C 
ENDROOT
BRANCH  11  26
ATOM     26  O   LIG A   1      -4.675  -1.782 132.018  0.00  0.00    -0.377 OA
ATOM     27  H   LIG A   1      -5.245  -1.118 132.447  0.00  0.00    +0.211 HD
ENDBRANCH  11  26
BRANCH  21  28
ATOM     28  O   LIG A   1      -8.920   4.779 130.434  0.00  0.00    -0.387 OA
ATOM     29  H   LIG A   1      -8.377   4.826 129.623  0.00  0.00    +0.210 HD
ENDBRANCH  21  28
BRANCH   5  30
ATOM     30  C   LIG A   1      -4.561   6.110 132.698  0.00  0.00    +0.057 C 
BRANCH  30  31
ATOM     31  C   LIG A   1      -3.109   6.571 132.710  0.00  0.00    -0.046 A 
ATOM     32  C   LIG A   1      -2.108   5.661 132.338  0.00  0.00    +0.003 A 
ATOM     33  C   LIG A   1      -0.762   6.037 132.333  0.00  0.00    +0.000 A 
ATOM     34  C   LIG A   1      -0.398   7.335 132.683  0.00  0.00    +0.000 A 
ATOM     35  C   LIG A   1      -1.379   8.258 133.027  0.00  0.00    +0.000 A 
ATOM     36  C   LIG A   1      -2.725   7.882 133.032  0.00  0.00    +0.003 A 
ENDBRANCH  30  31
ENDBRANCH   5  30
BRANCH   8  37
ATOM     37  O   LIG A   1      -4.684   2.876 128.530  0.00  0.00    -0.456 OA
BRANCH  37  38
ATOM     38  C   LIG A   1      -3.466   3.432 128.287  0.00  0.00    +0.304 C 
ATOM     39  C   LIG A   1      -2.884   2.879 127.019  0.00  0.00    +0.136 C 
ATOM     40  O   LIG A   1      -2.886   4.226 129.013  0.00  0.00    -0.251 OA
ENDBRANCH  37  38
ENDBRANCH   8  37
TORSDOF 6
ENDMDL
