MODEL 1
REMARK VINA RESULT:      -8.1      0.000      0.000
REMARK  Name = NuBBE_1591
REMARK  12 active torsions:
REMARK  status: ('A' for Active; 'I' for Inactive)
REMARK    1  A    between atoms: C_2  and  C_3
REMARK    2  A    between atoms: C_2  and  O_4
REMARK    3  A    between atoms: O_4  and  C_5
REMARK    4  A    between atoms: C_9  and  C_10
REMARK    5  A    between atoms: C_9  and  C_11
REMARK    6  A    between atoms: C_14  and  O_15
REMARK    7  A    between atoms: O_15  and  C_16
REMARK    8  A    between atoms: C_19  and  C_20
REMARK    9  A    between atoms: C_23  and  O_24
REMARK   10  A    between atoms: O_24  and  C_25
REMARK   11  A    between atoms: C_26  and  O_27
REMARK   12  A    between atoms: O_27  and  C_28
REMARK                            x       y       z     vdW  Elec       q    Type
REMARK                         _______ _______ _______ _____ _____    ______ ____
ROOT
ATOM      1  C   LIG A   1      -6.837  -1.133 128.143  0.00  0.00    +0.157 A 
ATOM      2  C   LIG A   1      -6.666  -1.305 126.756  0.00  0.00    +0.064 A 
ATOM      3  C   LIG A   1      -5.667  -2.199 126.153  0.00  0.00    +0.015 C 
ATOM      4  C   LIG A   1      -5.795  -2.513 124.855  0.00  0.00    +0.020 C 
ATOM      5  C   LIG A   1      -6.966  -2.010 124.051  0.00  0.00    +0.124 C 
ATOM      6  C   LIG A   1      -6.600  -1.795 122.574  0.00  0.00    +0.060 C 
ATOM      7  C   LIG A   1      -8.153  -2.980 124.133  0.00  0.00    +0.060 C 
ATOM      8  O   LIG A   1      -7.379  -0.722 124.525  0.00  0.00    -0.478 OA
ATOM      9  C   LIG A   1      -7.412  -0.500 125.878  0.00  0.00    +0.177 A 
ATOM     10  C   LIG A   1      -8.171   0.586 126.350  0.00  0.00    +0.206 A 
ATOM     11  C   LIG A   1      -8.265   0.797 127.744  0.00  0.00    +0.188 A 
ATOM     12  O   LIG A   1      -8.916   1.941 128.178  0.00  0.00    -0.451 OA
ATOM     13  C   LIG A   1      -8.959   2.203 129.536  0.00  0.00    +0.140 A 
ATOM     14  C   LIG A   1      -8.505   1.391 130.489  0.00  0.00    +0.098 A 
ATOM     15  C   LIG A   1      -7.641  -0.087 128.642  0.00  0.00    +0.111 A 
ATOM     16  C   LIG A   1      -7.771   0.183 130.102  0.00  0.00    +0.197 A 
ATOM     17  O   LIG A   1      -7.250  -0.469 130.978  0.00  0.00    -0.287 OA
ENDROOT
BRANCH  13  18
ATOM     18  C   LIG A   1      -9.461   3.527 129.924  0.00  0.00    +0.021 A 
ATOM     19  C   LIG A   1     -10.768   3.709 130.357  0.00  0.00    +0.015 A 
ATOM     20  C   LIG A   1     -11.189   4.975 130.764  0.00  0.00    +0.050 A 
ATOM     21  C   LIG A   1     -10.305   6.066 130.794  0.00  0.00    +0.162 A 
ATOM     22  C   LIG A   1      -8.973   5.898 130.372  0.00  0.00    +0.162 A 
ATOM     23  C   LIG A   1      -8.576   4.619 129.937  0.00  0.00    +0.061 A 
BRANCH  21  24
ATOM     24  O   LIG A   1     -10.926   7.232 131.154  0.00  0.00    -0.491 OA
ATOM     25  C   LIG A   1     -12.342   7.210 131.262  0.00  0.00    +0.277 C 
ENDBRANCH  21  24
BRANCH  22  26
ATOM     26  O   LIG A   1      -8.116   6.974 130.379  0.00  0.00    -0.491 OA
ATOM     27  C   LIG A   1      -6.937   6.854 131.188  0.00  0.00    +0.277 C 
ENDBRANCH  22  26
ENDBRANCH  13  18
BRANCH  10  28
ATOM     28  O   LIG A   1      -8.850   1.466 125.532  0.00  0.00    -0.488 OA
ATOM     29  C   LIG A   1      -8.098   2.572 125.019  0.00  0.00    +0.277 C 
ENDBRANCH  10  28
BRANCH   1  30
ATOM     30  O   LIG A   1      -6.073  -1.948 129.006  0.00  0.00    -0.424 OA
BRANCH  30  32
ATOM     31  O   LIG A   1      -7.735  -3.594 129.006  0.00  0.00    -0.251 OA
ATOM     32  C   LIG A   1      -6.630  -3.185 129.344  0.00  0.00    +0.309 C 
ATOM     33  C   LIG A   1      -5.640  -3.966 130.161  0.00  0.00    +0.136 C 
ENDBRANCH  30  32
ENDBRANCH   1  30
TORSDOF 6
ENDMDL
MODEL 2
REMARK VINA RESULT:      -8.0      4.363      8.877
REMARK  Name = NuBBE_1591
REMARK  12 active torsions:
REMARK  status: ('A' for Active; 'I' for Inactive)
REMARK    1  A    between atoms: C_2  and  C_3
REMARK    2  A    between atoms: C_2  and  O_4
REMARK    3  A    between atoms: O_4  and  C_5
REMARK    4  A    between atoms: C_9  and  C_10
REMARK    5  A    between atoms: C_9  and  C_11
REMARK    6  A    between atoms: C_14  and  O_15
REMARK    7  A    between atoms: O_15  and  C_16
REMARK    8  A    between atoms: C_19  and  C_20
REMARK    9  A    between atoms: C_23  and  O_24
REMARK   10  A    between atoms: O_24  and  C_25
REMARK   11  A    between atoms: C_26  and  O_27
REMARK   12  A    between atoms: O_27  and  C_28
REMARK                            x       y       z     vdW  Elec       q    Type
REMARK                         _______ _______ _______ _____ _____    ______ ____
ROOT
ATOM      1  C   LIG A   1      -6.251   4.960 130.196  0.00  0.00    +0.157 A 
ATOM      2  C   LIG A   1      -5.047   5.503 130.684  0.00  0.00    +0.064 A 
ATOM      3  C   LIG A   1      -4.927   6.232 131.955  0.00  0.00    +0.015 C 
ATOM      4  C   LIG A   1      -3.700   6.433 132.460  0.00  0.00    +0.020 C 
ATOM      5  C   LIG A   1      -2.481   5.875 131.772  0.00  0.00    +0.124 C 
ATOM      6  C   LIG A   1      -1.244   6.761 131.984  0.00  0.00    +0.060 C 
ATOM      7  C   LIG A   1      -2.167   4.456 132.267  0.00  0.00    +0.060 C 
ATOM      8  O   LIG A   1      -2.681   5.843 130.353  0.00  0.00    -0.478 OA
ATOM      9  C   LIG A   1      -3.903   5.449 129.871  0.00  0.00    +0.177 A 
ATOM     10  C   LIG A   1      -3.981   5.044 128.527  0.00  0.00    +0.206 A 
ATOM     11  C   LIG A   1      -5.218   4.580 128.026  0.00  0.00    +0.188 A 
ATOM     12  O   LIG A   1      -5.299   4.301 126.670  0.00  0.00    -0.451 OA
ATOM     13  C   LIG A   1      -6.519   3.913 126.146  0.00  0.00    +0.140 A 
ATOM     14  C   LIG A   1      -7.623   3.685 126.857  0.00  0.00    +0.098 A 
ATOM     15  C   LIG A   1      -6.340   4.491 128.869  0.00  0.00    +0.111 A 
ATOM     16  C   LIG A   1      -7.621   3.996 128.290  0.00  0.00    +0.197 A 
ATOM     17  O   LIG A   1      -8.668   3.913 128.890  0.00  0.00    -0.287 OA
ENDROOT
BRANCH  13  18
ATOM     18  C   LIG A   1      -6.603   3.846 124.682  0.00  0.00    +0.021 A 
ATOM     19  C   LIG A   1      -5.538   4.228 123.877  0.00  0.00    +0.015 A 
ATOM     20  C   LIG A   1      -5.642   4.102 122.492  0.00  0.00    +0.050 A 
ATOM     21  C   LIG A   1      -6.784   3.549 121.890  0.00  0.00    +0.162 A 
ATOM     22  C   LIG A   1      -7.869   3.145 122.691  0.00  0.00    +0.162 A 
ATOM     23  C   LIG A   1      -7.756   3.308 124.084  0.00  0.00    +0.061 A 
BRANCH  21  24
ATOM     24  O   LIG A   1      -6.721   3.578 120.523  0.00  0.00    -0.491 OA
ATOM     25  C   LIG A   1      -5.956   4.616 119.927  0.00  0.00    +0.277 C 
ENDBRANCH  21  24
BRANCH  22  26
ATOM     26  O   LIG A   1      -8.998   2.627 122.098  0.00  0.00    -0.491 OA
ATOM     27  C   LIG A   1      -9.682   1.588 122.812  0.00  0.00    +0.277 C 
ENDBRANCH  22  26
ENDBRANCH  13  18
BRANCH  10  28
ATOM     28  O   LIG A   1      -2.913   5.057 127.653  0.00  0.00    -0.488 OA
ATOM     29  C   LIG A   1      -2.261   3.804 127.419  0.00  0.00    +0.277 C 
ENDBRANCH  10  28
BRANCH   1  30
ATOM     30  O   LIG A   1      -7.389   5.030 131.029  0.00  0.00    -0.424 OA
BRANCH  30  32
ATOM     31  O   LIG A   1      -7.819   7.225 130.347  0.00  0.00    -0.251 OA
ATOM     32  C   LIG A   1      -8.069   6.251 131.047  0.00  0.00    +0.309 C 
ATOM     33  C   LIG A   1      -9.196   6.174 132.039  0.00  0.00    +0.136 C 
ENDBRANCH  30  32
ENDBRANCH   1  30
TORSDOF 6
ENDMDL
MODEL 3
REMARK VINA RESULT:      -8.0      4.050      7.244
REMARK  Name = NuBBE_1591
REMARK  12 active torsions:
REMARK  status: ('A' for Active; 'I' for Inactive)
REMARK    1  A    between atoms: C_2  and  C_3
REMARK    2  A    between atoms: C_2  and  O_4
REMARK    3  A    between atoms: O_4  and  C_5
REMARK    4  A    between atoms: C_9  and  C_10
REMARK    5  A    between atoms: C_9  and  C_11
REMARK    6  A    between atoms: C_14  and  O_15
REMARK    7  A    between atoms: O_15  and  C_16
REMARK    8  A    between atoms: C_19  and  C_20
REMARK    9  A    between atoms: C_23  and  O_24
REMARK   10  A    between atoms: O_24  and  C_25
REMARK   11  A    between atoms: C_26  and  O_27
REMARK   12  A    between atoms: O_27  and  C_28
REMARK                            x       y       z     vdW  Elec       q    Type
REMARK                         _______ _______ _______ _____ _____    ______ ____
ROOT
ATOM      1  C   LIG A   1      -8.438  -1.595 126.000  0.00  0.00    +0.157 A 
ATOM      2  C   LIG A   1      -7.926  -0.494 125.288  0.00  0.00    +0.064 A 
ATOM      3  C   LIG A   1      -8.246  -0.200 123.883  0.00  0.00    +0.015 C 
ATOM      4  C   LIG A   1      -7.953   1.020 123.406  0.00  0.00    +0.020 C 
ATOM      5  C   LIG A   1      -7.366   2.079 124.303  0.00  0.00    +0.124 C 
ATOM      6  C   LIG A   1      -6.440   3.035 123.534  0.00  0.00    +0.060 C 
ATOM      7  C   LIG A   1      -8.468   2.899 124.987  0.00  0.00    +0.060 C 
ATOM      8  O   LIG A   1      -6.536   1.479 125.305  0.00  0.00    -0.478 OA
ATOM      9  C   LIG A   1      -6.964   0.323 125.906  0.00  0.00    +0.177 A 
ATOM     10  C   LIG A   1      -6.373  -0.043 127.128  0.00  0.00    +0.206 A 
ATOM     11  C   LIG A   1      -6.840  -1.200 127.792  0.00  0.00    +0.188 A 
ATOM     12  O   LIG A   1      -6.161  -1.605 128.931  0.00  0.00    -0.451 OA
ATOM     13  C   LIG A   1      -6.558  -2.774 129.556  0.00  0.00    +0.140 A 
ATOM     14  C   LIG A   1      -7.614  -3.508 129.212  0.00  0.00    +0.098 A 
ATOM     15  C   LIG A   1      -7.902  -1.948 127.256  0.00  0.00    +0.111 A 
ATOM     16  C   LIG A   1      -8.356  -3.160 127.996  0.00  0.00    +0.197 A 
ATOM     17  O   LIG A   1      -9.225  -3.915 127.626  0.00  0.00    -0.287 OA
ENDROOT
BRANCH  13  18
ATOM     18  C   LIG A   1      -5.674  -3.272 130.617  0.00  0.00    +0.021 A 
ATOM     19  C   LIG A   1      -5.826  -4.546 131.148  0.00  0.00    +0.015 A 
ATOM     20  C   LIG A   1      -4.933  -4.999 132.119  0.00  0.00    +0.050 A 
ATOM     21  C   LIG A   1      -3.848  -4.213 132.539  0.00  0.00    +0.162 A 
ATOM     22  C   LIG A   1      -3.669  -2.924 132.002  0.00  0.00    +0.162 A 
ATOM     23  C   LIG A   1      -4.599  -2.475 131.046  0.00  0.00    +0.061 A 
BRANCH  21  24
ATOM     24  O   LIG A   1      -3.132  -4.804 133.546  0.00  0.00    -0.491 OA
ATOM     25  C   LIG A   1      -3.728  -5.913 134.205  0.00  0.00    +0.277 C 
ENDBRANCH  21  24
BRANCH  22  26
ATOM     26  O   LIG A   1      -2.620  -2.146 132.433  0.00  0.00    -0.491 OA
ATOM     27  C   LIG A   1      -2.931  -1.103 133.367  0.00  0.00    +0.277 C 
ENDBRANCH  22  26
ENDBRANCH  13  18
BRANCH  10  28
ATOM     28  O   LIG A   1      -5.360   0.668 127.739  0.00  0.00    -0.488 OA
ATOM     29  C   LIG A   1      -5.759   1.742 128.598  0.00  0.00    +0.277 C 
ENDBRANCH  10  28
BRANCH   1  30
ATOM     30  O   LIG A   1      -9.399  -2.405 125.357  0.00  0.00    -0.424 OA
BRANCH  30  32
ATOM     31  O   LIG A   1      -7.924  -4.059 124.611  0.00  0.00    -0.251 OA
ATOM     32  C   LIG A   1      -8.908  -3.347 124.449  0.00  0.00    +0.309 C 
ATOM     33  C   LIG A   1      -9.805  -3.386 123.243  0.00  0.00    +0.136 C 
ENDBRANCH  30  32
ENDBRANCH   1  30
TORSDOF 6
ENDMDL
MODEL 4
REMARK VINA RESULT:      -7.9      4.206      6.427
REMARK  Name = NuBBE_1591
REMARK  12 active torsions:
REMARK  status: ('A' for Active; 'I' for Inactive)
REMARK    1  A    between atoms: C_2  and  C_3
REMARK    2  A    between atoms: C_2  and  O_4
REMARK    3  A    between atoms: O_4  and  C_5
REMARK    4  A    between atoms: C_9  and  C_10
REMARK    5  A    between atoms: C_9  and  C_11
REMARK    6  A    between atoms: C_14  and  O_15
REMARK    7  A    between atoms: O_15  and  C_16
REMARK    8  A    between atoms: C_19  and  C_20
REMARK    9  A    between atoms: C_23  and  O_24
REMARK   10  A    between atoms: O_24  and  C_25
REMARK   11  A    between atoms: C_26  and  O_27
REMARK   12  A    between atoms: O_27  and  C_28
REMARK                            x       y       z     vdW  Elec       q    Type
REMARK                         _______ _______ _______ _____ _____    ______ ____
ROOT
ATOM      1  C   LIG A   1      -7.029   2.500 124.089  0.00  0.00    +0.157 A 
ATOM      2  C   LIG A   1      -7.395   1.140 124.088  0.00  0.00    +0.064 A 
ATOM      3  C   LIG A   1      -8.555   0.599 123.364  0.00  0.00    +0.015 C 
ATOM      4  C   LIG A   1      -8.631  -0.728 123.185  0.00  0.00    +0.020 C 
ATOM      5  C   LIG A   1      -7.526  -1.636 123.661  0.00  0.00    +0.124 C 
ATOM      6  C   LIG A   1      -8.054  -3.020 124.071  0.00  0.00    +0.060 C 
ATOM      7  C   LIG A   1      -6.451  -1.814 122.580  0.00  0.00    +0.060 C 
ATOM      8  O   LIG A   1      -6.918  -1.102 124.844  0.00  0.00    -0.478 OA
ATOM      9  C   LIG A   1      -6.686   0.249 124.911  0.00  0.00    +0.177 A 
ATOM     10  C   LIG A   1      -5.760   0.713 125.861  0.00  0.00    +0.206 A 
ATOM     11  C   LIG A   1      -5.465   2.094 125.908  0.00  0.00    +0.188 A 
ATOM     12  O   LIG A   1      -4.642   2.541 126.930  0.00  0.00    -0.451 OA
ATOM     13  C   LIG A   1      -4.396   3.898 127.035  0.00  0.00    +0.140 A 
ATOM     14  C   LIG A   1      -4.809   4.823 126.170  0.00  0.00    +0.098 A 
ATOM     15  C   LIG A   1      -6.059   2.980 124.993  0.00  0.00    +0.111 A 
ATOM     16  C   LIG A   1      -5.714   4.427 125.086  0.00  0.00    +0.197 A 
ATOM     17  O   LIG A   1      -6.185   5.300 124.393  0.00  0.00    -0.287 OA
ENDROOT
BRANCH  13  18
ATOM     18  C   LIG A   1      -3.708   4.339 128.255  0.00  0.00    +0.021 A 
ATOM     19  C   LIG A   1      -2.852   5.432 128.250  0.00  0.00    +0.015 A 
ATOM     20  C   LIG A   1      -2.258   5.848 129.441  0.00  0.00    +0.050 A 
ATOM     21  C   LIG A   1      -2.544   5.215 130.662  0.00  0.00    +0.162 A 
ATOM     22  C   LIG A   1      -3.420   4.113 130.689  0.00  0.00    +0.162 A 
ATOM     23  C   LIG A   1      -3.986   3.692 129.471  0.00  0.00    +0.061 A 
BRANCH  21  24
ATOM     24  O   LIG A   1      -1.809   5.723 131.699  0.00  0.00    -0.491 OA
ATOM     25  C   LIG A   1      -2.300   6.896 132.333  0.00  0.00    +0.277 C 
ENDBRANCH  21  24
BRANCH  22  26
ATOM     26  O   LIG A   1      -3.680   3.479 131.882  0.00  0.00    -0.491 OA
ATOM     27  C   LIG A   1      -4.800   3.961 132.638  0.00  0.00    +0.277 C 
ENDBRANCH  22  26
ENDBRANCH  13  18
BRANCH  10  28
ATOM     28  O   LIG A   1      -5.101  -0.103 126.759  0.00  0.00    -0.488 OA
ATOM     29  C   LIG A   1      -5.811  -0.443 127.955  0.00  0.00    +0.277 C 
ENDBRANCH  10  28
BRANCH   1  30
ATOM     30  O   LIG A   1      -7.759   3.378 123.259  0.00  0.00    -0.424 OA
BRANCH  30  32
ATOM     31  O   LIG A   1      -6.227   3.362 121.493  0.00  0.00    -0.251 OA
ATOM     32  C   LIG A   1      -7.375   3.424 121.916  0.00  0.00    +0.309 C 
ATOM     33  C   LIG A   1      -8.602   3.520 121.053  0.00  0.00    +0.136 C 
ENDBRANCH  30  32
ENDBRANCH   1  30
TORSDOF 6
ENDMDL
MODEL 5
REMARK VINA RESULT:      -7.8      2.359      5.046
REMARK  Name = NuBBE_1591
REMARK  12 active torsions:
REMARK  status: ('A' for Active; 'I' for Inactive)
REMARK    1  A    between atoms: C_2  and  C_3
REMARK    2  A    between atoms: C_2  and  O_4
REMARK    3  A    between atoms: O_4  and  C_5
REMARK    4  A    between atoms: C_9  and  C_10
REMARK    5  A    between atoms: C_9  and  C_11
REMARK    6  A    between atoms: C_14  and  O_15
REMARK    7  A    between atoms: O_15  and  C_16
REMARK    8  A    between atoms: C_19  and  C_20
REMARK    9  A    between atoms: C_23  and  O_24
REMARK   10  A    between atoms: O_24  and  C_25
REMARK   11  A    between atoms: C_26  and  O_27
REMARK   12  A    between atoms: O_27  and  C_28
REMARK                            x       y       z     vdW  Elec       q    Type
REMARK                         _______ _______ _______ _____ _____    ______ ____
ROOT
ATOM      1  C   LIG A   1      -8.683   2.172 124.339  0.00  0.00    +0.157 A 
ATOM      2  C   LIG A   1      -8.987   0.823 124.077  0.00  0.00    +0.064 A 
ATOM      3  C   LIG A   1      -9.676   0.353 122.866  0.00  0.00    +0.015 C 
ATOM      4  C   LIG A   1      -9.640  -0.958 122.581  0.00  0.00    +0.020 C 
ATOM      5  C   LIG A   1      -8.864  -1.915 123.449  0.00  0.00    +0.124 C 
ATOM      6  C   LIG A   1      -9.500  -3.314 123.474  0.00  0.00    +0.060 C 
ATOM      7  C   LIG A   1      -7.410  -2.039 122.973  0.00  0.00    +0.060 C 
ATOM      8  O   LIG A   1      -8.876  -1.474 124.812  0.00  0.00    -0.478 OA
ATOM      9  C   LIG A   1      -8.721  -0.135 125.070  0.00  0.00    +0.177 A 
ATOM     10  C   LIG A   1      -8.343   0.247 126.369  0.00  0.00    +0.206 A 
ATOM     11  C   LIG A   1      -8.123   1.615 126.640  0.00  0.00    +0.188 A 
ATOM     12  O   LIG A   1      -7.869   1.977 127.954  0.00  0.00    -0.451 OA
ATOM     13  C   LIG A   1      -7.720   3.320 128.253  0.00  0.00    +0.140 A 
ATOM     14  C   LIG A   1      -7.702   4.308 127.360  0.00  0.00    +0.098 A 
ATOM     15  C   LIG A   1      -8.244   2.572 125.618  0.00  0.00    +0.111 A 
ATOM     16  C   LIG A   1      -8.002   4.004 125.958  0.00  0.00    +0.197 A 
ATOM     17  O   LIG A   1      -8.115   4.929 125.188  0.00  0.00    -0.287 OA
ENDROOT
BRANCH  13  18
ATOM     18  C   LIG A   1      -7.676   3.665 129.680  0.00  0.00    +0.021 A 
ATOM     19  C   LIG A   1      -6.879   2.960 130.572  0.00  0.00    +0.015 A 
ATOM     20  C   LIG A   1      -6.828   3.352 131.909  0.00  0.00    +0.050 A 
ATOM     21  C   LIG A   1      -7.529   4.479 132.369  0.00  0.00    +0.162 A 
ATOM     22  C   LIG A   1      -8.332   5.214 131.477  0.00  0.00    +0.162 A 
ATOM     23  C   LIG A   1      -8.392   4.784 130.138  0.00  0.00    +0.061 A 
BRANCH  21  24
ATOM     24  O   LIG A   1      -7.407   4.654 133.721  0.00  0.00    -0.491 OA
ATOM     25  C   LIG A   1      -6.272   5.370 134.186  0.00  0.00    +0.277 C 
ENDBRANCH  21  24
BRANCH  22  26
ATOM     26  O   LIG A   1      -9.038   6.302 131.934  0.00  0.00    -0.491 OA
ATOM     27  C   LIG A   1     -10.462   6.158 132.020  0.00  0.00    +0.277 C 
ENDBRANCH  22  26
ENDBRANCH  13  18
BRANCH  10  28
ATOM     28  O   LIG A   1      -8.158  -0.640 127.411  0.00  0.00    -0.488 OA
ATOM     29  C   LIG A   1      -6.868  -1.254 127.507  0.00  0.00    +0.277 C 
ENDBRANCH  10  28
BRANCH   1  30
ATOM     30  O   LIG A   1      -8.963   3.117 123.328  0.00  0.00    -0.424 OA
BRANCH  30  32
ATOM     31  O   LIG A   1      -6.819   3.030 122.397  0.00  0.00    -0.251 OA
ATOM     32  C   LIG A   1      -8.026   3.217 122.295  0.00  0.00    +0.309 C 
ATOM     33  C   LIG A   1      -8.737   3.550 121.014  0.00  0.00    +0.136 C 
ENDBRANCH  30  32
ENDBRANCH   1  30
TORSDOF 6
ENDMDL
MODEL 6
REMARK VINA RESULT:      -7.7      2.629      5.214
REMARK  Name = NuBBE_1591
REMARK  12 active torsions:
REMARK  status: ('A' for Active; 'I' for Inactive)
REMARK    1  A    between atoms: C_2  and  C_3
REMARK    2  A    between atoms: C_2  and  O_4
REMARK    3  A    between atoms: O_4  and  C_5
REMARK    4  A    between atoms: C_9  and  C_10
REMARK    5  A    between atoms: C_9  and  C_11
REMARK    6  A    between atoms: C_14  and  O_15
REMARK    7  A    between atoms: O_15  and  C_16
REMARK    8  A    between atoms: C_19  and  C_20
REMARK    9  A    between atoms: C_23  and  O_24
REMARK   10  A    between atoms: O_24  and  C_25
REMARK   11  A    between atoms: C_26  and  O_27
REMARK   12  A    between atoms: O_27  and  C_28
REMARK                            x       y       z     vdW  Elec       q    Type
REMARK                         _______ _______ _______ _____ _____    ______ ____
ROOT
ATOM      1  C   LIG A   1      -8.661   2.175 124.248  0.00  0.00    +0.157 A 
ATOM      2  C   LIG A   1      -8.993   0.831 123.991  0.00  0.00    +0.064 A 
ATOM      3  C   LIG A   1      -9.737   0.376 122.808  0.00  0.00    +0.015 C 
ATOM      4  C   LIG A   1      -9.730  -0.933 122.515  0.00  0.00    +0.020 C 
ATOM      5  C   LIG A   1      -8.929  -1.904 123.344  0.00  0.00    +0.124 C 
ATOM      6  C   LIG A   1      -9.580  -3.296 123.389  0.00  0.00    +0.060 C 
ATOM      7  C   LIG A   1      -7.498  -2.043 122.807  0.00  0.00    +0.060 C 
ATOM      8  O   LIG A   1      -8.878  -1.471 124.709  0.00  0.00    -0.478 OA
ATOM      9  C   LIG A   1      -8.697  -0.136 124.967  0.00  0.00    +0.177 A 
ATOM     10  C   LIG A   1      -8.260   0.234 126.251  0.00  0.00    +0.206 A 
ATOM     11  C   LIG A   1      -8.013   1.599 126.520  0.00  0.00    +0.188 A 
ATOM     12  O   LIG A   1      -7.700   1.950 127.825  0.00  0.00    -0.451 OA
ATOM     13  C   LIG A   1      -7.522   3.289 128.124  0.00  0.00    +0.140 A 
ATOM     14  C   LIG A   1      -7.530   4.282 127.237  0.00  0.00    +0.098 A 
ATOM     15  C   LIG A   1      -8.165   2.563 125.509  0.00  0.00    +0.111 A 
ATOM     16  C   LIG A   1      -7.892   3.989 125.846  0.00  0.00    +0.197 A 
ATOM     17  O   LIG A   1      -8.026   4.921 125.087  0.00  0.00    -0.287 OA
ENDROOT
BRANCH  13  18
ATOM     18  C   LIG A   1      -7.414   3.625 129.549  0.00  0.00    +0.021 A 
ATOM     19  C   LIG A   1      -6.611   4.669 129.990  0.00  0.00    +0.015 A 
ATOM     20  C   LIG A   1      -6.577   4.986 131.347  0.00  0.00    +0.050 A 
ATOM     21  C   LIG A   1      -7.376   4.304 132.279  0.00  0.00    +0.162 A 
ATOM     22  C   LIG A   1      -8.206   3.251 131.850  0.00  0.00    +0.162 A 
ATOM     23  C   LIG A   1      -8.204   2.928 130.480  0.00  0.00    +0.061 A 
BRANCH  21  24
ATOM     24  O   LIG A   1      -7.146   4.714 133.565  0.00  0.00    -0.491 OA
ATOM     25  C   LIG A   1      -8.039   5.674 134.113  0.00  0.00    +0.277 C 
ENDBRANCH  21  24
BRANCH  22  26
ATOM     26  O   LIG A   1      -8.970   2.568 132.768  0.00  0.00    -0.491 OA
ATOM     27  C   LIG A   1      -9.902   1.611 132.246  0.00  0.00    +0.277 C 
ENDBRANCH  22  26
ENDBRANCH  13  18
BRANCH  10  28
ATOM     28  O   LIG A   1      -8.042  -0.660 127.280  0.00  0.00    -0.488 OA
ATOM     29  C   LIG A   1      -6.758  -1.292 127.317  0.00  0.00    +0.277 C 
ENDBRANCH  10  28
BRANCH   1  30
ATOM     30  O   LIG A   1      -8.973   3.129 123.255  0.00  0.00    -0.424 OA
BRANCH  30  32
ATOM     31  O   LIG A   1      -6.847   3.089 122.281  0.00  0.00    -0.251 OA
ATOM     32  C   LIG A   1      -8.059   3.251 122.204  0.00  0.00    +0.309 C 
ATOM     33  C   LIG A   1      -8.801   3.573 120.937  0.00  0.00    +0.136 C 
ENDBRANCH  30  32
ENDBRANCH   1  30
TORSDOF 6
ENDMDL
MODEL 7
REMARK VINA RESULT:      -7.6      3.705      7.308
REMARK  Name = NuBBE_1591
REMARK  12 active torsions:
REMARK  status: ('A' for Active; 'I' for Inactive)
REMARK    1  A    between atoms: C_2  and  C_3
REMARK    2  A    between atoms: C_2  and  O_4
REMARK    3  A    between atoms: O_4  and  C_5
REMARK    4  A    between atoms: C_9  and  C_10
REMARK    5  A    between atoms: C_9  and  C_11
REMARK    6  A    between atoms: C_14  and  O_15
REMARK    7  A    between atoms: O_15  and  C_16
REMARK    8  A    between atoms: C_19  and  C_20
REMARK    9  A    between atoms: C_23  and  O_24
REMARK   10  A    between atoms: O_24  and  C_25
REMARK   11  A    between atoms: C_26  and  O_27
REMARK   12  A    between atoms: O_27  and  C_28
REMARK                            x       y       z     vdW  Elec       q    Type
REMARK                         _______ _______ _______ _____ _____    ______ ____
ROOT
ATOM      1  C   LIG A   1      -8.153  -1.044 125.605  0.00  0.00    +0.157 A 
ATOM      2  C   LIG A   1      -7.467   0.129 125.236  0.00  0.00    +0.064 A 
ATOM      3  C   LIG A   1      -7.381   0.635 123.858  0.00  0.00    +0.015 C 
ATOM      4  C   LIG A   1      -6.973   1.899 123.669  0.00  0.00    +0.020 C 
ATOM      5  C   LIG A   1      -6.668   2.795 124.842  0.00  0.00    +0.124 C 
ATOM      6  C   LIG A   1      -5.568   3.818 124.514  0.00  0.00    +0.060 C 
ATOM      7  C   LIG A   1      -7.923   3.547 125.306  0.00  0.00    +0.060 C 
ATOM      8  O   LIG A   1      -6.150   2.027 125.935  0.00  0.00    -0.478 OA
ATOM      9  C   LIG A   1      -6.723   0.812 126.213  0.00  0.00    +0.177 A 
ATOM     10  C   LIG A   1      -6.498   0.251 127.482  0.00  0.00    +0.206 A 
ATOM     11  C   LIG A   1      -7.126  -0.971 127.809  0.00  0.00    +0.188 A 
ATOM     12  O   LIG A   1      -6.792  -1.562 129.018  0.00  0.00    -0.451 OA
ATOM     13  C   LIG A   1      -7.343  -2.793 129.327  0.00  0.00    +0.140 A 
ATOM     14  C   LIG A   1      -8.256  -3.431 128.596  0.00  0.00    +0.098 A 
ATOM     15  C   LIG A   1      -7.990  -1.595 126.893  0.00  0.00    +0.111 A 
ATOM     16  C   LIG A   1      -8.627  -2.884 127.287  0.00  0.00    +0.197 A 
ATOM     17  O   LIG A   1      -9.353  -3.545 126.581  0.00  0.00    -0.287 OA
ENDROOT
BRANCH  13  18
ATOM     18  C   LIG A   1      -6.790  -3.472 130.505  0.00  0.00    +0.021 A 
ATOM     19  C   LIG A   1      -5.865  -4.501 130.382  0.00  0.00    +0.015 A 
ATOM     20  C   LIG A   1      -5.327  -5.085 131.528  0.00  0.00    +0.050 A 
ATOM     21  C   LIG A   1      -5.662  -4.623 132.811  0.00  0.00    +0.162 A 
ATOM     22  C   LIG A   1      -6.587  -3.573 132.956  0.00  0.00    +0.162 A 
ATOM     23  C   LIG A   1      -7.141  -3.017 131.787  0.00  0.00    +0.061 A 
BRANCH  21  24
ATOM     24  O   LIG A   1      -5.086  -5.371 133.803  0.00  0.00    -0.491 OA
ATOM     25  C   LIG A   1      -3.895  -4.867 134.391  0.00  0.00    +0.277 C 
ENDBRANCH  21  24
BRANCH  22  26
ATOM     26  O   LIG A   1      -6.933  -3.138 134.215  0.00  0.00    -0.491 OA
ATOM     27  C   LIG A   1      -8.268  -3.427 134.653  0.00  0.00    +0.277 C 
ENDBRANCH  22  26
ENDBRANCH  13  18
BRANCH  10  28
ATOM     28  O   LIG A   1      -5.701   0.829 128.451  0.00  0.00    -0.488 OA
ATOM     29  C   LIG A   1      -6.331   1.785 129.311  0.00  0.00    +0.277 C 
ENDBRANCH  10  28
BRANCH   1  30
ATOM     30  O   LIG A   1      -8.890  -1.716 124.606  0.00  0.00    -0.424 OA
BRANCH  30  32
ATOM     31  O   LIG A   1      -7.198  -3.216 124.008  0.00  0.00    -0.251 OA
ATOM     32  C   LIG A   1      -8.153  -2.505 123.718  0.00  0.00    +0.309 C 
ATOM     33  C   LIG A   1      -8.743  -2.383 122.341  0.00  0.00    +0.136 C 
ENDBRANCH  30  32
ENDBRANCH   1  30
TORSDOF 6
ENDMDL
MODEL 8
REMARK VINA RESULT:      -7.6      2.884      8.782
REMARK  Name = NuBBE_1591
REMARK  12 active torsions:
REMARK  status: ('A' for Active; 'I' for Inactive)
REMARK    1  A    between atoms: C_2  and  C_3
REMARK    2  A    between atoms: C_2  and  O_4
REMARK    3  A    between atoms: O_4  and  C_5
REMARK    4  A    between atoms: C_9  and  C_10
REMARK    5  A    between atoms: C_9  and  C_11
REMARK    6  A    between atoms: C_14  and  O_15
REMARK    7  A    between atoms: O_15  and  C_16
REMARK    8  A    between atoms: C_19  and  C_20
REMARK    9  A    between atoms: C_23  and  O_24
REMARK   10  A    between atoms: O_24  and  C_25
REMARK   11  A    between atoms: C_26  and  O_27
REMARK   12  A    between atoms: O_27  and  C_28
REMARK                            x       y       z     vdW  Elec       q    Type
REMARK                         _______ _______ _______ _____ _____    ______ ____
ROOT
ATOM      1  C   LIG A   1      -4.878   4.171 128.921  0.00  0.00    +0.157 A 
ATOM      2  C   LIG A   1      -5.558   4.555 130.092  0.00  0.00    +0.064 A 
ATOM      3  C   LIG A   1      -4.950   5.331 131.183  0.00  0.00    +0.015 C 
ATOM      4  C   LIG A   1      -5.759   5.894 132.092  0.00  0.00    +0.020 C 
ATOM      5  C   LIG A   1      -7.257   5.784 131.965  0.00  0.00    +0.124 C 
ATOM      6  C   LIG A   1      -7.952   5.773 133.336  0.00  0.00    +0.060 C 
ATOM      7  C   LIG A   1      -7.829   6.936 131.128  0.00  0.00    +0.060 C 
ATOM      8  O   LIG A   1      -7.615   4.537 131.355  0.00  0.00    -0.478 OA
ATOM      9  C   LIG A   1      -6.866   4.085 130.299  0.00  0.00    +0.177 A 
ATOM     10  C   LIG A   1      -7.428   3.101 129.466  0.00  0.00    +0.206 A 
ATOM     11  C   LIG A   1      -6.697   2.663 128.339  0.00  0.00    +0.188 A 
ATOM     12  O   LIG A   1      -7.218   1.609 127.605  0.00  0.00    -0.451 OA
ATOM     13  C   LIG A   1      -6.484   1.119 126.539  0.00  0.00    +0.140 A 
ATOM     14  C   LIG A   1      -5.344   1.639 126.087  0.00  0.00    +0.098 A 
ATOM     15  C   LIG A   1      -5.446   3.230 128.038  0.00  0.00    +0.111 A 
ATOM     16  C   LIG A   1      -4.715   2.731 126.838  0.00  0.00    +0.197 A 
ATOM     17  O   LIG A   1      -3.617   3.099 126.491  0.00  0.00    -0.287 OA
ENDROOT
BRANCH  13  18
ATOM     18  C   LIG A   1      -6.970  -0.129 125.939  0.00  0.00    +0.021 A 
ATOM     19  C   LIG A   1      -8.162  -0.714 126.345  0.00  0.00    +0.015 A 
ATOM     20  C   LIG A   1      -8.613  -1.873 125.714  0.00  0.00    +0.050 A 
ATOM     21  C   LIG A   1      -7.911  -2.439 124.637  0.00  0.00    +0.162 A 
ATOM     22  C   LIG A   1      -6.708  -1.854 124.201  0.00  0.00    +0.162 A 
ATOM     23  C   LIG A   1      -6.256  -0.702 124.872  0.00  0.00    +0.061 A 
BRANCH  21  24
ATOM     24  O   LIG A   1      -8.476  -3.608 124.202  0.00  0.00    -0.491 OA
ATOM     25  C   LIG A   1      -9.630  -3.509 123.381  0.00  0.00    +0.277 C 
ENDBRANCH  21  24
BRANCH  22  26
ATOM     26  O   LIG A   1      -6.009  -2.424 123.162  0.00  0.00    -0.491 OA
ATOM     27  C   LIG A   1      -4.888  -3.247 123.514  0.00  0.00    +0.277 C 
ENDBRANCH  22  26
ENDBRANCH  13  18
BRANCH  10  28
ATOM     28  O   LIG A   1      -8.669   2.533 129.671  0.00  0.00    -0.488 OA
ATOM     29  C   LIG A   1      -8.744   1.495 130.654  0.00  0.00    +0.277 C 
ENDBRANCH  10  28
BRANCH   1  30
ATOM     30  O   LIG A   1      -3.563   4.651 128.737  0.00  0.00    -0.424 OA
BRANCH  30  32
ATOM     31  O   LIG A   1      -4.260   6.460 127.430  0.00  0.00    -0.251 OA
ATOM     32  C   LIG A   1      -3.441   5.920 128.163  0.00  0.00    +0.309 C 
ATOM     33  C   LIG A   1      -2.154   6.548 128.621  0.00  0.00    +0.136 C 
ENDBRANCH  30  32
ENDBRANCH   1  30
TORSDOF 6
ENDMDL
MODEL 9
REMARK VINA RESULT:      -7.6      4.055      5.794
REMARK  Name = NuBBE_1591
REMARK  12 active torsions:
REMARK  status: ('A' for Active; 'I' for Inactive)
REMARK    1  A    between atoms: C_2  and  C_3
REMARK    2  A    between atoms: C_2  and  O_4
REMARK    3  A    between atoms: O_4  and  C_5
REMARK    4  A    between atoms: C_9  and  C_10
REMARK    5  A    between atoms: C_9  and  C_11
REMARK    6  A    between atoms: C_14  and  O_15
REMARK    7  A    between atoms: O_15  and  C_16
REMARK    8  A    between atoms: C_19  and  C_20
REMARK    9  A    between atoms: C_23  and  O_24
REMARK   10  A    between atoms: O_24  and  C_25
REMARK   11  A    between atoms: C_26  and  O_27
REMARK   12  A    between atoms: O_27  and  C_28
REMARK                            x       y       z     vdW  Elec       q    Type
REMARK                         _______ _______ _______ _____ _____    ______ ____
ROOT
ATOM      1  C   LIG A   1      -6.396   1.783 124.264  0.00  0.00    +0.157 A 
ATOM      2  C   LIG A   1      -6.811   0.438 124.303  0.00  0.00    +0.064 A 
ATOM      3  C   LIG A   1      -7.774  -0.156 123.363  0.00  0.00    +0.015 C 
ATOM      4  C   LIG A   1      -7.861  -1.493 123.301  0.00  0.00    +0.020 C 
ATOM      5  C   LIG A   1      -6.954  -2.365 124.131  0.00  0.00    +0.124 C 
ATOM      6  C   LIG A   1      -7.630  -3.687 124.526  0.00  0.00    +0.060 C 
ATOM      7  C   LIG A   1      -5.650  -2.677 123.385  0.00  0.00    +0.060 C 
ATOM      8  O   LIG A   1      -6.641  -1.719 125.372  0.00  0.00    -0.478 OA
ATOM      9  C   LIG A   1      -6.374  -0.374 125.363  0.00  0.00    +0.177 A 
ATOM     10  C   LIG A   1      -5.698   0.172 126.469  0.00  0.00    +0.206 A 
ATOM     11  C   LIG A   1      -5.362   1.544 126.454  0.00  0.00    +0.188 A 
ATOM     12  O   LIG A   1      -4.806   2.082 127.604  0.00  0.00    -0.451 OA
ATOM     13  C   LIG A   1      -4.534   3.438 127.634  0.00  0.00    +0.140 A 
ATOM     14  C   LIG A   1      -4.672   4.273 126.606  0.00  0.00    +0.098 A 
ATOM     15  C   LIG A   1      -5.666   2.339 125.335  0.00  0.00    +0.111 A 
ATOM     16  C   LIG A   1      -5.290   3.781 125.370  0.00  0.00    +0.197 A 
ATOM     17  O   LIG A   1      -5.531   4.583 124.498  0.00  0.00    -0.287 OA
ENDROOT
BRANCH  13  18
ATOM     18  C   LIG A   1      -4.157   3.993 128.940  0.00  0.00    +0.021 A 
ATOM     19  C   LIG A   1      -4.032   3.185 130.063  0.00  0.00    +0.015 A 
ATOM     20  C   LIG A   1      -3.623   3.745 131.273  0.00  0.00    +0.050 A 
ATOM     21  C   LIG A   1      -3.285   5.105 131.373  0.00  0.00    +0.162 A 
ATOM     22  C   LIG A   1      -3.394   5.937 130.244  0.00  0.00    +0.162 A 
ATOM     23  C   LIG A   1      -3.836   5.358 129.039  0.00  0.00    +0.061 A 
BRANCH  21  24
ATOM     24  O   LIG A   1      -2.979   5.474 132.656  0.00  0.00    -0.491 OA
ATOM     25  C   LIG A   1      -4.063   5.754 133.530  0.00  0.00    +0.277 C 
ENDBRANCH  21  24
BRANCH  22  26
ATOM     26  O   LIG A   1      -3.087   7.274 130.350  0.00  0.00    -0.491 OA
ATOM     27  C   LIG A   1      -3.957   8.192 129.674  0.00  0.00    +0.277 C 
ENDBRANCH  22  26
ENDBRANCH  13  18
BRANCH  10  28
ATOM     28  O   LIG A   1      -5.325  -0.556 127.581  0.00  0.00    -0.488 OA
ATOM     29  C   LIG A   1      -6.328  -0.754 128.583  0.00  0.00    +0.277 C 
ENDBRANCH  10  28
BRANCH   1  30
ATOM     30  O   LIG A   1      -6.853   2.581 123.193  0.00  0.00    -0.424 OA
BRANCH  30  32
ATOM     31  O   LIG A   1      -8.763   3.355 124.298  0.00  0.00    -0.251 OA
ATOM     32  C   LIG A   1      -8.174   3.030 123.274  0.00  0.00    +0.309 C 
ATOM     33  C   LIG A   1      -8.760   3.096 121.891  0.00  0.00    +0.136 C 
ENDBRANCH  30  32
ENDBRANCH   1  30
TORSDOF 6
ENDMDL
