MODEL 1
REMARK VINA RESULT:      -7.8      0.000      0.000
REMARK  Name = NuBBE_1768
REMARK  4 active torsions:
REMARK  status: ('A' for Active; 'I' for Inactive)
REMARK    1  A    between atoms: O_1  and  C_2
REMARK    2  A    between atoms: C_13  and  O_17
REMARK    3  A    between atoms: C_14  and  O_16
REMARK    4  A    between atoms: C_23  and  O_25
REMARK                            x       y       z     vdW  Elec       q    Type
REMARK                         _______ _______ _______ _____ _____    ______ ____
ROOT
ATOM      1  C   LIG A   1     -11.367   6.914 131.255  0.00  0.00    +0.181 C 
ATOM      2  C   LIG A   1      -9.999   6.389 131.693  0.00  0.00    +0.197 C 
ATOM      3  C   LIG A   1      -8.925   6.991 130.784  0.00  0.00    +0.235 C 
ATOM      4  C   LIG A   1      -7.577   6.441 131.204  0.00  0.00    +0.004 A 
ATOM      5  C   LIG A   1      -7.510   5.199 131.874  0.00  0.00    -0.011 A 
ATOM      6  C   LIG A   1      -8.768   4.416 132.187  0.00  0.00    +0.196 C 
ATOM      7  O   LIG A   1      -9.968   4.945 131.606  0.00  0.00    -0.365 OA
ATOM      8  C   LIG A   1      -6.266   4.714 132.313  0.00  0.00    +0.055 A 
ATOM      9  C   LIG A   1      -5.116   5.458 132.075  0.00  0.00    +0.159 A 
ATOM     10  C   LIG A   1      -5.188   6.670 131.394  0.00  0.00    +0.159 A 
ATOM     11  C   LIG A   1      -6.403   7.164 130.946  0.00  0.00    +0.057 A 
ATOM     12  O   LIG A   1      -9.120   6.658 129.401  0.00  0.00    -0.481 OA
ATOM     13  C   LIG A   1     -10.387   6.883 128.932  0.00  0.00    +0.131 A 
ATOM     14  C   LIG A   1     -11.506   7.011 129.762  0.00  0.00    +0.025 A 
ATOM     15  C   LIG A   1     -12.759   7.277 129.185  0.00  0.00    +0.013 A 
ATOM     16  C   LIG A   1     -12.897   7.381 127.802  0.00  0.00    +0.046 A 
ATOM     17  C   LIG A   1     -11.780   7.210 126.991  0.00  0.00    +0.120 A 
ATOM     18  C   LIG A   1     -10.530   6.958 127.545  0.00  0.00    +0.091 A 
ENDROOT
BRANCH   1  19
ATOM     19  O   LIG A   1     -12.398   6.085 131.797  0.00  0.00    -0.384 OA
ATOM     20  H   LIG A   1     -12.879   5.752 131.013  0.00  0.00    +0.210 HD
ENDBRANCH   1  19
BRANCH  10  21
ATOM     21  O   LIG A   1      -4.054   7.398 131.176  0.00  0.00    -0.503 OA
ATOM     22  H   LIG A   1      -3.523   7.274 131.989  0.00  0.00    +0.292 HD
ENDBRANCH  10  21
BRANCH   9  23
ATOM     23  O   LIG A   1      -3.884   5.044 132.504  0.00  0.00    -0.503 OA
ATOM     24  H   LIG A   1      -3.326   4.888 131.724  0.00  0.00    +0.292 HD
ENDBRANCH   9  23
BRANCH  17  25
ATOM     25  O   LIG A   1     -11.875   7.297 125.634  0.00  0.00    -0.507 OA
ATOM     26  H   LIG A   1     -11.414   8.097 125.340  0.00  0.00    +0.292 HD
ENDBRANCH  17  25
TORSDOF 4
ENDMDL
MODEL 2
REMARK VINA RESULT:      -7.5      8.105      9.571
REMARK  Name = NuBBE_1768
REMARK  4 active torsions:
REMARK  status: ('A' for Active; 'I' for Inactive)
REMARK    1  A    between atoms: O_1  and  C_2
REMARK    2  A    between atoms: C_13  and  O_17
REMARK    3  A    between atoms: C_14  and  O_16
REMARK    4  A    between atoms: C_23  and  O_25
REMARK                            x       y       z     vdW  Elec       q    Type
REMARK                         _______ _______ _______ _____ _____    ______ ____
ROOT
ATOM      1  C   LIG A   1      -8.777   1.694 125.481  0.00  0.00    +0.181 C 
ATOM      2  C   LIG A   1      -7.808   2.684 124.833  0.00  0.00    +0.197 C 
ATOM      3  C   LIG A   1      -7.554   2.252 123.387  0.00  0.00    +0.235 C 
ATOM      4  C   LIG A   1      -6.570   3.219 122.763  0.00  0.00    +0.004 A 
ATOM      5  C   LIG A   1      -5.681   3.941 123.591  0.00  0.00    -0.011 A 
ATOM      6  C   LIG A   1      -5.708   3.767 125.096  0.00  0.00    +0.196 C 
ATOM      7  O   LIG A   1      -6.561   2.715 125.566  0.00  0.00    -0.365 OA
ATOM      8  C   LIG A   1      -4.806   4.879 123.019  0.00  0.00    +0.055 A 
ATOM      9  C   LIG A   1      -4.819   5.080 121.643  0.00  0.00    +0.159 A 
ATOM     10  C   LIG A   1      -5.681   4.349 120.831  0.00  0.00    +0.159 A 
ATOM     11  C   LIG A   1      -6.548   3.413 121.374  0.00  0.00    +0.057 A 
ATOM     12  O   LIG A   1      -6.991   0.935 123.294  0.00  0.00    -0.481 OA
ATOM     13  C   LIG A   1      -7.651  -0.022 124.017  0.00  0.00    +0.131 A 
ATOM     14  C   LIG A   1      -8.515   0.270 125.077  0.00  0.00    +0.025 A 
ATOM     15  C   LIG A   1      -9.175  -0.783 125.734  0.00  0.00    +0.013 A 
ATOM     16  C   LIG A   1      -8.949  -2.106 125.358  0.00  0.00    +0.046 A 
ATOM     17  C   LIG A   1      -8.055  -2.380 124.328  0.00  0.00    +0.120 A 
ATOM     18  C   LIG A   1      -7.403  -1.349 123.660  0.00  0.00    +0.091 A 
ENDROOT
BRANCH   1  19
ATOM     19  O   LIG A   1      -8.719   1.824 126.904  0.00  0.00    -0.384 OA
ATOM     20  H   LIG A   1      -7.857   1.433 127.149  0.00  0.00    +0.210 HD
ENDBRANCH   1  19
BRANCH  10  21
ATOM     21  O   LIG A   1      -5.694   4.563 119.482  0.00  0.00    -0.503 OA
ATOM     22  H   LIG A   1      -5.501   5.517 119.384  0.00  0.00    +0.292 HD
ENDBRANCH  10  21
BRANCH   9  23
ATOM     23  O   LIG A   1      -4.006   5.999 121.038  0.00  0.00    -0.503 OA
ATOM     24  H   LIG A   1      -3.397   6.356 121.706  0.00  0.00    +0.292 HD
ENDBRANCH   9  23
BRANCH  17  25
ATOM     25  O   LIG A   1      -7.802  -3.661 123.937  0.00  0.00    -0.507 OA
ATOM     26  H   LIG A   1      -8.645  -4.128 123.836  0.00  0.00    +0.292 HD
ENDBRANCH  17  25
TORSDOF 4
ENDMDL
MODEL 3
REMARK VINA RESULT:      -7.4      7.664      9.351
REMARK  Name = NuBBE_1768
REMARK  4 active torsions:
REMARK  status: ('A' for Active; 'I' for Inactive)
REMARK    1  A    between atoms: O_1  and  C_2
REMARK    2  A    between atoms: C_13  and  O_17
REMARK    3  A    between atoms: C_14  and  O_16
REMARK    4  A    between atoms: C_23  and  O_25
REMARK                            x       y       z     vdW  Elec       q    Type
REMARK                         _______ _______ _______ _____ _____    ______ ____
ROOT
ATOM      1  C   LIG A   1      -8.560  -2.054 125.035  0.00  0.00    +0.181 C 
ATOM      2  C   LIG A   1      -8.357  -0.565 124.753  0.00  0.00    +0.197 C 
ATOM      3  C   LIG A   1      -7.208  -0.050 125.623  0.00  0.00    +0.235 C 
ATOM      4  C   LIG A   1      -7.035   1.432 125.360  0.00  0.00    +0.004 A 
ATOM      5  C   LIG A   1      -8.128   2.188 124.881  0.00  0.00    -0.011 A 
ATOM      6  C   LIG A   1      -9.468   1.532 124.616  0.00  0.00    +0.196 C 
ATOM      7  O   LIG A   1      -9.568   0.169 125.047  0.00  0.00    -0.365 OA
ATOM      8  C   LIG A   1      -7.954   3.550 124.584  0.00  0.00    +0.055 A 
ATOM      9  C   LIG A   1      -6.709   4.140 124.774  0.00  0.00    +0.159 A 
ATOM     10  C   LIG A   1      -5.643   3.394 125.269  0.00  0.00    +0.159 A 
ATOM     11  C   LIG A   1      -5.795   2.051 125.575  0.00  0.00    +0.057 A 
ATOM     12  O   LIG A   1      -7.459  -0.218 127.026  0.00  0.00    -0.481 OA
ATOM     13  C   LIG A   1      -7.865  -1.475 127.388  0.00  0.00    +0.131 A 
ATOM     14  C   LIG A   1      -8.404  -2.400 126.489  0.00  0.00    +0.025 A 
ATOM     15  C   LIG A   1      -8.758  -3.679 126.952  0.00  0.00    +0.013 A 
ATOM     16  C   LIG A   1      -8.605  -4.015 128.297  0.00  0.00    +0.046 A 
ATOM     17  C   LIG A   1      -8.105  -3.067 129.183  0.00  0.00    +0.120 A 
ATOM     18  C   LIG A   1      -7.739  -1.801 128.740  0.00  0.00    +0.091 A 
ENDROOT
BRANCH   1  19
ATOM     19  O   LIG A   1      -9.847  -2.463 124.563  0.00  0.00    -0.384 OA
ATOM     20  H   LIG A   1      -9.651  -3.076 123.826  0.00  0.00    +0.210 HD
ENDBRANCH   1  19
BRANCH  10  21
ATOM     21  O   LIG A   1      -4.422   3.982 125.441  0.00  0.00    -0.503 OA
ATOM     22  H   LIG A   1      -4.278   4.492 124.619  0.00  0.00    +0.292 HD
ENDBRANCH  10  21
BRANCH   9  23
ATOM     23  O   LIG A   1      -6.479   5.456 124.477  0.00  0.00    -0.503 OA
ATOM     24  H   LIG A   1      -5.995   5.856 125.219  0.00  0.00    +0.292 HD
ENDBRANCH   9  23
BRANCH  17  25
ATOM     25  O   LIG A   1      -7.948  -3.354 130.507  0.00  0.00    -0.507 OA
ATOM     26  H   LIG A   1      -8.635  -3.985 130.772  0.00  0.00    +0.292 HD
ENDBRANCH  17  25
TORSDOF 4
ENDMDL
MODEL 4
REMARK VINA RESULT:      -7.2      1.731      2.070
REMARK  Name = NuBBE_1768
REMARK  4 active torsions:
REMARK  status: ('A' for Active; 'I' for Inactive)
REMARK    1  A    between atoms: O_1  and  C_2
REMARK    2  A    between atoms: C_13  and  O_17
REMARK    3  A    between atoms: C_14  and  O_16
REMARK    4  A    between atoms: C_23  and  O_25
REMARK                            x       y       z     vdW  Elec       q    Type
REMARK                         _______ _______ _______ _____ _____    ______ ____
ROOT
ATOM      1  C   LIG A   1     -10.211   5.170 131.435  0.00  0.00    +0.181 C 
ATOM      2  C   LIG A   1      -8.718   4.975 131.161  0.00  0.00    +0.197 C 
ATOM      3  C   LIG A   1      -8.062   6.348 131.002  0.00  0.00    +0.235 C 
ATOM      4  C   LIG A   1      -6.592   6.145 130.700  0.00  0.00    +0.004 A 
ATOM      5  C   LIG A   1      -6.162   4.935 130.109  0.00  0.00    -0.011 A 
ATOM      6  C   LIG A   1      -7.152   3.836 129.783  0.00  0.00    +0.196 C 
ATOM      7  O   LIG A   1      -8.529   4.193 129.960  0.00  0.00    -0.365 OA
ATOM      8  C   LIG A   1      -4.793   4.722 129.880  0.00  0.00    +0.055 A 
ATOM      9  C   LIG A   1      -3.876   5.709 130.229  0.00  0.00    +0.159 A 
ATOM     10  C   LIG A   1      -4.310   6.907 130.790  0.00  0.00    +0.159 A 
ATOM     11  C   LIG A   1      -5.657   7.140 131.018  0.00  0.00    +0.057 A 
ATOM     12  O   LIG A   1      -8.627   7.109 129.924  0.00  0.00    -0.481 OA
ATOM     13  C   LIG A   1      -9.995   7.181 129.930  0.00  0.00    +0.131 A 
ATOM     14  C   LIG A   1     -10.812   6.285 130.627  0.00  0.00    +0.025 A 
ATOM     15  C   LIG A   1     -12.205   6.466 130.601  0.00  0.00    +0.013 A 
ATOM     16  C   LIG A   1     -12.773   7.505 129.865  0.00  0.00    +0.046 A 
ATOM     17  C   LIG A   1     -11.946   8.362 129.146  0.00  0.00    +0.120 A 
ATOM     18  C   LIG A   1     -10.565   8.204 129.170  0.00  0.00    +0.091 A 
ENDROOT
BRANCH   1  19
ATOM     19  O   LIG A   1     -10.910   3.947 131.190  0.00  0.00    -0.384 OA
ATOM     20  H   LIG A   1     -11.550   3.882 131.927  0.00  0.00    +0.210 HD
ENDBRANCH   1  19
BRANCH  10  21
ATOM     21  O   LIG A   1      -3.400   7.864 131.140  0.00  0.00    -0.503 OA
ATOM     22  H   LIG A   1      -3.247   7.719 132.095  0.00  0.00    +0.292 HD
ENDBRANCH  10  21
BRANCH   9  23
ATOM     23  O   LIG A   1      -2.530   5.542 130.051  0.00  0.00    -0.503 OA
ATOM     24  H   LIG A   1      -2.318   4.603 130.183  0.00  0.00    +0.292 HD
ENDBRANCH   9  23
BRANCH  17  25
ATOM     25  O   LIG A   1     -12.463   9.385 128.408  0.00  0.00    -0.507 OA
ATOM     26  H   LIG A   1     -12.705   9.045 127.532  0.00  0.00    +0.292 HD
ENDBRANCH  17  25
TORSDOF 4
ENDMDL
MODEL 5
REMARK VINA RESULT:      -7.2      1.448      6.426
REMARK  Name = NuBBE_1768
REMARK  4 active torsions:
REMARK  status: ('A' for Active; 'I' for Inactive)
REMARK    1  A    between atoms: O_1  and  C_2
REMARK    2  A    between atoms: C_13  and  O_17
REMARK    3  A    between atoms: C_14  and  O_16
REMARK    4  A    between atoms: C_23  and  O_25
REMARK                            x       y       z     vdW  Elec       q    Type
REMARK                         _______ _______ _______ _____ _____    ______ ____
ROOT
ATOM      1  C   LIG A   1      -9.273   4.213 132.405  0.00  0.00    +0.181 C 
ATOM      2  C   LIG A   1     -10.243   5.154 131.688  0.00  0.00    +0.197 C 
ATOM      3  C   LIG A   1      -9.497   5.861 130.554  0.00  0.00    +0.235 C 
ATOM      4  C   LIG A   1     -10.455   6.813 129.870  0.00  0.00    +0.004 A 
ATOM      5  C   LIG A   1     -11.568   7.314 130.583  0.00  0.00    -0.011 A 
ATOM      6  C   LIG A   1     -11.820   6.901 132.019  0.00  0.00    +0.196 C 
ATOM      7  O   LIG A   1     -10.771   6.129 132.617  0.00  0.00    -0.365 OA
ATOM      8  C   LIG A   1     -12.489   8.153 129.933  0.00  0.00    +0.055 A 
ATOM      9  C   LIG A   1     -12.289   8.488 128.598  0.00  0.00    +0.159 A 
ATOM     10  C   LIG A   1     -11.178   8.010 127.910  0.00  0.00    +0.159 A 
ATOM     11  C   LIG A   1     -10.253   7.186 128.534  0.00  0.00    +0.057 A 
ATOM     12  O   LIG A   1      -8.378   6.629 131.023  0.00  0.00    -0.481 OA
ATOM     13  C   LIG A   1      -7.533   5.955 131.863  0.00  0.00    +0.131 A 
ATOM     14  C   LIG A   1      -7.897   4.797 132.558  0.00  0.00    +0.025 A 
ATOM     15  C   LIG A   1      -6.944   4.157 133.369  0.00  0.00    +0.013 A 
ATOM     16  C   LIG A   1      -5.661   4.684 133.509  0.00  0.00    +0.046 A 
ATOM     17  C   LIG A   1      -5.330   5.858 132.841  0.00  0.00    +0.120 A 
ATOM     18  C   LIG A   1      -6.257   6.498 132.025  0.00  0.00    +0.091 A 
ENDROOT
BRANCH   1  19
ATOM     19  O   LIG A   1      -9.805   3.854 133.683  0.00  0.00    -0.384 OA
ATOM     20  H   LIG A   1      -9.800   2.876 133.682  0.00  0.00    +0.210 HD
ENDBRANCH   1  19
BRANCH  10  21
ATOM     21  O   LIG A   1     -10.997   8.336 126.596  0.00  0.00    -0.503 OA
ATOM     22  H   LIG A   1     -11.137   9.304 126.562  0.00  0.00    +0.292 HD
ENDBRANCH  10  21
BRANCH   9  23
ATOM     23  O   LIG A   1     -13.167   9.281 127.911  0.00  0.00    -0.503 OA
ATOM     24  H   LIG A   1     -13.810   9.643 128.543  0.00  0.00    +0.292 HD
ENDBRANCH   9  23
BRANCH  17  25
ATOM     25  O   LIG A   1      -4.089   6.409 132.957  0.00  0.00    -0.507 OA
ATOM     26  H   LIG A   1      -3.551   6.126 132.201  0.00  0.00    +0.292 HD
ENDBRANCH  17  25
TORSDOF 4
ENDMDL
MODEL 6
REMARK VINA RESULT:      -7.1      7.692      8.882
REMARK  Name = NuBBE_1768
REMARK  4 active torsions:
REMARK  status: ('A' for Active; 'I' for Inactive)
REMARK    1  A    between atoms: O_1  and  C_2
REMARK    2  A    between atoms: C_13  and  O_17
REMARK    3  A    between atoms: C_14  and  O_16
REMARK    4  A    between atoms: C_23  and  O_25
REMARK                            x       y       z     vdW  Elec       q    Type
REMARK                         _______ _______ _______ _____ _____    ______ ____
ROOT
ATOM      1  C   LIG A   1     -10.076   1.074 123.631  0.00  0.00    +0.181 C 
ATOM      2  C   LIG A   1      -9.712   0.001 124.659  0.00  0.00    +0.197 C 
ATOM      3  C   LIG A   1      -8.649   0.565 125.605  0.00  0.00    +0.235 C 
ATOM      4  C   LIG A   1      -8.272  -0.514 126.600  0.00  0.00    +0.004 A 
ATOM      5  C   LIG A   1      -8.457  -1.872 126.258  0.00  0.00    -0.011 A 
ATOM      6  C   LIG A   1      -9.037  -2.263 124.914  0.00  0.00    +0.196 C 
ATOM      7  O   LIG A   1      -9.207  -1.178 123.992  0.00  0.00    -0.365 OA
ATOM      8  C   LIG A   1      -8.161  -2.872 127.200  0.00  0.00    +0.055 A 
ATOM      9  C   LIG A   1      -7.680  -2.513 128.454  0.00  0.00    +0.159 A 
ATOM     10  C   LIG A   1      -7.479  -1.173 128.775  0.00  0.00    +0.159 A 
ATOM     11  C   LIG A   1      -7.759  -0.171 127.859  0.00  0.00    +0.057 A 
ATOM     12  O   LIG A   1      -7.453   0.962 124.918  0.00  0.00    -0.481 OA
ATOM     13  C   LIG A   1      -7.659   1.764 123.828  0.00  0.00    +0.131 A 
ATOM     14  C   LIG A   1      -8.885   1.862 123.162  0.00  0.00    +0.025 A 
ATOM     15  C   LIG A   1      -9.005   2.743 122.074  0.00  0.00    +0.013 A 
ATOM     16  C   LIG A   1      -7.910   3.487 121.638  0.00  0.00    +0.046 A 
ATOM     17  C   LIG A   1      -6.688   3.347 122.288  0.00  0.00    +0.120 A 
ATOM     18  C   LIG A   1      -6.555   2.488 123.374  0.00  0.00    +0.091 A 
ENDROOT
BRANCH   1  19
ATOM     19  O   LIG A   1     -10.741   0.470 122.519  0.00  0.00    -0.384 OA
ATOM     20  H   LIG A   1     -10.750   1.168 121.833  0.00  0.00    +0.210 HD
ENDBRANCH   1  19
BRANCH  10  21
ATOM     21  O   LIG A   1      -7.018  -0.831 130.014  0.00  0.00    -0.503 OA
ATOM     22  H   LIG A   1      -6.048  -0.771 129.907  0.00  0.00    +0.292 HD
ENDBRANCH  10  21
BRANCH   9  23
ATOM     23  O   LIG A   1      -7.400  -3.444 129.417  0.00  0.00    -0.503 OA
ATOM     24  H   LIG A   1      -6.443  -3.435 129.581  0.00  0.00    +0.292 HD
ENDBRANCH   9  23
BRANCH  17  25
ATOM     25  O   LIG A   1      -5.592   4.051 121.888  0.00  0.00    -0.507 OA
ATOM     26  H   LIG A   1      -5.618   4.145 120.923  0.00  0.00    +0.292 HD
ENDBRANCH  17  25
TORSDOF 4
ENDMDL
MODEL 7
REMARK VINA RESULT:      -7.0      7.211      8.248
REMARK  Name = NuBBE_1768
REMARK  4 active torsions:
REMARK  status: ('A' for Active; 'I' for Inactive)
REMARK    1  A    between atoms: O_1  and  C_2
REMARK    2  A    between atoms: C_13  and  O_17
REMARK    3  A    between atoms: C_14  and  O_16
REMARK    4  A    between atoms: C_23  and  O_25
REMARK                            x       y       z     vdW  Elec       q    Type
REMARK                         _______ _______ _______ _____ _____    ______ ____
ROOT
ATOM      1  C   LIG A   1      -8.895   2.612 122.888  0.00  0.00    +0.181 C 
ATOM      2  C   LIG A   1      -8.154   2.007 124.082  0.00  0.00    +0.197 C 
ATOM      3  C   LIG A   1      -7.010   2.945 124.479  0.00  0.00    +0.235 C 
ATOM      4  C   LIG A   1      -6.263   2.324 125.641  0.00  0.00    +0.004 A 
ATOM      5  C   LIG A   1      -6.304   0.925 125.828  0.00  0.00    -0.011 A 
ATOM      6  C   LIG A   1      -7.095   0.038 124.888  0.00  0.00    +0.196 C 
ATOM      7  O   LIG A   1      -7.628   0.705 123.737  0.00  0.00    -0.365 OA
ATOM      8  C   LIG A   1      -5.657   0.353 126.937  0.00  0.00    +0.055 A 
ATOM      9  C   LIG A   1      -4.977   1.172 127.832  0.00  0.00    +0.159 A 
ATOM     10  C   LIG A   1      -4.922   2.548 127.628  0.00  0.00    +0.159 A 
ATOM     11  C   LIG A   1      -5.547   3.131 126.537  0.00  0.00    +0.057 A 
ATOM     12  O   LIG A   1      -6.070   3.150 123.414  0.00  0.00    -0.481 OA
ATOM     13  C   LIG A   1      -6.631   3.491 122.213  0.00  0.00    +0.131 A 
ATOM     14  C   LIG A   1      -7.973   3.258 121.894  0.00  0.00    +0.025 A 
ATOM     15  C   LIG A   1      -8.463   3.678 120.646  0.00  0.00    +0.013 A 
ATOM     16  C   LIG A   1      -7.619   4.291 119.720  0.00  0.00    +0.046 A 
ATOM     17  C   LIG A   1      -6.278   4.477 120.040  0.00  0.00    +0.120 A 
ATOM     18  C   LIG A   1      -5.779   4.078 121.275  0.00  0.00    +0.091 A 
ENDROOT
BRANCH   1  19
ATOM     19  O   LIG A   1      -9.684   1.604 122.251  0.00  0.00    -0.384 OA
ATOM     20  H   LIG A   1      -9.031   0.944 121.942  0.00  0.00    +0.210 HD
ENDBRANCH   1  19
BRANCH  10  21
ATOM     21  O   LIG A   1      -4.260   3.343 128.519  0.00  0.00    -0.503 OA
ATOM     22  H   LIG A   1      -4.065   4.162 128.020  0.00  0.00    +0.292 HD
ENDBRANCH  10  21
BRANCH   9  23
ATOM     23  O   LIG A   1      -4.352   0.670 128.941  0.00  0.00    -0.503 OA
ATOM     24  H   LIG A   1      -4.448  -0.297 128.935  0.00  0.00    +0.292 HD
ENDBRANCH   9  23
BRANCH  17  25
ATOM     25  O   LIG A   1      -5.419   5.065 119.160  0.00  0.00    -0.507 OA
ATOM     26  H   LIG A   1      -5.388   6.017 119.343  0.00  0.00    +0.292 HD
ENDBRANCH  17  25
TORSDOF 4
ENDMDL
MODEL 8
REMARK VINA RESULT:      -6.8      7.745     10.040
REMARK  Name = NuBBE_1768
REMARK  4 active torsions:
REMARK  status: ('A' for Active; 'I' for Inactive)
REMARK    1  A    between atoms: O_1  and  C_2
REMARK    2  A    between atoms: C_13  and  O_17
REMARK    3  A    between atoms: C_14  and  O_16
REMARK    4  A    between atoms: C_23  and  O_25
REMARK                            x       y       z     vdW  Elec       q    Type
REMARK                         _______ _______ _______ _____ _____    ______ ____
ROOT
ATOM      1  C   LIG A   1      -7.628  -2.481 125.499  0.00  0.00    +0.181 C 
ATOM      2  C   LIG A   1      -7.971  -1.343 124.536  0.00  0.00    +0.197 C 
ATOM      3  C   LIG A   1      -7.334  -0.050 125.054  0.00  0.00    +0.235 C 
ATOM      4  C   LIG A   1      -7.704   1.077 124.113  0.00  0.00    +0.004 A 
ATOM      5  C   LIG A   1      -8.874   0.974 123.328  0.00  0.00    -0.011 A 
ATOM      6  C   LIG A   1      -9.757  -0.255 123.408  0.00  0.00    +0.196 C 
ATOM      7  O   LIG A   1      -9.405  -1.184 124.441  0.00  0.00    -0.365 OA
ATOM      8  C   LIG A   1      -9.190   1.993 122.414  0.00  0.00    +0.055 A 
ATOM      9  C   LIG A   1      -8.350   3.096 122.299  0.00  0.00    +0.159 A 
ATOM     10  C   LIG A   1      -7.211   3.201 123.092  0.00  0.00    +0.159 A 
ATOM     11  C   LIG A   1      -6.885   2.211 124.005  0.00  0.00    +0.057 A 
ATOM     12  O   LIG A   1      -7.796   0.307 126.365  0.00  0.00    -0.481 OA
ATOM     13  C   LIG A   1      -7.743  -0.706 127.286  0.00  0.00    +0.131 A 
ATOM     14  C   LIG A   1      -7.667  -2.059 126.940  0.00  0.00    +0.025 A 
ATOM     15  C   LIG A   1      -7.581  -3.023 127.960  0.00  0.00    +0.013 A 
ATOM     16  C   LIG A   1      -7.604  -2.641 129.301  0.00  0.00    +0.046 A 
ATOM     17  C   LIG A   1      -7.720  -1.294 129.625  0.00  0.00    +0.120 A 
ATOM     18  C   LIG A   1      -7.795  -0.327 128.628  0.00  0.00    +0.091 A 
ENDROOT
BRANCH   1  19
ATOM     19  O   LIG A   1      -8.515  -3.581 125.279  0.00  0.00    -0.384 OA
ATOM     20  H   LIG A   1      -9.055  -3.307 124.511  0.00  0.00    +0.210 HD
ENDBRANCH   1  19
BRANCH  10  21
ATOM     21  O   LIG A   1      -6.388   4.283 122.963  0.00  0.00    -0.503 OA
ATOM     22  H   LIG A   1      -6.995   5.040 122.841  0.00  0.00    +0.292 HD
ENDBRANCH  10  21
BRANCH   9  23
ATOM     23  O   LIG A   1      -8.597   4.104 121.407  0.00  0.00    -0.503 OA
ATOM     24  H   LIG A   1      -8.018   3.979 120.637  0.00  0.00    +0.292 HD
ENDBRANCH   9  23
BRANCH  17  25
ATOM     25  O   LIG A   1      -7.754  -0.881 130.924  0.00  0.00    -0.507 OA
ATOM     26  H   LIG A   1      -7.410  -1.593 131.485  0.00  0.00    +0.292 HD
ENDBRANCH  17  25
TORSDOF 4
ENDMDL
MODEL 9
REMARK VINA RESULT:      -6.7      4.903      6.315
REMARK  Name = NuBBE_1768
REMARK  4 active torsions:
REMARK  status: ('A' for Active; 'I' for Inactive)
REMARK    1  A    between atoms: O_1  and  C_2
REMARK    2  A    between atoms: C_13  and  O_17
REMARK    3  A    between atoms: C_14  and  O_16
REMARK    4  A    between atoms: C_23  and  O_25
REMARK                            x       y       z     vdW  Elec       q    Type
REMARK                         _______ _______ _______ _____ _____    ______ ____
ROOT
ATOM      1  C   LIG A   1      -7.216   3.884 125.632  0.00  0.00    +0.181 C 
ATOM      2  C   LIG A   1      -7.483   3.800 127.135  0.00  0.00    +0.197 C 
ATOM      3  C   LIG A   1      -7.824   2.352 127.495  0.00  0.00    +0.235 C 
ATOM      4  C   LIG A   1      -8.118   2.283 128.980  0.00  0.00    +0.004 A 
ATOM      5  C   LIG A   1      -8.557   3.442 129.658  0.00  0.00    -0.011 A 
ATOM      6  C   LIG A   1      -8.727   4.755 128.921  0.00  0.00    +0.196 C 
ATOM      7  O   LIG A   1      -8.579   4.671 127.497  0.00  0.00    -0.365 OA
ATOM      8  C   LIG A   1      -8.776   3.394 131.044  0.00  0.00    +0.055 A 
ATOM      9  C   LIG A   1      -8.567   2.203 131.732  0.00  0.00    +0.159 A 
ATOM     10  C   LIG A   1      -8.156   1.060 131.053  0.00  0.00    +0.159 A 
ATOM     11  C   LIG A   1      -7.941   1.083 129.684  0.00  0.00    +0.057 A 
ATOM     12  O   LIG A   1      -8.982   1.867 126.798  0.00  0.00    -0.481 OA
ATOM     13  C   LIG A   1      -8.965   2.079 125.446  0.00  0.00    +0.131 A 
ATOM     14  C   LIG A   1      -8.150   3.030 124.823  0.00  0.00    +0.025 A 
ATOM     15  C   LIG A   1      -8.179   3.145 123.423  0.00  0.00    +0.013 A 
ATOM     16  C   LIG A   1      -9.033   2.348 122.661  0.00  0.00    +0.046 A 
ATOM     17  C   LIG A   1      -9.866   1.437 123.302  0.00  0.00    +0.120 A 
ATOM     18  C   LIG A   1      -9.841   1.301 124.686  0.00  0.00    +0.091 A 
ENDROOT
BRANCH   1  19
ATOM     19  O   LIG A   1      -7.294   5.247 125.204  0.00  0.00    -0.384 OA
ATOM     20  H   LIG A   1      -8.173   5.318 124.781  0.00  0.00    +0.210 HD
ENDBRANCH   1  19
BRANCH  10  21
ATOM     21  O   LIG A   1      -7.943  -0.101 131.740  0.00  0.00    -0.503 OA
ATOM     22  H   LIG A   1      -8.789  -0.587 131.669  0.00  0.00    +0.292 HD
ENDBRANCH  10  21
BRANCH   9  23
ATOM     23  O   LIG A   1      -8.741   2.109 133.086  0.00  0.00    -0.503 OA
ATOM     24  H   LIG A   1      -9.351   2.812 133.365  0.00  0.00    +0.292 HD
ENDBRANCH   9  23
BRANCH  17  25
ATOM     25  O   LIG A   1     -10.720   0.645 122.594  0.00  0.00    -0.507 OA
ATOM     26  H   LIG A   1     -11.262   1.208 122.020  0.00  0.00    +0.292 HD
ENDBRANCH  17  25
TORSDOF 4
ENDMDL
