MODEL 1
REMARK VINA RESULT:      -4.9      0.000      0.000
REMARK  Name = NuBBE_2110
REMARK  14 active torsions:
REMARK  status: ('A' for Active; 'I' for Inactive)
REMARK    1  A    between atoms: C_1  and  C_2
REMARK    2  A    between atoms: C_2  and  C_3
REMARK    3  A    between atoms: C_3  and  C_4
REMARK    4  A    between atoms: C_4  and  C_5
REMARK    5  A    between atoms: C_5  and  C_6
REMARK    6  A    between atoms: C_6  and  C_7
REMARK    7  A    between atoms: C_7  and  C_8
REMARK    8  A    between atoms: C_8  and  C_9
REMARK    9  A    between atoms: C_9  and  C_10
REMARK   10  A    between atoms: C_10  and  C_11
REMARK   11  A    between atoms: C_11  and  C_12
REMARK   12  A    between atoms: C_12  and  C_13
REMARK   13  A    between atoms: C_13  and  C_14
REMARK   14  A    between atoms: C_14  and  C_15
REMARK                            x       y       z     vdW  Elec       q    Type
REMARK                         _______ _______ _______ _____ _____    ______ ____
ROOT
ATOM      1  C   LIG A   1      -9.039  -3.142 126.557  0.00  0.00    -0.000 C 
ENDROOT
BRANCH   1   2
ATOM      2  C   LIG A   1      -8.852  -4.015 127.816  0.00  0.00    -0.000 C 
BRANCH   2   3
ATOM      3  C   LIG A   1      -8.425  -3.230 129.063  0.00  0.00    -0.000 C 
BRANCH   3   4
ATOM      4  C   LIG A   1      -7.000  -3.579 129.537  0.00  0.00    -0.000 C 
BRANCH   4   5
ATOM      5  C   LIG A   1      -6.053  -2.392 129.319  0.00  0.00    -0.000 C 
BRANCH   5   6
ATOM      6  C   LIG A   1      -5.177  -2.450 128.063  0.00  0.00    -0.000 C 
BRANCH   6   8
ATOM      7  C   LIG A   1      -6.553  -0.485 127.112  0.00  0.00    +0.004 C 
ATOM      8  C   LIG A   1      -5.558  -1.605 126.846  0.00  0.00    -0.003 C 
ENDBRANCH   6   8
ENDBRANCH   5   6
ENDBRANCH   4   5
ENDBRANCH   3   4
ENDBRANCH   2   3
ENDBRANCH   1   2
BRANCH   1   9
ATOM      9  C   LIG A   1      -8.425  -3.758 125.295  0.00  0.00    -0.000 C 
BRANCH   9  10
ATOM     10  C   LIG A   1      -9.148  -3.425 123.981  0.00  0.00    -0.000 C 
BRANCH  10  11
ATOM     11  C   LIG A   1      -8.491  -2.386 123.066  0.00  0.00    -0.000 C 
BRANCH  11  12
ATOM     12  C   LIG A   1      -7.148  -1.860 123.578  0.00  0.00    -0.000 C 
BRANCH  12  13
ATOM     13  C   LIG A   1      -5.991  -2.216 122.636  0.00  0.00    -0.000 C 
BRANCH  13  14
ATOM     14  C   LIG A   1      -4.787  -2.811 123.370  0.00  0.00    -0.003 C 
ATOM     15  C   LIG A   1      -5.031  -4.222 123.885  0.00  0.00    +0.004 C 
ENDBRANCH  13  14
ENDBRANCH  12  13
ENDBRANCH  11  12
ENDBRANCH  10  11
ENDBRANCH   9  10
ENDBRANCH   1   9
TORSDOF 12
ENDMDL
MODEL 2
REMARK VINA RESULT:      -4.9      1.189      1.918
REMARK  Name = NuBBE_2110
REMARK  14 active torsions:
REMARK  status: ('A' for Active; 'I' for Inactive)
REMARK    1  A    between atoms: C_1  and  C_2
REMARK    2  A    between atoms: C_2  and  C_3
REMARK    3  A    between atoms: C_3  and  C_4
REMARK    4  A    between atoms: C_4  and  C_5
REMARK    5  A    between atoms: C_5  and  C_6
REMARK    6  A    between atoms: C_6  and  C_7
REMARK    7  A    between atoms: C_7  and  C_8
REMARK    8  A    between atoms: C_8  and  C_9
REMARK    9  A    between atoms: C_9  and  C_10
REMARK   10  A    between atoms: C_10  and  C_11
REMARK   11  A    between atoms: C_11  and  C_12
REMARK   12  A    between atoms: C_12  and  C_13
REMARK   13  A    between atoms: C_13  and  C_14
REMARK   14  A    between atoms: C_14  and  C_15
REMARK                            x       y       z     vdW  Elec       q    Type
REMARK                         _______ _______ _______ _____ _____    ______ ____
ROOT
ATOM      1  C   LIG A   1      -8.490  -3.777 125.455  0.00  0.00    -0.000 C 
ENDROOT
BRANCH   1   2
ATOM      2  C   LIG A   1      -8.521  -2.930 126.744  0.00  0.00    -0.000 C 
BRANCH   2   3
ATOM      3  C   LIG A   1      -8.817  -3.738 128.014  0.00  0.00    -0.000 C 
BRANCH   3   4
ATOM      4  C   LIG A   1      -8.238  -3.094 129.289  0.00  0.00    -0.000 C 
BRANCH   4   5
ATOM      5  C   LIG A   1      -6.916  -3.766 129.680  0.00  0.00    -0.000 C 
BRANCH   5   6
ATOM      6  C   LIG A   1      -5.709  -2.835 129.846  0.00  0.00    -0.000 C 
BRANCH   6   8
ATOM      7  C   LIG A   1      -3.369  -3.693 129.177  0.00  0.00    +0.004 C 
ATOM      8  C   LIG A   1      -4.591  -2.868 128.802  0.00  0.00    -0.003 C 
ENDBRANCH   6   8
ENDBRANCH   5   6
ENDBRANCH   4   5
ENDBRANCH   3   4
ENDBRANCH   2   3
ENDBRANCH   1   2
BRANCH   1   9
ATOM      9  C   LIG A   1      -9.264  -3.144 124.293  0.00  0.00    -0.000 C 
BRANCH   9  10
ATOM     10  C   LIG A   1      -8.403  -2.631 123.130  0.00  0.00    -0.000 C 
BRANCH  10  11
ATOM     11  C   LIG A   1      -7.665  -1.304 123.339  0.00  0.00    -0.000 C 
BRANCH  11  12
ATOM     12  C   LIG A   1      -6.234  -1.458 123.858  0.00  0.00    -0.000 C 
BRANCH  12  13
ATOM     13  C   LIG A   1      -5.486  -2.599 123.157  0.00  0.00    -0.000 C 
BRANCH  13  14
ATOM     14  C   LIG A   1      -4.962  -3.657 124.132  0.00  0.00    -0.003 C 
ATOM     15  C   LIG A   1      -4.337  -4.859 123.440  0.00  0.00    +0.004 C 
ENDBRANCH  13  14
ENDBRANCH  12  13
ENDBRANCH  11  12
ENDBRANCH  10  11
ENDBRANCH   9  10
ENDBRANCH   1   9
TORSDOF 12
ENDMDL
MODEL 3
REMARK VINA RESULT:      -4.8      1.343      5.365
REMARK  Name = NuBBE_2110
REMARK  14 active torsions:
REMARK  status: ('A' for Active; 'I' for Inactive)
REMARK    1  A    between atoms: C_1  and  C_2
REMARK    2  A    between atoms: C_2  and  C_3
REMARK    3  A    between atoms: C_3  and  C_4
REMARK    4  A    between atoms: C_4  and  C_5
REMARK    5  A    between atoms: C_5  and  C_6
REMARK    6  A    between atoms: C_6  and  C_7
REMARK    7  A    between atoms: C_7  and  C_8
REMARK    8  A    between atoms: C_8  and  C_9
REMARK    9  A    between atoms: C_9  and  C_10
REMARK   10  A    between atoms: C_10  and  C_11
REMARK   11  A    between atoms: C_11  and  C_12
REMARK   12  A    between atoms: C_12  and  C_13
REMARK   13  A    between atoms: C_13  and  C_14
REMARK   14  A    between atoms: C_14  and  C_15
REMARK                            x       y       z     vdW  Elec       q    Type
REMARK                         _______ _______ _______ _____ _____    ______ ____
ROOT
ATOM      1  C   LIG A   1      -8.924  -3.705 124.567  0.00  0.00    -0.000 C 
ENDROOT
BRANCH   1   2
ATOM      2  C   LIG A   1      -9.203  -2.849 123.313  0.00  0.00    -0.000 C 
BRANCH   2   3
ATOM      3  C   LIG A   1      -8.654  -1.419 123.398  0.00  0.00    -0.000 C 
BRANCH   3   4
ATOM      4  C   LIG A   1      -7.149  -1.330 123.080  0.00  0.00    -0.000 C 
BRANCH   4   5
ATOM      5  C   LIG A   1      -6.323  -1.325 124.372  0.00  0.00    -0.000 C 
BRANCH   5   6
ATOM      6  C   LIG A   1      -5.421  -2.543 124.601  0.00  0.00    -0.000 C 
BRANCH   6   8
ATOM      7  C   LIG A   1      -4.376  -4.703 123.650  0.00  0.00    +0.004 C 
ATOM      8  C   LIG A   1      -4.831  -3.274 123.393  0.00  0.00    -0.003 C 
ENDBRANCH   6   8
ENDBRANCH   5   6
ENDBRANCH   4   5
ENDBRANCH   3   4
ENDBRANCH   2   3
ENDBRANCH   1   2
BRANCH   1   9
ATOM      9  C   LIG A   1      -9.344  -3.023 125.873  0.00  0.00    -0.000 C 
BRANCH   9  10
ATOM     10  C   LIG A   1      -8.707  -3.594 127.149  0.00  0.00    -0.000 C 
BRANCH  10  11
ATOM     11  C   LIG A   1      -8.184  -2.587 128.180  0.00  0.00    -0.000 C 
BRANCH  11  12
ATOM     12  C   LIG A   1      -6.776  -2.893 128.696  0.00  0.00    -0.000 C 
BRANCH  12  13
ATOM     13  C   LIG A   1      -6.803  -3.683 130.011  0.00  0.00    -0.000 C 
BRANCH  13  14
ATOM     14  C   LIG A   1      -5.467  -4.361 130.325  0.00  0.00    -0.003 C 
ATOM     15  C   LIG A   1      -5.429  -5.009 131.702  0.00  0.00    +0.004 C 
ENDBRANCH  13  14
ENDBRANCH  12  13
ENDBRANCH  11  12
ENDBRANCH  10  11
ENDBRANCH   9  10
ENDBRANCH   1   9
TORSDOF 12
ENDMDL
MODEL 4
REMARK VINA RESULT:      -4.7      1.294      2.118
REMARK  Name = NuBBE_2110
REMARK  14 active torsions:
REMARK  status: ('A' for Active; 'I' for Inactive)
REMARK    1  A    between atoms: C_1  and  C_2
REMARK    2  A    between atoms: C_2  and  C_3
REMARK    3  A    between atoms: C_3  and  C_4
REMARK    4  A    between atoms: C_4  and  C_5
REMARK    5  A    between atoms: C_5  and  C_6
REMARK    6  A    between atoms: C_6  and  C_7
REMARK    7  A    between atoms: C_7  and  C_8
REMARK    8  A    between atoms: C_8  and  C_9
REMARK    9  A    between atoms: C_9  and  C_10
REMARK   10  A    between atoms: C_10  and  C_11
REMARK   11  A    between atoms: C_11  and  C_12
REMARK   12  A    between atoms: C_12  and  C_13
REMARK   13  A    between atoms: C_13  and  C_14
REMARK   14  A    between atoms: C_14  and  C_15
REMARK                            x       y       z     vdW  Elec       q    Type
REMARK                         _______ _______ _______ _____ _____    ______ ____
ROOT
ATOM      1  C   LIG A   1      -8.445  -3.264 126.855  0.00  0.00    -0.000 C 
ENDROOT
BRANCH   1   2
ATOM      2  C   LIG A   1      -7.307  -2.338 127.330  0.00  0.00    -0.000 C 
BRANCH   2   3
ATOM      3  C   LIG A   1      -7.498  -1.794 128.752  0.00  0.00    -0.000 C 
BRANCH   3   4
ATOM      4  C   LIG A   1      -8.049  -2.848 129.733  0.00  0.00    -0.000 C 
BRANCH   4   5
ATOM      5  C   LIG A   1      -6.979  -3.243 130.759  0.00  0.00    -0.000 C 
BRANCH   5   6
ATOM      6  C   LIG A   1      -5.968  -4.301 130.304  0.00  0.00    -0.000 C 
BRANCH   6   8
ATOM      7  C   LIG A   1      -4.052  -3.224 128.953  0.00  0.00    +0.004 C 
ATOM      8  C   LIG A   1      -4.485  -3.933 130.227  0.00  0.00    -0.003 C 
ENDBRANCH   6   8
ENDBRANCH   5   6
ENDBRANCH   4   5
ENDBRANCH   3   4
ENDBRANCH   2   3
ENDBRANCH   1   2
BRANCH   1   9
ATOM      9  C   LIG A   1      -9.369  -2.610 125.821  0.00  0.00    -0.000 C 
BRANCH   9  10
ATOM     10  C   LIG A   1      -9.280  -3.186 124.400  0.00  0.00    -0.000 C 
BRANCH  10  11
ATOM     11  C   LIG A   1      -7.878  -3.460 123.844  0.00  0.00    -0.000 C 
BRANCH  11  12
ATOM     12  C   LIG A   1      -7.111  -2.202 123.432  0.00  0.00    -0.000 C 
BRANCH  12  13
ATOM     13  C   LIG A   1      -5.596  -2.367 123.608  0.00  0.00    -0.000 C 
BRANCH  13  14
ATOM     14  C   LIG A   1      -5.215  -3.678 124.299  0.00  0.00    -0.003 C 
ATOM     15  C   LIG A   1      -4.224  -4.514 123.503  0.00  0.00    +0.004 C 
ENDBRANCH  13  14
ENDBRANCH  12  13
ENDBRANCH  11  12
ENDBRANCH  10  11
ENDBRANCH   9  10
ENDBRANCH   1   9
TORSDOF 12
ENDMDL
MODEL 5
REMARK VINA RESULT:      -4.7      1.292      4.066
REMARK  Name = NuBBE_2110
REMARK  14 active torsions:
REMARK  status: ('A' for Active; 'I' for Inactive)
REMARK    1  A    between atoms: C_1  and  C_2
REMARK    2  A    between atoms: C_2  and  C_3
REMARK    3  A    between atoms: C_3  and  C_4
REMARK    4  A    between atoms: C_4  and  C_5
REMARK    5  A    between atoms: C_5  and  C_6
REMARK    6  A    between atoms: C_6  and  C_7
REMARK    7  A    between atoms: C_7  and  C_8
REMARK    8  A    between atoms: C_8  and  C_9
REMARK    9  A    between atoms: C_9  and  C_10
REMARK   10  A    between atoms: C_10  and  C_11
REMARK   11  A    between atoms: C_11  and  C_12
REMARK   12  A    between atoms: C_12  and  C_13
REMARK   13  A    between atoms: C_13  and  C_14
REMARK   14  A    between atoms: C_14  and  C_15
REMARK                            x       y       z     vdW  Elec       q    Type
REMARK                         _______ _______ _______ _____ _____    ______ ____
ROOT
ATOM      1  C   LIG A   1      -7.105  -2.650 128.158  0.00  0.00    -0.000 C 
ENDROOT
BRANCH   1   2
ATOM      2  C   LIG A   1      -8.497  -3.236 127.840  0.00  0.00    -0.000 C 
BRANCH   2   3
ATOM      3  C   LIG A   1      -8.644  -3.751 126.402  0.00  0.00    -0.000 C 
BRANCH   3   4
ATOM      4  C   LIG A   1      -9.217  -2.694 125.437  0.00  0.00    -0.000 C 
BRANCH   4   5
ATOM      5  C   LIG A   1      -9.332  -3.265 124.018  0.00  0.00    -0.000 C 
BRANCH   5   6
ATOM      6  C   LIG A   1      -9.048  -2.287 122.873  0.00  0.00    -0.000 C 
BRANCH   6   8
ATOM      7  C   LIG A   1     -10.180   0.005 122.516  0.00  0.00    +0.004 C 
ATOM      8  C   LIG A   1      -9.047  -0.783 123.157  0.00  0.00    -0.003 C 
ENDBRANCH   6   8
ENDBRANCH   5   6
ENDBRANCH   4   5
ENDBRANCH   3   4
ENDBRANCH   2   3
ENDBRANCH   1   2
BRANCH   1   9
ATOM      9  C   LIG A   1      -6.999  -1.148 127.875  0.00  0.00    -0.000 C 
BRANCH   9  10
ATOM     10  C   LIG A   1      -5.817  -0.726 126.989  0.00  0.00    -0.000 C 
BRANCH  10  11
ATOM     11  C   LIG A   1      -5.358  -1.721 125.917  0.00  0.00    -0.000 C 
BRANCH  11  12
ATOM     12  C   LIG A   1      -5.786  -1.351 124.495  0.00  0.00    -0.000 C 
BRANCH  12  13
ATOM     13  C   LIG A   1      -5.510  -2.483 123.496  0.00  0.00    -0.000 C 
BRANCH  13  14
ATOM     14  C   LIG A   1      -5.469  -3.863 124.157  0.00  0.00    -0.003 C 
ATOM     15  C   LIG A   1      -4.353  -4.752 123.627  0.00  0.00    +0.004 C 
ENDBRANCH  13  14
ENDBRANCH  12  13
ENDBRANCH  11  12
ENDBRANCH  10  11
ENDBRANCH   9  10
ENDBRANCH   1   9
TORSDOF 12
ENDMDL
MODEL 6
REMARK VINA RESULT:      -4.5      9.652     11.961
REMARK  Name = NuBBE_2110
REMARK  14 active torsions:
REMARK  status: ('A' for Active; 'I' for Inactive)
REMARK    1  A    between atoms: C_1  and  C_2
REMARK    2  A    between atoms: C_2  and  C_3
REMARK    3  A    between atoms: C_3  and  C_4
REMARK    4  A    between atoms: C_4  and  C_5
REMARK    5  A    between atoms: C_5  and  C_6
REMARK    6  A    between atoms: C_6  and  C_7
REMARK    7  A    between atoms: C_7  and  C_8
REMARK    8  A    between atoms: C_8  and  C_9
REMARK    9  A    between atoms: C_9  and  C_10
REMARK   10  A    between atoms: C_10  and  C_11
REMARK   11  A    between atoms: C_11  and  C_12
REMARK   12  A    between atoms: C_12  and  C_13
REMARK   13  A    between atoms: C_13  and  C_14
REMARK   14  A    between atoms: C_14  and  C_15
REMARK                            x       y       z     vdW  Elec       q    Type
REMARK                         _______ _______ _______ _____ _____    ______ ____
ROOT
ATOM      1  C   LIG A   1      -8.898   6.691 131.244  0.00  0.00    -0.000 C 
ENDROOT
BRANCH   1   2
ATOM      2  C   LIG A   1      -9.182   5.984 132.586  0.00  0.00    -0.000 C 
BRANCH   2   3
ATOM      3  C   LIG A   1      -7.938   5.783 133.462  0.00  0.00    -0.000 C 
BRANCH   3   4
ATOM      4  C   LIG A   1      -7.897   4.401 134.143  0.00  0.00    -0.000 C 
BRANCH   4   5
ATOM      5  C   LIG A   1      -9.174   3.609 133.836  0.00  0.00    -0.000 C 
BRANCH   5   6
ATOM      6  C   LIG A   1      -9.007   2.382 132.934  0.00  0.00    -0.000 C 
BRANCH   6   8
ATOM      7  C   LIG A   1      -9.591   2.960 130.487  0.00  0.00    +0.004 C 
ATOM      8  C   LIG A   1      -9.955   2.190 131.748  0.00  0.00    -0.003 C 
ENDBRANCH   6   8
ENDBRANCH   5   6
ENDBRANCH   4   5
ENDBRANCH   3   4
ENDBRANCH   2   3
ENDBRANCH   1   2
BRANCH   1   9
ATOM      9  C   LIG A   1     -10.149   6.882 130.381  0.00  0.00    -0.000 C 
BRANCH   9  10
ATOM     10  C   LIG A   1     -11.487   6.637 131.097  0.00  0.00    -0.000 C 
BRANCH  10  11
ATOM     11  C   LIG A   1     -12.664   7.539 130.706  0.00  0.00    -0.000 C 
BRANCH  11  12
ATOM     12  C   LIG A   1     -12.745   7.849 129.210  0.00  0.00    -0.000 C 
BRANCH  12  13
ATOM     13  C   LIG A   1     -12.967   9.344 128.942  0.00  0.00    -0.000 C 
BRANCH  13  14
ATOM     14  C   LIG A   1     -13.163  10.156 130.225  0.00  0.00    -0.003 C 
ATOM     15  C   LIG A   1     -13.754  11.537 129.980  0.00  0.00    +0.004 C 
ENDBRANCH  13  14
ENDBRANCH  12  13
ENDBRANCH  11  12
ENDBRANCH  10  11
ENDBRANCH   9  10
ENDBRANCH   1   9
TORSDOF 12
ENDMDL
MODEL 7
REMARK VINA RESULT:      -4.5      1.343      4.846
REMARK  Name = NuBBE_2110
REMARK  14 active torsions:
REMARK  status: ('A' for Active; 'I' for Inactive)
REMARK    1  A    between atoms: C_1  and  C_2
REMARK    2  A    between atoms: C_2  and  C_3
REMARK    3  A    between atoms: C_3  and  C_4
REMARK    4  A    between atoms: C_4  and  C_5
REMARK    5  A    between atoms: C_5  and  C_6
REMARK    6  A    between atoms: C_6  and  C_7
REMARK    7  A    between atoms: C_7  and  C_8
REMARK    8  A    between atoms: C_8  and  C_9
REMARK    9  A    between atoms: C_9  and  C_10
REMARK   10  A    between atoms: C_10  and  C_11
REMARK   11  A    between atoms: C_11  and  C_12
REMARK   12  A    between atoms: C_12  and  C_13
REMARK   13  A    between atoms: C_13  and  C_14
REMARK   14  A    between atoms: C_14  and  C_15
REMARK                            x       y       z     vdW  Elec       q    Type
REMARK                         _______ _______ _______ _____ _____    ______ ____
ROOT
ATOM      1  C   LIG A   1      -9.219  -3.205 126.244  0.00  0.00    -0.000 C 
ENDROOT
BRANCH   1   2
ATOM      2  C   LIG A   1      -8.344  -3.746 125.094  0.00  0.00    -0.000 C 
BRANCH   2   3
ATOM      3  C   LIG A   1      -8.663  -3.132 123.724  0.00  0.00    -0.000 C 
BRANCH   3   4
ATOM      4  C   LIG A   1      -7.541  -2.216 123.197  0.00  0.00    -0.000 C 
BRANCH   4   5
ATOM      5  C   LIG A   1      -6.617  -1.780 124.342  0.00  0.00    -0.000 C 
BRANCH   5   6
ATOM      6  C   LIG A   1      -5.152  -2.216 124.229  0.00  0.00    -0.000 C 
BRANCH   6   8
ATOM      7  C   LIG A   1      -4.503  -4.666 123.744  0.00  0.00    +0.004 C 
ATOM      8  C   LIG A   1      -4.764  -3.272 123.192  0.00  0.00    -0.003 C 
ENDBRANCH   6   8
ENDBRANCH   5   6
ENDBRANCH   4   5
ENDBRANCH   3   4
ENDBRANCH   2   3
ENDBRANCH   1   2
BRANCH   1   9
ATOM      9  C   LIG A   1      -8.894  -3.835 127.602  0.00  0.00    -0.000 C 
BRANCH   9  10
ATOM     10  C   LIG A   1      -8.215  -2.902 128.616  0.00  0.00    -0.000 C 
BRANCH  10  11
ATOM     11  C   LIG A   1      -7.253  -1.846 128.060  0.00  0.00    -0.000 C 
BRANCH  11  12
ATOM     12  C   LIG A   1      -7.821  -0.426 128.046  0.00  0.00    -0.000 C 
BRANCH  12  13
ATOM     13  C   LIG A   1      -7.054   0.493 127.086  0.00  0.00    -0.000 C 
BRANCH  13  14
ATOM     14  C   LIG A   1      -7.959   1.153 126.042  0.00  0.00    -0.003 C 
ATOM     15  C   LIG A   1      -9.326   0.494 125.926  0.00  0.00    +0.004 C 
ENDBRANCH  13  14
ENDBRANCH  12  13
ENDBRANCH  11  12
ENDBRANCH  10  11
ENDBRANCH   9  10
ENDBRANCH   1   9
TORSDOF 12
ENDMDL
MODEL 8
REMARK VINA RESULT:      -4.5      1.156      5.572
REMARK  Name = NuBBE_2110
REMARK  14 active torsions:
REMARK  status: ('A' for Active; 'I' for Inactive)
REMARK    1  A    between atoms: C_1  and  C_2
REMARK    2  A    between atoms: C_2  and  C_3
REMARK    3  A    between atoms: C_3  and  C_4
REMARK    4  A    between atoms: C_4  and  C_5
REMARK    5  A    between atoms: C_5  and  C_6
REMARK    6  A    between atoms: C_6  and  C_7
REMARK    7  A    between atoms: C_7  and  C_8
REMARK    8  A    between atoms: C_8  and  C_9
REMARK    9  A    between atoms: C_9  and  C_10
REMARK   10  A    between atoms: C_10  and  C_11
REMARK   11  A    between atoms: C_11  and  C_12
REMARK   12  A    between atoms: C_12  and  C_13
REMARK   13  A    between atoms: C_13  and  C_14
REMARK   14  A    between atoms: C_14  and  C_15
REMARK                            x       y       z     vdW  Elec       q    Type
REMARK                         _______ _______ _______ _____ _____    ______ ____
ROOT
ATOM      1  C   LIG A   1      -7.836  -1.272 126.883  0.00  0.00    -0.000 C 
ENDROOT
BRANCH   1   2
ATOM      2  C   LIG A   1      -8.395  -2.708 126.808  0.00  0.00    -0.000 C 
BRANCH   2   3
ATOM      3  C   LIG A   1      -8.918  -3.103 125.420  0.00  0.00    -0.000 C 
BRANCH   3   4
ATOM      4  C   LIG A   1      -7.836  -3.742 124.527  0.00  0.00    -0.000 C 
BRANCH   4   5
ATOM      5  C   LIG A   1      -7.297  -2.720 123.518  0.00  0.00    -0.000 C 
BRANCH   5   6
ATOM      6  C   LIG A   1      -5.773  -2.667 123.362  0.00  0.00    -0.000 C 
BRANCH   6   8
ATOM      7  C   LIG A   1      -4.268  -4.761 123.438  0.00  0.00    +0.004 C 
ATOM      8  C   LIG A   1      -4.902  -3.606 124.198  0.00  0.00    -0.003 C 
ENDBRANCH   6   8
ENDBRANCH   5   6
ENDBRANCH   4   5
ENDBRANCH   3   4
ENDBRANCH   2   3
ENDBRANCH   1   2
BRANCH   1   9
ATOM      9  C   LIG A   1      -6.335  -1.221 127.187  0.00  0.00    -0.000 C 
BRANCH   9  10
ATOM     10  C   LIG A   1      -5.690  -2.566 127.554  0.00  0.00    -0.000 C 
BRANCH  10  11
ATOM     11  C   LIG A   1      -4.612  -2.550 128.645  0.00  0.00    -0.000 C 
BRANCH  11  12
ATOM     12  C   LIG A   1      -5.067  -3.137 129.983  0.00  0.00    -0.000 C 
BRANCH  12  13
ATOM     13  C   LIG A   1      -6.492  -3.701 129.911  0.00  0.00    -0.000 C 
BRANCH  13  14
ATOM     14  C   LIG A   1      -7.438  -3.059 130.929  0.00  0.00    -0.003 C 
ATOM     15  C   LIG A   1      -7.801  -1.620 130.592  0.00  0.00    +0.004 C 
ENDBRANCH  13  14
ENDBRANCH  12  13
ENDBRANCH  11  12
ENDBRANCH  10  11
ENDBRANCH   9  10
ENDBRANCH   1   9
TORSDOF 12
ENDMDL
MODEL 9
REMARK VINA RESULT:      -4.4      1.334      5.255
REMARK  Name = NuBBE_2110
REMARK  14 active torsions:
REMARK  status: ('A' for Active; 'I' for Inactive)
REMARK    1  A    between atoms: C_1  and  C_2
REMARK    2  A    between atoms: C_2  and  C_3
REMARK    3  A    between atoms: C_3  and  C_4
REMARK    4  A    between atoms: C_4  and  C_5
REMARK    5  A    between atoms: C_5  and  C_6
REMARK    6  A    between atoms: C_6  and  C_7
REMARK    7  A    between atoms: C_7  and  C_8
REMARK    8  A    between atoms: C_8  and  C_9
REMARK    9  A    between atoms: C_9  and  C_10
REMARK   10  A    between atoms: C_10  and  C_11
REMARK   11  A    between atoms: C_11  and  C_12
REMARK   12  A    between atoms: C_12  and  C_13
REMARK   13  A    between atoms: C_13  and  C_14
REMARK   14  A    between atoms: C_14  and  C_15
REMARK                            x       y       z     vdW  Elec       q    Type
REMARK                         _______ _______ _______ _____ _____    ______ ____
ROOT
ATOM      1  C   LIG A   1      -8.538  -3.708 124.989  0.00  0.00    -0.000 C 
ENDROOT
BRANCH   1   2
ATOM      2  C   LIG A   1      -9.310  -3.216 123.747  0.00  0.00    -0.000 C 
BRANCH   2   3
ATOM      3  C   LIG A   1      -8.675  -2.002 123.057  0.00  0.00    -0.000 C 
BRANCH   3   4
ATOM      4  C   LIG A   1      -7.148  -2.129 122.895  0.00  0.00    -0.000 C 
BRANCH   4   5
ATOM      5  C   LIG A   1      -6.425  -1.073 123.741  0.00  0.00    -0.000 C 
BRANCH   5   6
ATOM      6  C   LIG A   1      -5.532  -1.607 124.866  0.00  0.00    -0.000 C 
BRANCH   6   8
ATOM      7  C   LIG A   1      -6.884  -0.178 126.537  0.00  0.00    +0.004 C 
ATOM      8  C   LIG A   1      -5.614  -0.967 126.254  0.00  0.00    -0.003 C 
ENDBRANCH   6   8
ENDBRANCH   5   6
ENDBRANCH   4   5
ENDBRANCH   3   4
ENDBRANCH   2   3
ENDBRANCH   1   2
BRANCH   1   9
ATOM      9  C   LIG A   1      -9.037  -3.088 126.299  0.00  0.00    -0.000 C 
BRANCH   9  10
ATOM     10  C   LIG A   1      -8.901  -3.979 127.543  0.00  0.00    -0.000 C 
BRANCH  10  11
ATOM     11  C   LIG A   1      -8.541  -3.287 128.862  0.00  0.00    -0.000 C 
BRANCH  11  12
ATOM     12  C   LIG A   1      -7.036  -3.148 129.105  0.00  0.00    -0.000 C 
BRANCH  12  13
ATOM     13  C   LIG A   1      -6.691  -1.858 129.862  0.00  0.00    -0.000 C 
BRANCH  13  14
ATOM     14  C   LIG A   1      -7.925  -1.155 130.434  0.00  0.00    -0.003 C 
ATOM     15  C   LIG A   1      -7.996   0.323 130.078  0.00  0.00    +0.004 C 
ENDBRANCH  13  14
ENDBRANCH  12  13
ENDBRANCH  11  12
ENDBRANCH  10  11
ENDBRANCH   9  10
ENDBRANCH   1   9
TORSDOF 12
ENDMDL
