MODEL 1
REMARK VINA RESULT:      -8.4      0.000      0.000
REMARK  Name = NuBBE_272
REMARK  16 active torsions:
REMARK  status: ('A' for Active; 'I' for Inactive)
REMARK    1  A    between atoms: O_1  and  C_2
REMARK    2  A    between atoms: C_4  and  C_5
REMARK    3  A    between atoms: C_6  and  C_7
REMARK    4  A    between atoms: C_7  and  O_8
REMARK    5  A    between atoms: O_8  and  C_9
REMARK    6  A    between atoms: C_12  and  C_23
REMARK    7  A    between atoms: C_14  and  O_22
REMARK    8  A    between atoms: C_16  and  O_21
REMARK    9  A    between atoms: C_18  and  O_20
REMARK   10  A    between atoms: C_23  and  O_24
REMARK   11  A    between atoms: O_24  and  C_25
REMARK   12  A    between atoms: C_25  and  C_26
REMARK   13  A    between atoms: C_27  and  C_28
REMARK   14  A    between atoms: C_31  and  O_35
REMARK   15  A    between atoms: C_32  and  O_33
REMARK   16  A    between atoms: C_40  and  O_41
REMARK                            x       y       z     vdW  Elec       q    Type
REMARK                         _______ _______ _______ _____ _____    ______ ____
ROOT
ATOM      1  C   LIG A   1      -7.193   3.092 127.381  0.00  0.00    +0.343 C 
ATOM      2  O   LIG A   1      -7.949   2.975 128.589  0.00  0.00    -0.330 OA
ATOM      3  C   LIG A   1      -7.132   2.918 129.758  0.00  0.00    +0.191 C 
ATOM      4  C   LIG A   1      -6.374   4.249 129.915  0.00  0.00    +0.178 C 
ATOM      5  C   LIG A   1      -5.519   4.469 128.662  0.00  0.00    +0.180 C 
ATOM      6  C   LIG A   1      -6.359   4.383 127.391  0.00  0.00    +0.214 C 
ENDROOT
BRANCH   4   7
ATOM      7  O   LIG A   1      -5.497   4.284 131.042  0.00  0.00    -0.386 OA
ATOM      8  H   LIG A   1      -5.557   3.418 131.487  0.00  0.00    +0.210 HD
ENDBRANCH   4   7
BRANCH   5   9
ATOM      9  O   LIG A   1      -4.890   5.761 128.716  0.00  0.00    -0.386 OA
ATOM     10  H   LIG A   1      -4.090   5.629 129.266  0.00  0.00    +0.210 HD
ENDBRANCH   5   9
BRANCH   6  11
ATOM     11  O   LIG A   1      -5.490   4.450 126.251  0.00  0.00    -0.383 OA
ATOM     12  H   LIG A   1      -5.202   5.382 126.202  0.00  0.00    +0.210 HD
ENDBRANCH   6  11
BRANCH   3  13
ATOM     13  C   LIG A   1      -8.069   2.615 130.935  0.00  0.00    +0.267 C 
BRANCH  13  14
ATOM     14  O   LIG A   1      -7.916   3.544 132.006  0.00  0.00    -0.459 OA
BRANCH  14  15
ATOM     15  C   LIG A   1      -9.057   3.858 132.672  0.00  0.00    +0.332 C 
ATOM     16  O   LIG A   1      -9.313   3.597 133.834  0.00  0.00    -0.246 OA
BRANCH  15  17
ATOM     17  C   LIG A   1      -9.932   4.677 131.813  0.00  0.00    +0.092 C 
ATOM     18  C   LIG A   1      -9.752   5.999 131.676  0.00  0.00    +0.015 C 
BRANCH  18  19
ATOM     19  C   LIG A   1     -10.650   6.835 130.887  0.00  0.00    -0.021 A 
ATOM     20  C   LIG A   1     -11.993   6.990 131.266  0.00  0.00    +0.012 A 
ATOM     21  C   LIG A   1     -12.859   7.765 130.490  0.00  0.00    +0.050 A 
ATOM     22  C   LIG A   1     -12.374   8.377 129.340  0.00  0.00    +0.158 A 
ATOM     23  C   LIG A   1     -11.041   8.223 128.968  0.00  0.00    +0.159 A 
ATOM     24  C   LIG A   1     -10.174   7.456 129.730  0.00  0.00    +0.057 A 
BRANCH  22  25
ATOM     25  O   LIG A   1     -13.174   9.142 128.537  0.00  0.00    -0.503 OA
ATOM     26  H   LIG A   1     -13.450   8.599 127.780  0.00  0.00    +0.292 HD
ENDBRANCH  22  25
BRANCH  23  27
ATOM     27  O   LIG A   1     -10.573   8.825 127.836  0.00  0.00    -0.503 OA
ATOM     28  H   LIG A   1      -9.829   8.259 127.546  0.00  0.00    +0.292 HD
ENDBRANCH  23  27
ENDBRANCH  18  19
ENDBRANCH  15  17
ENDBRANCH  14  15
ENDBRANCH  13  14
ENDBRANCH   3  13
BRANCH   1  29
ATOM     29  O   LIG A   1      -8.132   3.224 126.317  0.00  0.00    -0.429 OA
BRANCH  29  30
ATOM     30  C   LIG A   1      -7.994   2.338 125.314  0.00  0.00    +0.334 C 
ATOM     31  O   LIG A   1      -8.134   1.123 125.372  0.00  0.00    -0.245 OA
BRANCH  30  33
ATOM     32  C   LIG A   1      -6.689   2.880 123.301  0.00  0.00    +0.015 C 
ATOM     33  C   LIG A   1      -7.792   3.064 124.045  0.00  0.00    +0.092 C 
BRANCH  32  36
ATOM     34  C   LIG A   1      -4.901   5.241 121.014  0.00  0.00    +0.159 A 
ATOM     35  C   LIG A   1      -5.264   4.513 122.143  0.00  0.00    +0.057 A 
ATOM     36  C   LIG A   1      -6.355   3.632 122.091  0.00  0.00    -0.021 A 
ATOM     37  C   LIG A   1      -7.052   3.471 120.888  0.00  0.00    +0.012 A 
ATOM     38  C   LIG A   1      -6.687   4.205 119.757  0.00  0.00    +0.050 A 
ATOM     39  C   LIG A   1      -5.615   5.092 119.826  0.00  0.00    +0.158 A 
BRANCH  39  40
ATOM     40  O   LIG A   1      -5.254   5.821 118.730  0.00  0.00    -0.503 OA
ATOM     41  H   LIG A   1      -4.685   5.277 118.166  0.00  0.00    +0.292 HD
ENDBRANCH  39  40
BRANCH  34  42
ATOM     42  O   LIG A   1      -3.846   6.110 121.063  0.00  0.00    -0.503 OA
ATOM     43  H   LIG A   1      -3.141   5.723 121.604  0.00  0.00    +0.292 HD
ENDBRANCH  34  42
ENDBRANCH  32  36
ENDBRANCH  30  33
ENDBRANCH  29  30
ENDBRANCH   1  29
TORSDOF 16
ENDMDL
MODEL 2
REMARK VINA RESULT:      -8.4      1.734      2.276
REMARK  Name = NuBBE_272
REMARK  16 active torsions:
REMARK  status: ('A' for Active; 'I' for Inactive)
REMARK    1  A    between atoms: O_1  and  C_2
REMARK    2  A    between atoms: C_4  and  C_5
REMARK    3  A    between atoms: C_6  and  C_7
REMARK    4  A    between atoms: C_7  and  O_8
REMARK    5  A    between atoms: O_8  and  C_9
REMARK    6  A    between atoms: C_12  and  C_23
REMARK    7  A    between atoms: C_14  and  O_22
REMARK    8  A    between atoms: C_16  and  O_21
REMARK    9  A    between atoms: C_18  and  O_20
REMARK   10  A    between atoms: C_23  and  O_24
REMARK   11  A    between atoms: O_24  and  C_25
REMARK   12  A    between atoms: C_25  and  C_26
REMARK   13  A    between atoms: C_27  and  C_28
REMARK   14  A    between atoms: C_31  and  O_35
REMARK   15  A    between atoms: C_32  and  O_33
REMARK   16  A    between atoms: C_40  and  O_41
REMARK                            x       y       z     vdW  Elec       q    Type
REMARK                         _______ _______ _______ _____ _____    ______ ____
ROOT
ATOM      1  C   LIG A   1      -3.794   3.170 127.966  0.00  0.00    +0.343 C 
ATOM      2  O   LIG A   1      -4.987   3.742 128.509  0.00  0.00    -0.330 OA
ATOM      3  C   LIG A   1      -4.736   4.664 129.569  0.00  0.00    +0.191 C 
ATOM      4  C   LIG A   1      -3.955   5.872 129.019  0.00  0.00    +0.178 C 
ATOM      5  C   LIG A   1      -2.642   5.364 128.413  0.00  0.00    +0.180 C 
ATOM      6  C   LIG A   1      -2.889   4.268 127.382  0.00  0.00    +0.214 C 
ENDROOT
BRANCH   4   7
ATOM      7  O   LIG A   1      -3.621   6.843 130.011  0.00  0.00    -0.386 OA
ATOM      8  H   LIG A   1      -3.812   7.724 129.635  0.00  0.00    +0.210 HD
ENDBRANCH   4   7
BRANCH   5   9
ATOM      9  O   LIG A   1      -1.941   6.448 127.779  0.00  0.00    -0.386 OA
ATOM     10  H   LIG A   1      -2.644   7.014 127.399  0.00  0.00    +0.210 HD
ENDBRANCH   5   9
BRANCH   6  11
ATOM     11  O   LIG A   1      -1.628   3.730 126.957  0.00  0.00    -0.383 OA
ATOM     12  H   LIG A   1      -1.207   3.392 127.771  0.00  0.00    +0.210 HD
ENDBRANCH   6  11
BRANCH   3  13
ATOM     13  C   LIG A   1      -6.101   5.043 130.155  0.00  0.00    +0.267 C 
BRANCH  13  14
ATOM     14  O   LIG A   1      -5.987   5.898 131.291  0.00  0.00    -0.459 OA
BRANCH  14  15
ATOM     15  C   LIG A   1      -7.097   5.983 132.071  0.00  0.00    +0.332 C 
ATOM     16  O   LIG A   1      -7.199   5.612 133.226  0.00  0.00    -0.246 OA
BRANCH  15  17
ATOM     17  C   LIG A   1      -8.164   6.703 131.352  0.00  0.00    +0.092 C 
ATOM     18  C   LIG A   1      -9.449   6.329 131.437  0.00  0.00    +0.015 C 
BRANCH  18  19
ATOM     19  C   LIG A   1     -10.508   6.985 130.677  0.00  0.00    -0.021 A 
ATOM     20  C   LIG A   1     -11.834   6.957 131.134  0.00  0.00    +0.012 A 
ATOM     21  C   LIG A   1     -12.850   7.559 130.387  0.00  0.00    +0.050 A 
ATOM     22  C   LIG A   1     -12.530   8.183 129.187  0.00  0.00    +0.158 A 
ATOM     23  C   LIG A   1     -11.213   8.210 128.737  0.00  0.00    +0.159 A 
ATOM     24  C   LIG A   1     -10.198   7.616 129.470  0.00  0.00    +0.057 A 
BRANCH  22  25
ATOM     25  O   LIG A   1     -13.482   8.783 128.410  0.00  0.00    -0.503 OA
ATOM     26  H   LIG A   1     -13.222   8.678 127.479  0.00  0.00    +0.292 HD
ENDBRANCH  22  25
BRANCH  23  27
ATOM     27  O   LIG A   1     -10.907   8.823 127.556  0.00  0.00    -0.503 OA
ATOM     28  H   LIG A   1     -11.540   9.566 127.493  0.00  0.00    +0.292 HD
ENDBRANCH  23  27
ENDBRANCH  18  19
ENDBRANCH  15  17
ENDBRANCH  14  15
ENDBRANCH  13  14
ENDBRANCH   3  13
BRANCH   1  29
ATOM     29  O   LIG A   1      -4.190   2.346 126.873  0.00  0.00    -0.429 OA
BRANCH  29  30
ATOM     30  C   LIG A   1      -5.399   2.624 126.350  0.00  0.00    +0.334 C 
ATOM     31  O   LIG A   1      -6.490   2.467 126.880  0.00  0.00    -0.245 OA
BRANCH  30  33
ATOM     32  C   LIG A   1      -6.117   3.175 124.063  0.00  0.00    +0.015 C 
ATOM     33  C   LIG A   1      -5.224   3.313 125.056  0.00  0.00    +0.092 C 
BRANCH  32  36
ATOM     34  C   LIG A   1      -4.809   5.262 121.246  0.00  0.00    +0.159 A 
ATOM     35  C   LIG A   1      -4.992   4.713 122.512  0.00  0.00    +0.057 A 
ATOM     36  C   LIG A   1      -5.972   3.730 122.717  0.00  0.00    -0.021 A 
ATOM     37  C   LIG A   1      -6.739   3.287 121.633  0.00  0.00    +0.012 A 
ATOM     38  C   LIG A   1      -6.555   3.841 120.365  0.00  0.00    +0.050 A 
ATOM     39  C   LIG A   1      -5.593   4.832 120.177  0.00  0.00    +0.158 A 
BRANCH  39  40
ATOM     40  O   LIG A   1      -5.409   5.388 118.944  0.00  0.00    -0.503 OA
ATOM     41  H   LIG A   1      -4.645   4.967 118.523  0.00  0.00    +0.292 HD
ENDBRANCH  39  40
BRANCH  34  42
ATOM     42  O   LIG A   1      -3.864   6.229 121.043  0.00  0.00    -0.503 OA
ATOM     43  H   LIG A   1      -4.088   6.731 120.245  0.00  0.00    +0.292 HD
ENDBRANCH  34  42
ENDBRANCH  32  36
ENDBRANCH  30  33
ENDBRANCH  29  30
ENDBRANCH   1  29
TORSDOF 16
ENDMDL
MODEL 3
REMARK VINA RESULT:      -8.3      5.071      9.771
REMARK  Name = NuBBE_272
REMARK  16 active torsions:
REMARK  status: ('A' for Active; 'I' for Inactive)
REMARK    1  A    between atoms: O_1  and  C_2
REMARK    2  A    between atoms: C_4  and  C_5
REMARK    3  A    between atoms: C_6  and  C_7
REMARK    4  A    between atoms: C_7  and  O_8
REMARK    5  A    between atoms: O_8  and  C_9
REMARK    6  A    between atoms: C_12  and  C_23
REMARK    7  A    between atoms: C_14  and  O_22
REMARK    8  A    between atoms: C_16  and  O_21
REMARK    9  A    between atoms: C_18  and  O_20
REMARK   10  A    between atoms: C_23  and  O_24
REMARK   11  A    between atoms: O_24  and  C_25
REMARK   12  A    between atoms: C_25  and  C_26
REMARK   13  A    between atoms: C_27  and  C_28
REMARK   14  A    between atoms: C_31  and  O_35
REMARK   15  A    between atoms: C_32  and  O_33
REMARK   16  A    between atoms: C_40  and  O_41
REMARK                            x       y       z     vdW  Elec       q    Type
REMARK                         _______ _______ _______ _____ _____    ______ ____
ROOT
ATOM      1  C   LIG A   1      -7.849  -1.363 124.446  0.00  0.00    +0.343 C 
ATOM      2  O   LIG A   1      -7.872  -0.368 125.472  0.00  0.00    -0.330 OA
ATOM      3  C   LIG A   1      -7.968   0.962 124.962  0.00  0.00    +0.191 C 
ATOM      4  C   LIG A   1      -9.316   1.134 124.239  0.00  0.00    +0.178 C 
ATOM      5  C   LIG A   1      -9.391   0.107 123.103  0.00  0.00    +0.180 C 
ATOM      6  C   LIG A   1      -9.141  -1.309 123.614  0.00  0.00    +0.214 C 
ENDROOT
BRANCH   4   7
ATOM      7  O   LIG A   1      -9.499   2.426 123.658  0.00  0.00    -0.386 OA
ATOM      8  H   LIG A   1      -8.618   2.764 123.410  0.00  0.00    +0.210 HD
ENDBRANCH   4   7
BRANCH   5   9
ATOM      9  O   LIG A   1     -10.687   0.154 122.482  0.00  0.00    -0.386 OA
ATOM     10  H   LIG A   1     -10.760   1.061 122.120  0.00  0.00    +0.210 HD
ENDBRANCH   5   9
BRANCH   6  11
ATOM     11  O   LIG A   1      -9.077  -2.206 122.496  0.00  0.00    -0.383 OA
ATOM     12  H   LIG A   1      -8.490  -1.767 121.849  0.00  0.00    +0.210 HD
ENDBRANCH   6  11
BRANCH   3  13
ATOM     13  C   LIG A   1      -7.801   1.906 126.160  0.00  0.00    +0.267 C 
BRANCH  13  14
ATOM     14  O   LIG A   1      -7.255   3.169 125.785  0.00  0.00    -0.459 OA
BRANCH  14  15
ATOM     15  C   LIG A   1      -5.960   3.146 125.374  0.00  0.00    +0.332 C 
ATOM     16  O   LIG A   1      -5.037   2.566 125.919  0.00  0.00    -0.246 OA
BRANCH  15  17
ATOM     17  C   LIG A   1      -5.829   3.847 124.083  0.00  0.00    +0.092 C 
ATOM     18  C   LIG A   1      -6.303   3.323 122.944  0.00  0.00    +0.015 C 
BRANCH  18  19
ATOM     19  C   LIG A   1      -6.119   3.969 121.648  0.00  0.00    -0.021 A 
ATOM     20  C   LIG A   1      -4.965   4.723 121.387  0.00  0.00    +0.012 A 
ATOM     21  C   LIG A   1      -4.808   5.368 120.157  0.00  0.00    +0.050 A 
ATOM     22  C   LIG A   1      -5.809   5.253 119.199  0.00  0.00    +0.158 A 
ATOM     23  C   LIG A   1      -6.952   4.503 119.461  0.00  0.00    +0.159 A 
ATOM     24  C   LIG A   1      -7.118   3.860 120.677  0.00  0.00    +0.057 A 
BRANCH  22  25
ATOM     25  O   LIG A   1      -5.714   5.866 117.980  0.00  0.00    -0.503 OA
ATOM     26  H   LIG A   1      -5.288   6.730 118.109  0.00  0.00    +0.292 HD
ENDBRANCH  22  25
BRANCH  23  27
ATOM     27  O   LIG A   1      -7.931   4.397 118.516  0.00  0.00    -0.503 OA
ATOM     28  H   LIG A   1      -7.451   4.399 117.663  0.00  0.00    +0.292 HD
ENDBRANCH  23  27
ENDBRANCH  18  19
ENDBRANCH  15  17
ENDBRANCH  14  15
ENDBRANCH  13  14
ENDBRANCH   3  13
BRANCH   1  29
ATOM     29  O   LIG A   1      -7.839  -2.630 125.098  0.00  0.00    -0.429 OA
BRANCH  29  30
ATOM     30  C   LIG A   1      -8.690  -2.752 126.134  0.00  0.00    +0.334 C 
ATOM     31  O   LIG A   1      -9.912  -2.699 126.100  0.00  0.00    -0.245 OA
BRANCH  30  33
ATOM     32  C   LIG A   1      -6.773  -2.526 127.657  0.00  0.00    +0.015 C 
ATOM     33  C   LIG A   1      -7.934  -3.124 127.346  0.00  0.00    +0.092 C 
BRANCH  32  36
ATOM     34  C   LIG A   1      -3.734  -2.730 129.833  0.00  0.00    +0.159 A 
ATOM     35  C   LIG A   1      -4.592  -2.408 128.785  0.00  0.00    +0.057 A 
ATOM     36  C   LIG A   1      -5.905  -2.903 128.774  0.00  0.00    -0.021 A 
ATOM     37  C   LIG A   1      -6.351  -3.695 129.840  0.00  0.00    +0.012 A 
ATOM     38  C   LIG A   1      -5.487  -4.017 130.888  0.00  0.00    +0.050 A 
ATOM     39  C   LIG A   1      -4.179  -3.538 130.877  0.00  0.00    +0.158 A 
BRANCH  39  40
ATOM     40  O   LIG A   1      -3.322  -3.853 131.892  0.00  0.00    -0.503 OA
ATOM     41  H   LIG A   1      -3.025  -4.768 131.778  0.00  0.00    +0.292 HD
ENDBRANCH  39  40
BRANCH  34  42
ATOM     42  O   LIG A   1      -2.450  -2.260 129.841  0.00  0.00    -0.503 OA
ATOM     43  H   LIG A   1      -2.312  -1.728 130.640  0.00  0.00    +0.292 HD
ENDBRANCH  34  42
ENDBRANCH  32  36
ENDBRANCH  30  33
ENDBRANCH  29  30
ENDBRANCH   1  29
TORSDOF 16
ENDMDL
MODEL 4
REMARK VINA RESULT:      -8.3      1.311      8.710
REMARK  Name = NuBBE_272
REMARK  16 active torsions:
REMARK  status: ('A' for Active; 'I' for Inactive)
REMARK    1  A    between atoms: O_1  and  C_2
REMARK    2  A    between atoms: C_4  and  C_5
REMARK    3  A    between atoms: C_6  and  C_7
REMARK    4  A    between atoms: C_7  and  O_8
REMARK    5  A    between atoms: O_8  and  C_9
REMARK    6  A    between atoms: C_12  and  C_23
REMARK    7  A    between atoms: C_14  and  O_22
REMARK    8  A    between atoms: C_16  and  O_21
REMARK    9  A    between atoms: C_18  and  O_20
REMARK   10  A    between atoms: C_23  and  O_24
REMARK   11  A    between atoms: O_24  and  C_25
REMARK   12  A    between atoms: C_25  and  C_26
REMARK   13  A    between atoms: C_27  and  C_28
REMARK   14  A    between atoms: C_31  and  O_35
REMARK   15  A    between atoms: C_32  and  O_33
REMARK   16  A    between atoms: C_40  and  O_41
REMARK                            x       y       z     vdW  Elec       q    Type
REMARK                         _______ _______ _______ _____ _____    ______ ____
ROOT
ATOM      1  C   LIG A   1      -5.459   5.374 129.766  0.00  0.00    +0.343 C 
ATOM      2  O   LIG A   1      -5.684   4.023 129.357  0.00  0.00    -0.330 OA
ATOM      3  C   LIG A   1      -5.487   3.820 127.958  0.00  0.00    +0.191 C 
ATOM      4  C   LIG A   1      -4.010   4.078 127.609  0.00  0.00    +0.178 C 
ATOM      5  C   LIG A   1      -3.663   5.518 128.006  0.00  0.00    +0.180 C 
ATOM      6  C   LIG A   1      -4.010   5.793 129.466  0.00  0.00    +0.214 C 
ENDROOT
BRANCH   4   7
ATOM      7  O   LIG A   1      -3.711   3.935 126.220  0.00  0.00    -0.386 OA
ATOM      8  H   LIG A   1      -3.956   4.771 125.779  0.00  0.00    +0.210 HD
ENDBRANCH   4   7
BRANCH   5   9
ATOM      9  O   LIG A   1      -2.259   5.758 127.809  0.00  0.00    -0.386 OA
ATOM     10  H   LIG A   1      -2.201   6.693 127.524  0.00  0.00    +0.210 HD
ENDBRANCH   5   9
BRANCH   6  11
ATOM     11  O   LIG A   1      -3.803   7.186 129.742  0.00  0.00    -0.383 OA
ATOM     12  H   LIG A   1      -4.437   7.402 130.453  0.00  0.00    +0.210 HD
ENDBRANCH   6  11
BRANCH   3  13
ATOM     13  C   LIG A   1      -5.938   2.386 127.653  0.00  0.00    +0.267 C 
BRANCH  13  14
ATOM     14  O   LIG A   1      -6.180   2.175 126.264  0.00  0.00    -0.459 OA
BRANCH  14  15
ATOM     15  C   LIG A   1      -7.347   2.685 125.791  0.00  0.00    +0.332 C 
ATOM     16  O   LIG A   1      -8.438   2.619 126.331  0.00  0.00    -0.246 OA
BRANCH  15  17
ATOM     17  C   LIG A   1      -7.099   3.447 124.554  0.00  0.00    +0.092 C 
ATOM     18  C   LIG A   1      -6.535   2.881 123.477  0.00  0.00    +0.015 C 
BRANCH  18  19
ATOM     19  C   LIG A   1      -6.218   3.637 122.270  0.00  0.00    -0.021 A 
ATOM     20  C   LIG A   1      -6.944   3.428 121.088  0.00  0.00    +0.012 A 
ATOM     21  C   LIG A   1      -6.616   4.131 119.925  0.00  0.00    +0.050 A 
ATOM     22  C   LIG A   1      -5.562   5.036 119.955  0.00  0.00    +0.158 A 
ATOM     23  C   LIG A   1      -4.844   5.242 121.130  0.00  0.00    +0.159 A 
ATOM     24  C   LIG A   1      -5.161   4.551 122.289  0.00  0.00    +0.057 A 
BRANCH  22  25
ATOM     25  O   LIG A   1      -5.190   5.748 118.849  0.00  0.00    -0.503 OA
ATOM     26  H   LIG A   1      -4.917   5.117 118.161  0.00  0.00    +0.292 HD
ENDBRANCH  22  25
BRANCH  23  27
ATOM     27  O   LIG A   1      -3.808   6.131 121.152  0.00  0.00    -0.503 OA
ATOM     28  H   LIG A   1      -3.149   5.726 121.752  0.00  0.00    +0.292 HD
ENDBRANCH  23  27
ENDBRANCH  18  19
ENDBRANCH  15  17
ENDBRANCH  14  15
ENDBRANCH  13  14
ENDBRANCH   3  13
BRANCH   1  29
ATOM     29  O   LIG A   1      -5.606   5.408 131.182  0.00  0.00    -0.429 OA
BRANCH  29  30
ATOM     30  C   LIG A   1      -6.780   4.946 131.651  0.00  0.00    +0.334 C 
ATOM     31  O   LIG A   1      -6.969   3.930 132.306  0.00  0.00    -0.245 OA
BRANCH  30  33
ATOM     32  C   LIG A   1      -9.034   5.584 130.904  0.00  0.00    +0.015 C 
ATOM     33  C   LIG A   1      -7.837   5.944 131.391  0.00  0.00    +0.092 C 
BRANCH  32  36
ATOM     34  C   LIG A   1     -10.908   8.155 128.933  0.00  0.00    +0.159 A 
ATOM     35  C   LIG A   1      -9.918   7.269 129.348  0.00  0.00    +0.057 A 
ATOM     36  C   LIG A   1     -10.098   6.511 130.515  0.00  0.00    -0.021 A 
ATOM     37  C   LIG A   1     -11.291   6.633 131.238  0.00  0.00    +0.012 A 
ATOM     38  C   LIG A   1     -12.281   7.525 130.819  0.00  0.00    +0.050 A 
ATOM     39  C   LIG A   1     -12.083   8.287 129.670  0.00  0.00    +0.158 A 
BRANCH  39  40
ATOM     40  O   LIG A   1     -13.039   9.169 129.255  0.00  0.00    -0.503 OA
ATOM     41  H   LIG A   1     -13.779   8.672 128.875  0.00  0.00    +0.292 HD
ENDBRANCH  39  40
BRANCH  34  42
ATOM     42  O   LIG A   1     -10.732   8.904 127.802  0.00  0.00    -0.503 OA
ATOM     43  H   LIG A   1     -11.299   9.689 127.849  0.00  0.00    +0.292 HD
ENDBRANCH  34  42
ENDBRANCH  32  36
ENDBRANCH  30  33
ENDBRANCH  29  30
ENDBRANCH   1  29
TORSDOF 16
ENDMDL
MODEL 5
REMARK VINA RESULT:      -8.2      3.273      9.183
REMARK  Name = NuBBE_272
REMARK  16 active torsions:
REMARK  status: ('A' for Active; 'I' for Inactive)
REMARK    1  A    between atoms: O_1  and  C_2
REMARK    2  A    between atoms: C_4  and  C_5
REMARK    3  A    between atoms: C_6  and  C_7
REMARK    4  A    between atoms: C_7  and  O_8
REMARK    5  A    between atoms: O_8  and  C_9
REMARK    6  A    between atoms: C_12  and  C_23
REMARK    7  A    between atoms: C_14  and  O_22
REMARK    8  A    between atoms: C_16  and  O_21
REMARK    9  A    between atoms: C_18  and  O_20
REMARK   10  A    between atoms: C_23  and  O_24
REMARK   11  A    between atoms: O_24  and  C_25
REMARK   12  A    between atoms: C_25  and  C_26
REMARK   13  A    between atoms: C_27  and  C_28
REMARK   14  A    between atoms: C_31  and  O_35
REMARK   15  A    between atoms: C_32  and  O_33
REMARK   16  A    between atoms: C_40  and  O_41
REMARK                            x       y       z     vdW  Elec       q    Type
REMARK                         _______ _______ _______ _____ _____    ______ ____
ROOT
ATOM      1  C   LIG A   1      -7.681   3.545 126.867  0.00  0.00    +0.343 C 
ATOM      2  O   LIG A   1      -8.326   2.445 126.221  0.00  0.00    -0.330 OA
ATOM      3  C   LIG A   1      -8.928   2.800 124.976  0.00  0.00    +0.191 C 
ATOM      4  C   LIG A   1      -7.831   3.230 123.985  0.00  0.00    +0.178 C 
ATOM      5  C   LIG A   1      -7.075   4.420 124.585  0.00  0.00    +0.180 C 
ATOM      6  C   LIG A   1      -6.553   4.102 125.983  0.00  0.00    +0.214 C 
ENDROOT
BRANCH   4   7
ATOM      7  O   LIG A   1      -8.332   3.640 122.712  0.00  0.00    -0.386 OA
ATOM      8  H   LIG A   1      -7.680   3.367 122.038  0.00  0.00    +0.210 HD
ENDBRANCH   4   7
BRANCH   5   9
ATOM      9  O   LIG A   1      -5.963   4.771 123.743  0.00  0.00    -0.386 OA
ATOM     10  H   LIG A   1      -5.513   3.923 123.553  0.00  0.00    +0.210 HD
ENDBRANCH   5   9
BRANCH   6  11
ATOM     11  O   LIG A   1      -5.985   5.291 126.552  0.00  0.00    -0.383 OA
ATOM     12  H   LIG A   1      -5.084   5.349 126.178  0.00  0.00    +0.210 HD
ENDBRANCH   6  11
BRANCH   3  13
ATOM     13  C   LIG A   1      -9.721   1.575 124.506  0.00  0.00    +0.267 C 
BRANCH  13  14
ATOM     14  O   LIG A   1      -8.975   0.754 123.611  0.00  0.00    -0.459 OA
BRANCH  14  15
ATOM     15  C   LIG A   1      -9.108  -0.585 123.798  0.00  0.00    +0.332 C 
ATOM     16  O   LIG A   1      -9.732  -1.357 123.091  0.00  0.00    -0.246 OA
BRANCH  15  17
ATOM     17  C   LIG A   1      -8.287  -1.018 124.943  0.00  0.00    +0.092 C 
ATOM     18  C   LIG A   1      -8.693  -1.985 125.779  0.00  0.00    +0.015 C 
BRANCH  18  19
ATOM     19  C   LIG A   1      -7.925  -2.376 126.957  0.00  0.00    -0.021 A 
ATOM     20  C   LIG A   1      -8.502  -3.190 127.943  0.00  0.00    +0.012 A 
ATOM     21  C   LIG A   1      -7.775  -3.536 129.086  0.00  0.00    +0.050 A 
ATOM     22  C   LIG A   1      -6.477  -3.061 129.232  0.00  0.00    +0.158 A 
ATOM     23  C   LIG A   1      -5.907  -2.255 128.251  0.00  0.00    +0.159 A 
ATOM     24  C   LIG A   1      -6.619  -1.906 127.114  0.00  0.00    +0.057 A 
BRANCH  22  25
ATOM     25  O   LIG A   1      -5.719  -3.360 130.330  0.00  0.00    -0.503 OA
ATOM     26  H   LIG A   1      -5.083  -2.637 130.464  0.00  0.00    +0.292 HD
ENDBRANCH  22  25
BRANCH  23  27
ATOM     27  O   LIG A   1      -4.632  -1.790 128.402  0.00  0.00    -0.503 OA
ATOM     28  H   LIG A   1      -4.072  -2.591 128.355  0.00  0.00    +0.292 HD
ENDBRANCH  23  27
ENDBRANCH  18  19
ENDBRANCH  15  17
ENDBRANCH  14  15
ENDBRANCH  13  14
ENDBRANCH   3  13
BRANCH   1  29
ATOM     29  O   LIG A   1      -7.059   3.029 128.041  0.00  0.00    -0.429 OA
BRANCH  29  30
ATOM     30  C   LIG A   1      -7.802   3.088 129.161  0.00  0.00    +0.334 C 
ATOM     31  O   LIG A   1      -7.817   2.285 130.084  0.00  0.00    -0.245 OA
BRANCH  30  33
ATOM     32  C   LIG A   1      -9.625   4.539 129.946  0.00  0.00    +0.015 C 
ATOM     33  C   LIG A   1      -8.518   4.378 129.204  0.00  0.00    +0.092 C 
BRANCH  32  36
ATOM     34  C   LIG A   1     -10.981   7.889 128.976  0.00  0.00    +0.159 A 
ATOM     35  C   LIG A   1     -10.207   6.732 129.003  0.00  0.00    +0.057 A 
ATOM     36  C   LIG A   1     -10.457   5.742 129.966  0.00  0.00    -0.021 A 
ATOM     37  C   LIG A   1     -11.508   5.917 130.875  0.00  0.00    +0.012 A 
ATOM     38  C   LIG A   1     -12.280   7.079 130.846  0.00  0.00    +0.050 A 
ATOM     39  C   LIG A   1     -12.010   8.065 129.899  0.00  0.00    +0.158 A 
BRANCH  39  40
ATOM     40  O   LIG A   1     -12.752   9.210 129.866  0.00  0.00    -0.503 OA
ATOM     41  H   LIG A   1     -12.899   9.514 130.774  0.00  0.00    +0.292 HD
ENDBRANCH  39  40
BRANCH  34  42
ATOM     42  O   LIG A   1     -10.734   8.861 128.047  0.00  0.00    -0.503 OA
ATOM     43  H   LIG A   1     -10.448   8.445 127.219  0.00  0.00    +0.292 HD
ENDBRANCH  34  42
ENDBRANCH  32  36
ENDBRANCH  30  33
ENDBRANCH  29  30
ENDBRANCH   1  29
TORSDOF 16
ENDMDL
MODEL 6
REMARK VINA RESULT:      -8.2      1.693      2.614
REMARK  Name = NuBBE_272
REMARK  16 active torsions:
REMARK  status: ('A' for Active; 'I' for Inactive)
REMARK    1  A    between atoms: O_1  and  C_2
REMARK    2  A    between atoms: C_4  and  C_5
REMARK    3  A    between atoms: C_6  and  C_7
REMARK    4  A    between atoms: C_7  and  O_8
REMARK    5  A    between atoms: O_8  and  C_9
REMARK    6  A    between atoms: C_12  and  C_23
REMARK    7  A    between atoms: C_14  and  O_22
REMARK    8  A    between atoms: C_16  and  O_21
REMARK    9  A    between atoms: C_18  and  O_20
REMARK   10  A    between atoms: C_23  and  O_24
REMARK   11  A    between atoms: O_24  and  C_25
REMARK   12  A    between atoms: C_25  and  C_26
REMARK   13  A    between atoms: C_27  and  C_28
REMARK   14  A    between atoms: C_31  and  O_35
REMARK   15  A    between atoms: C_32  and  O_33
REMARK   16  A    between atoms: C_40  and  O_41
REMARK                            x       y       z     vdW  Elec       q    Type
REMARK                         _______ _______ _______ _____ _____    ______ ____
ROOT
ATOM      1  C   LIG A   1      -8.478   1.319 126.659  0.00  0.00    +0.343 C 
ATOM      2  O   LIG A   1      -8.222   2.364 127.601  0.00  0.00    -0.330 OA
ATOM      3  C   LIG A   1      -8.484   1.980 128.950  0.00  0.00    +0.191 C 
ATOM      4  C   LIG A   1      -7.511   0.858 129.358  0.00  0.00    +0.178 C 
ATOM      5  C   LIG A   1      -7.710  -0.325 128.405  0.00  0.00    +0.180 C 
ATOM      6  C   LIG A   1      -7.581   0.104 126.947  0.00  0.00    +0.214 C 
ENDROOT
BRANCH   4   7
ATOM      7  O   LIG A   1      -7.711   0.375 130.687  0.00  0.00    -0.386 OA
ATOM      8  H   LIG A   1      -8.104   1.102 131.207  0.00  0.00    +0.210 HD
ENDBRANCH   4   7
BRANCH   5   9
ATOM      9  O   LIG A   1      -6.734  -1.346 128.677  0.00  0.00    -0.386 OA
ATOM     10  H   LIG A   1      -6.318  -1.534 127.810  0.00  0.00    +0.210 HD
ENDBRANCH   5   9
BRANCH   6  11
ATOM     11  O   LIG A   1      -7.919  -1.005 126.100  0.00  0.00    -0.383 OA
ATOM     12  H   LIG A   1      -8.146  -0.607 125.238  0.00  0.00    +0.210 HD
ENDBRANCH   6  11
BRANCH   3  13
ATOM     13  C   LIG A   1      -8.338   3.246 129.804  0.00  0.00    +0.267 C 
BRANCH  13  14
ATOM     14  O   LIG A   1      -8.320   2.961 131.201  0.00  0.00    -0.459 OA
BRANCH  14  15
ATOM     15  C   LIG A   1      -9.270   3.594 131.938  0.00  0.00    +0.332 C 
ATOM     16  O   LIG A   1      -9.505   3.420 133.120  0.00  0.00    -0.246 OA
BRANCH  15  17
ATOM     17  C   LIG A   1      -9.931   4.631 131.123  0.00  0.00    +0.092 C 
ATOM     18  C   LIG A   1     -10.273   5.822 131.637  0.00  0.00    +0.015 C 
BRANCH  18  19
ATOM     19  C   LIG A   1     -10.990   6.831 130.865  0.00  0.00    -0.021 A 
ATOM     20  C   LIG A   1     -12.294   7.206 131.224  0.00  0.00    +0.012 A 
ATOM     21  C   LIG A   1     -12.990   8.150 130.463  0.00  0.00    +0.050 A 
ATOM     22  C   LIG A   1     -12.376   8.707 129.347  0.00  0.00    +0.158 A 
ATOM     23  C   LIG A   1     -11.082   8.333 128.995  0.00  0.00    +0.159 A 
ATOM     24  C   LIG A   1     -10.383   7.399 129.742  0.00  0.00    +0.057 A 
BRANCH  22  25
ATOM     25  O   LIG A   1     -13.009   9.630 128.561  0.00  0.00    -0.503 OA
ATOM     26  H   LIG A   1     -12.346  10.270 128.253  0.00  0.00    +0.292 HD
ENDBRANCH  22  25
BRANCH  23  27
ATOM     27  O   LIG A   1     -10.487   8.883 127.897  0.00  0.00    -0.503 OA
ATOM     28  H   LIG A   1     -10.380   8.135 127.275  0.00  0.00    +0.292 HD
ENDBRANCH  23  27
ENDBRANCH  18  19
ENDBRANCH  15  17
ENDBRANCH  14  15
ENDBRANCH  13  14
ENDBRANCH   3  13
BRANCH   1  29
ATOM     29  O   LIG A   1      -8.095   1.812 125.379  0.00  0.00    -0.429 OA
BRANCH  29  30
ATOM     30  C   LIG A   1      -9.091   1.915 124.479  0.00  0.00    +0.334 C 
ATOM     31  O   LIG A   1     -10.262   1.593 124.629  0.00  0.00    -0.245 OA
BRANCH  30  33
ATOM     32  C   LIG A   1      -7.290   2.715 123.008  0.00  0.00    +0.015 C 
ATOM     33  C   LIG A   1      -8.601   2.636 123.288  0.00  0.00    +0.092 C 
BRANCH  32  36
ATOM     34  C   LIG A   1      -6.955   4.392 119.679  0.00  0.00    +0.159 A 
ATOM     35  C   LIG A   1      -7.462   3.648 120.741  0.00  0.00    +0.057 A 
ATOM     36  C   LIG A   1      -6.709   3.496 121.915  0.00  0.00    -0.021 A 
ATOM     37  C   LIG A   1      -5.461   4.122 122.018  0.00  0.00    +0.012 A 
ATOM     38  C   LIG A   1      -4.955   4.866 120.950  0.00  0.00    +0.050 A 
ATOM     39  C   LIG A   1      -5.702   4.993 119.781  0.00  0.00    +0.158 A 
BRANCH  39  40
ATOM     40  O   LIG A   1      -5.215   5.710 118.727  0.00  0.00    -0.503 OA
ATOM     41  H   LIG A   1      -4.246   5.687 118.754  0.00  0.00    +0.292 HD
ENDBRANCH  39  40
BRANCH  34  42
ATOM     42  O   LIG A   1      -7.680   4.533 118.528  0.00  0.00    -0.503 OA
ATOM     43  H   LIG A   1      -7.989   3.662 118.238  0.00  0.00    +0.292 HD
ENDBRANCH  34  42
ENDBRANCH  32  36
ENDBRANCH  30  33
ENDBRANCH  29  30
ENDBRANCH   1  29
TORSDOF 16
ENDMDL
MODEL 7
REMARK VINA RESULT:      -8.1      2.972      8.623
REMARK  Name = NuBBE_272
REMARK  16 active torsions:
REMARK  status: ('A' for Active; 'I' for Inactive)
REMARK    1  A    between atoms: O_1  and  C_2
REMARK    2  A    between atoms: C_4  and  C_5
REMARK    3  A    between atoms: C_6  and  C_7
REMARK    4  A    between atoms: C_7  and  O_8
REMARK    5  A    between atoms: O_8  and  C_9
REMARK    6  A    between atoms: C_12  and  C_23
REMARK    7  A    between atoms: C_14  and  O_22
REMARK    8  A    between atoms: C_16  and  O_21
REMARK    9  A    between atoms: C_18  and  O_20
REMARK   10  A    between atoms: C_23  and  O_24
REMARK   11  A    between atoms: O_24  and  C_25
REMARK   12  A    between atoms: C_25  and  C_26
REMARK   13  A    between atoms: C_27  and  C_28
REMARK   14  A    between atoms: C_31  and  O_35
REMARK   15  A    between atoms: C_32  and  O_33
REMARK   16  A    between atoms: C_40  and  O_41
REMARK                            x       y       z     vdW  Elec       q    Type
REMARK                         _______ _______ _______ _____ _____    ______ ____
ROOT
ATOM      1  C   LIG A   1      -8.198   1.667 131.089  0.00  0.00    +0.343 C 
ATOM      2  O   LIG A   1      -7.266   2.012 130.061  0.00  0.00    -0.330 OA
ATOM      3  C   LIG A   1      -7.860   2.741 128.987  0.00  0.00    +0.191 C 
ATOM      4  C   LIG A   1      -8.365   4.098 129.510  0.00  0.00    +0.178 C 
ATOM      5  C   LIG A   1      -9.386   3.838 130.624  0.00  0.00    +0.180 C 
ATOM      6  C   LIG A   1      -8.809   2.934 131.709  0.00  0.00    +0.214 C 
ENDROOT
BRANCH   4   7
ATOM      7  O   LIG A   1      -9.011   4.896 128.516  0.00  0.00    -0.386 OA
ATOM      8  H   LIG A   1      -8.569   5.766 128.506  0.00  0.00    +0.210 HD
ENDBRANCH   4   7
BRANCH   5   9
ATOM      9  O   LIG A   1      -9.788   5.083 131.221  0.00  0.00    -0.386 OA
ATOM     10  H   LIG A   1      -9.612   4.971 132.178  0.00  0.00    +0.210 HD
ENDBRANCH   5   9
BRANCH   6  11
ATOM     11  O   LIG A   1      -9.846   2.607 132.645  0.00  0.00    -0.383 OA
ATOM     12  H   LIG A   1      -9.434   1.985 133.276  0.00  0.00    +0.210 HD
ENDBRANCH   6  11
BRANCH   3  13
ATOM     13  C   LIG A   1      -6.787   2.874 127.899  0.00  0.00    +0.267 C 
BRANCH  13  14
ATOM     14  O   LIG A   1      -7.277   3.524 126.728  0.00  0.00    -0.459 OA
BRANCH  14  15
ATOM     15  C   LIG A   1      -7.505   2.713 125.662  0.00  0.00    +0.332 C 
ATOM     16  O   LIG A   1      -7.928   1.571 125.699  0.00  0.00    -0.246 OA
BRANCH  15  17
ATOM     17  C   LIG A   1      -7.270   3.451 124.408  0.00  0.00    +0.092 C 
ATOM     18  C   LIG A   1      -6.529   2.939 123.415  0.00  0.00    +0.015 C 
BRANCH  18  19
ATOM     19  C   LIG A   1      -6.228   3.684 122.197  0.00  0.00    -0.021 A 
ATOM     20  C   LIG A   1      -6.956   3.449 121.021  0.00  0.00    +0.012 A 
ATOM     21  C   LIG A   1      -6.643   4.142 119.848  0.00  0.00    +0.050 A 
ATOM     22  C   LIG A   1      -5.602   5.063 119.862  0.00  0.00    +0.158 A 
ATOM     23  C   LIG A   1      -4.883   5.295 121.031  0.00  0.00    +0.159 A 
ATOM     24  C   LIG A   1      -5.185   4.614 122.200  0.00  0.00    +0.057 A 
BRANCH  22  25
ATOM     25  O   LIG A   1      -5.246   5.766 118.745  0.00  0.00    -0.503 OA
ATOM     26  H   LIG A   1      -5.870   5.539 118.034  0.00  0.00    +0.292 HD
ENDBRANCH  22  25
BRANCH  23  27
ATOM     27  O   LIG A   1      -3.861   6.200 121.037  0.00  0.00    -0.503 OA
ATOM     28  H   LIG A   1      -4.164   6.917 120.445  0.00  0.00    +0.292 HD
ENDBRANCH  23  27
ENDBRANCH  18  19
ENDBRANCH  15  17
ENDBRANCH  14  15
ENDBRANCH  13  14
ENDBRANCH   3  13
BRANCH   1  29
ATOM     29  O   LIG A   1      -7.456   1.027 132.123  0.00  0.00    -0.429 OA
BRANCH  29  30
ATOM     30  C   LIG A   1      -7.700  -0.287 132.279  0.00  0.00    +0.334 C 
ATOM     31  O   LIG A   1      -7.637  -0.935 133.316  0.00  0.00    -0.245 OA
BRANCH  30  33
ATOM     32  C   LIG A   1      -7.533  -1.749 130.309  0.00  0.00    +0.015 C 
ATOM     33  C   LIG A   1      -8.224  -0.840 131.015  0.00  0.00    +0.092 C 
BRANCH  32  36
ATOM     34  C   LIG A   1      -7.933  -1.972 126.595  0.00  0.00    +0.159 A 
ATOM     35  C   LIG A   1      -7.593  -1.511 127.864  0.00  0.00    +0.057 A 
ATOM     36  C   LIG A   1      -7.922  -2.270 128.998  0.00  0.00    -0.021 A 
ATOM     37  C   LIG A   1      -8.564  -3.503 128.838  0.00  0.00    +0.012 A 
ATOM     38  C   LIG A   1      -8.904  -3.961 127.564  0.00  0.00    +0.050 A 
ATOM     39  C   LIG A   1      -8.592  -3.190 126.446  0.00  0.00    +0.158 A 
BRANCH  39  40
ATOM     40  O   LIG A   1      -8.928  -3.623 125.196  0.00  0.00    -0.503 OA
ATOM     41  H   LIG A   1      -9.454  -2.937 124.758  0.00  0.00    +0.292 HD
ENDBRANCH  39  40
BRANCH  34  42
ATOM     42  O   LIG A   1      -7.625  -1.231 125.487  0.00  0.00    -0.503 OA
ATOM     43  H   LIG A   1      -8.365  -0.639 125.286  0.00  0.00    +0.292 HD
ENDBRANCH  34  42
ENDBRANCH  32  36
ENDBRANCH  30  33
ENDBRANCH  29  30
ENDBRANCH   1  29
TORSDOF 16
ENDMDL
MODEL 8
REMARK VINA RESULT:      -8.1      3.414      5.961
REMARK  Name = NuBBE_272
REMARK  16 active torsions:
REMARK  status: ('A' for Active; 'I' for Inactive)
REMARK    1  A    between atoms: O_1  and  C_2
REMARK    2  A    between atoms: C_4  and  C_5
REMARK    3  A    between atoms: C_6  and  C_7
REMARK    4  A    between atoms: C_7  and  O_8
REMARK    5  A    between atoms: O_8  and  C_9
REMARK    6  A    between atoms: C_12  and  C_23
REMARK    7  A    between atoms: C_14  and  O_22
REMARK    8  A    between atoms: C_16  and  O_21
REMARK    9  A    between atoms: C_18  and  O_20
REMARK   10  A    between atoms: C_23  and  O_24
REMARK   11  A    between atoms: O_24  and  C_25
REMARK   12  A    between atoms: C_25  and  C_26
REMARK   13  A    between atoms: C_27  and  C_28
REMARK   14  A    between atoms: C_31  and  O_35
REMARK   15  A    between atoms: C_32  and  O_33
REMARK   16  A    between atoms: C_40  and  O_41
REMARK                            x       y       z     vdW  Elec       q    Type
REMARK                         _______ _______ _______ _____ _____    ______ ____
ROOT
ATOM      1  C   LIG A   1      -7.861  -0.312 124.885  0.00  0.00    +0.343 C 
ATOM      2  O   LIG A   1      -8.099  -1.026 126.101  0.00  0.00    -0.330 OA
ATOM      3  C   LIG A   1      -8.546  -2.364 125.887  0.00  0.00    +0.191 C 
ATOM      4  C   LIG A   1      -7.434  -3.168 125.189  0.00  0.00    +0.178 C 
ATOM      5  C   LIG A   1      -7.105  -2.483 123.858  0.00  0.00    +0.180 C 
ATOM      6  C   LIG A   1      -6.769  -1.009 124.056  0.00  0.00    +0.214 C 
ENDROOT
BRANCH   4   7
ATOM      7  O   LIG A   1      -7.794  -4.519 124.897  0.00  0.00    -0.386 OA
ATOM      8  H   LIG A   1      -7.415  -4.741 124.025  0.00  0.00    +0.210 HD
ENDBRANCH   4   7
BRANCH   5   9
ATOM      9  O   LIG A   1      -5.985  -3.134 123.233  0.00  0.00    -0.386 OA
ATOM     10  H   LIG A   1      -5.867  -3.968 123.733  0.00  0.00    +0.210 HD
ENDBRANCH   5   9
BRANCH   6  11
ATOM     11  O   LIG A   1      -6.613  -0.386 122.773  0.00  0.00    -0.383 OA
ATOM     12  H   LIG A   1      -6.961  -1.035 122.130  0.00  0.00    +0.210 HD
ENDBRANCH   6  11
BRANCH   3  13
ATOM     13  C   LIG A   1      -8.925  -2.926 127.263  0.00  0.00    +0.267 C 
BRANCH  13  14
ATOM     14  O   LIG A   1      -7.869  -3.684 127.851  0.00  0.00    -0.459 OA
BRANCH  14  15
ATOM     15  C   LIG A   1      -7.355  -3.173 129.000  0.00  0.00    +0.332 C 
ATOM     16  O   LIG A   1      -6.361  -3.565 129.585  0.00  0.00    -0.246 OA
BRANCH  15  17
ATOM     17  C   LIG A   1      -8.115  -1.976 129.404  0.00  0.00    +0.092 C 
ATOM     18  C   LIG A   1      -7.504  -0.862 129.831  0.00  0.00    +0.015 C 
BRANCH  18  19
ATOM     19  C   LIG A   1      -8.242   0.306 130.302  0.00  0.00    -0.021 A 
ATOM     20  C   LIG A   1      -8.895   0.281 131.543  0.00  0.00    +0.012 A 
ATOM     21  C   LIG A   1      -9.628   1.390 131.977  0.00  0.00    +0.050 A 
ATOM     22  C   LIG A   1      -9.703   2.513 131.161  0.00  0.00    +0.158 A 
ATOM     23  C   LIG A   1      -9.053   2.534 129.930  0.00  0.00    +0.159 A 
ATOM     24  C   LIG A   1      -8.323   1.441 129.491  0.00  0.00    +0.057 A 
BRANCH  22  25
ATOM     25  O   LIG A   1     -10.410   3.624 131.528  0.00  0.00    -0.503 OA
ATOM     26  H   LIG A   1     -10.790   3.464 132.408  0.00  0.00    +0.292 HD
ENDBRANCH  22  25
BRANCH  23  27
ATOM     27  O   LIG A   1      -9.134   3.640 129.134  0.00  0.00    -0.503 OA
ATOM     28  H   LIG A   1      -8.519   4.283 129.543  0.00  0.00    +0.292 HD
ENDBRANCH  23  27
ENDBRANCH  18  19
ENDBRANCH  15  17
ENDBRANCH  14  15
ENDBRANCH  13  14
ENDBRANCH   3  13
BRANCH   1  29
ATOM     29  O   LIG A   1      -7.342   0.964 125.249  0.00  0.00    -0.429 OA
BRANCH  29  30
ATOM     30  C   LIG A   1      -8.185   1.999 125.076  0.00  0.00    +0.334 C 
ATOM     31  O   LIG A   1      -8.970   2.461 125.894  0.00  0.00    -0.245 OA
BRANCH  30  33
ATOM     32  C   LIG A   1      -6.680   2.971 123.391  0.00  0.00    +0.015 C 
ATOM     33  C   LIG A   1      -7.922   2.630 123.767  0.00  0.00    +0.092 C 
BRANCH  32  36
ATOM     34  C   LIG A   1      -4.866   5.257 121.049  0.00  0.00    +0.159 A 
ATOM     35  C   LIG A   1      -5.234   4.557 122.195  0.00  0.00    +0.057 A 
ATOM     36  C   LIG A   1      -6.340   3.694 122.165  0.00  0.00    -0.021 A 
ATOM     37  C   LIG A   1      -7.048   3.523 120.970  0.00  0.00    +0.012 A 
ATOM     38  C   LIG A   1      -6.676   4.228 119.823  0.00  0.00    +0.050 A 
ATOM     39  C   LIG A   1      -5.589   5.098 119.869  0.00  0.00    +0.158 A 
BRANCH  39  40
ATOM     40  O   LIG A   1      -5.222   5.800 118.758  0.00  0.00    -0.503 OA
ATOM     41  H   LIG A   1      -5.807   6.567 118.665  0.00  0.00    +0.292 HD
ENDBRANCH  39  40
BRANCH  34  42
ATOM     42  O   LIG A   1      -3.795   6.108 121.076  0.00  0.00    -0.503 OA
ATOM     43  H   LIG A   1      -4.060   6.939 121.497  0.00  0.00    +0.292 HD
ENDBRANCH  34  42
ENDBRANCH  32  36
ENDBRANCH  30  33
ENDBRANCH  29  30
ENDBRANCH   1  29
TORSDOF 16
ENDMDL
MODEL 9
REMARK VINA RESULT:      -7.9      2.812      8.801
REMARK  Name = NuBBE_272
REMARK  16 active torsions:
REMARK  status: ('A' for Active; 'I' for Inactive)
REMARK    1  A    between atoms: O_1  and  C_2
REMARK    2  A    between atoms: C_4  and  C_5
REMARK    3  A    between atoms: C_6  and  C_7
REMARK    4  A    between atoms: C_7  and  O_8
REMARK    5  A    between atoms: O_8  and  C_9
REMARK    6  A    between atoms: C_12  and  C_23
REMARK    7  A    between atoms: C_14  and  O_22
REMARK    8  A    between atoms: C_16  and  O_21
REMARK    9  A    between atoms: C_18  and  O_20
REMARK   10  A    between atoms: C_23  and  O_24
REMARK   11  A    between atoms: O_24  and  C_25
REMARK   12  A    between atoms: C_25  and  C_26
REMARK   13  A    between atoms: C_27  and  C_28
REMARK   14  A    between atoms: C_31  and  O_35
REMARK   15  A    between atoms: C_32  and  O_33
REMARK   16  A    between atoms: C_40  and  O_41
REMARK                            x       y       z     vdW  Elec       q    Type
REMARK                         _______ _______ _______ _____ _____    ______ ____
ROOT
ATOM      1  C   LIG A   1      -5.280   6.008 130.420  0.00  0.00    +0.343 C 
ATOM      2  O   LIG A   1      -5.143   5.363 129.152  0.00  0.00    -0.330 OA
ATOM      3  C   LIG A   1      -4.229   6.029 128.280  0.00  0.00    +0.191 C 
ATOM      4  C   LIG A   1      -2.815   5.974 128.887  0.00  0.00    +0.178 C 
ATOM      5  C   LIG A   1      -2.851   6.652 130.261  0.00  0.00    +0.180 C 
ATOM      6  C   LIG A   1      -3.930   6.046 131.154  0.00  0.00    +0.214 C 
ENDROOT
BRANCH   4   7
ATOM      7  O   LIG A   1      -1.825   6.644 128.106  0.00  0.00    -0.386 OA
ATOM      8  H   LIG A   1      -0.955   6.281 128.360  0.00  0.00    +0.210 HD
ENDBRANCH   4   7
BRANCH   5   9
ATOM      9  O   LIG A   1      -1.577   6.512 130.913  0.00  0.00    -0.386 OA
ATOM     10  H   LIG A   1      -1.786   6.163 131.803  0.00  0.00    +0.210 HD
ENDBRANCH   5   9
BRANCH   6  11
ATOM     11  O   LIG A   1      -4.018   6.810 132.366  0.00  0.00    -0.383 OA
ATOM     12  H   LIG A   1      -3.403   7.559 132.242  0.00  0.00    +0.210 HD
ENDBRANCH   6  11
BRANCH   3  13
ATOM     13  C   LIG A   1      -4.330   5.329 126.919  0.00  0.00    +0.267 C 
BRANCH  13  14
ATOM     14  O   LIG A   1      -5.393   4.379 126.873  0.00  0.00    -0.459 OA
BRANCH  14  15
ATOM     15  C   LIG A   1      -6.292   4.558 125.870  0.00  0.00    +0.332 C 
ATOM     16  O   LIG A   1      -6.473   5.581 125.234  0.00  0.00    -0.246 OA
BRANCH  15  17
ATOM     17  C   LIG A   1      -6.968   3.284 125.567  0.00  0.00    +0.092 C 
ATOM     18  C   LIG A   1      -6.928   2.736 124.343  0.00  0.00    +0.015 C 
BRANCH  18  19
ATOM     19  C   LIG A   1      -7.650   1.514 124.007  0.00  0.00    -0.021 A 
ATOM     20  C   LIG A   1      -7.055   0.259 124.206  0.00  0.00    +0.012 A 
ATOM     21  C   LIG A   1      -7.737  -0.909 123.854  0.00  0.00    +0.050 A 
ATOM     22  C   LIG A   1      -9.009  -0.810 123.303  0.00  0.00    +0.158 A 
ATOM     23  C   LIG A   1      -9.598   0.436 123.108  0.00  0.00    +0.159 A 
ATOM     24  C   LIG A   1      -8.930   1.601 123.454  0.00  0.00    +0.057 A 
BRANCH  22  25
ATOM     25  O   LIG A   1      -9.723  -1.916 122.932  0.00  0.00    -0.503 OA
ATOM     26  H   LIG A   1      -9.154  -2.468 122.369  0.00  0.00    +0.292 HD
ENDBRANCH  22  25
BRANCH  23  27
ATOM     27  O   LIG A   1     -10.847   0.525 122.564  0.00  0.00    -0.503 OA
ATOM     28  H   LIG A   1     -10.699   0.894 121.670  0.00  0.00    +0.292 HD
ENDBRANCH  23  27
ENDBRANCH  18  19
ENDBRANCH  15  17
ENDBRANCH  14  15
ENDBRANCH  13  14
ENDBRANCH   3  13
BRANCH   1  29
ATOM     29  O   LIG A   1      -6.147   5.194 131.206  0.00  0.00    -0.429 OA
BRANCH  29  30
ATOM     30  C   LIG A   1      -6.920   5.857 132.086  0.00  0.00    +0.334 C 
ATOM     31  O   LIG A   1      -6.746   5.966 133.292  0.00  0.00    -0.245 OA
BRANCH  30  33
ATOM     32  C   LIG A   1      -9.271   6.323 131.534  0.00  0.00    +0.015 C 
ATOM     33  C   LIG A   1      -7.969   6.595 131.354  0.00  0.00    +0.092 C 
BRANCH  32  36
ATOM     34  C   LIG A   1     -11.072   8.165 128.819  0.00  0.00    +0.159 A 
ATOM     35  C   LIG A   1     -10.059   7.586 129.579  0.00  0.00    +0.057 A 
ATOM     36  C   LIG A   1     -10.369   6.926 130.778  0.00  0.00    -0.021 A 
ATOM     37  C   LIG A   1     -11.705   6.828 131.183  0.00  0.00    +0.012 A 
ATOM     38  C   LIG A   1     -12.719   7.411 130.420  0.00  0.00    +0.050 A 
ATOM     39  C   LIG A   1     -12.397   8.083 129.242  0.00  0.00    +0.158 A 
BRANCH  39  40
ATOM     40  O   LIG A   1     -13.377   8.665 128.492  0.00  0.00    -0.503 OA
ATOM     41  H   LIG A   1     -13.436   8.203 127.642  0.00  0.00    +0.292 HD
ENDBRANCH  39  40
BRANCH  34  42
ATOM     42  O   LIG A   1     -10.773   8.819 127.657  0.00  0.00    -0.503 OA
ATOM     43  H   LIG A   1     -10.896   9.772 127.788  0.00  0.00    +0.292 HD
ENDBRANCH  34  42
ENDBRANCH  32  36
ENDBRANCH  30  33
ENDBRANCH  29  30
ENDBRANCH   1  29
TORSDOF 16
ENDMDL
