MODEL 1
REMARK VINA RESULT:      -7.3      0.000      0.000
REMARK  Name = NuBBE_425
REMARK  18 active torsions:
REMARK  status: ('A' for Active; 'I' for Inactive)
REMARK    1  A    between atoms: N_3  and  C_4
REMARK    2  A    between atoms: N_3  and  C_5
REMARK    3  A    between atoms: C_5  and  C_6
REMARK    4  A    between atoms: C_7  and  C_8
REMARK    5  A    between atoms: C_7  and  C_9
REMARK    6  A    between atoms: C_9  and  C_10
REMARK    7  A    between atoms: C_10  and  C_11
REMARK    8  A    between atoms: C_12  and  C_13
REMARK    9  A    between atoms: C_12  and  C_14
REMARK   10  A    between atoms: N_15  and  C_16
REMARK   11  A    between atoms: N_15  and  C_17
REMARK   12  A    between atoms: C_17  and  C_18
REMARK   13  A    between atoms: C_19  and  C_20
REMARK   14  A    between atoms: C_19  and  C_26
REMARK   15  A    between atoms: C_20  and  C_21
REMARK   16  A    between atoms: C_21  and  C_22
REMARK   17  A    between atoms: C_23  and  C_24
REMARK   18  A    between atoms: C_23  and  C_25
REMARK                            x       y       z     vdW  Elec       q    Type
REMARK                         _______ _______ _______ _____ _____    ______ ____
ROOT
ATOM      1  N   LIG A   1      -8.255   4.181 124.413  0.00  0.00    -0.129 NA
ATOM      2  C   LIG A   1      -7.852   3.076 124.956  0.00  0.00    +0.383 C 
ATOM      3  N   LIG A   1      -8.617   1.937 124.865  0.00  0.00    -0.262 N 
ATOM      4  C   LIG A   1      -9.334   1.681 123.645  0.00  0.00    +0.242 C 
ATOM      5  N   LIG A   1      -6.627   3.027 125.573  0.00  0.00    -0.262 N 
ATOM      6  C   LIG A   1      -5.942   1.797 125.948  0.00  0.00    +0.242 C 
ATOM      7  H   LIG A   1      -9.192   4.034 124.043  0.00  0.00    +0.306 HD
ENDROOT
BRANCH   3   8
ATOM      8  C   LIG A   1      -8.914   1.032 125.977  0.00  0.00    +0.226 C 
BRANCH   8   9
ATOM      9  C   LIG A   1      -9.128  -0.449 125.656  0.00  0.00    +0.009 C 
ATOM     10  C   LIG A   1      -8.590  -1.653 126.000  0.00  0.00    -0.073 C 
ATOM     11  C   LIG A   1      -9.266  -2.902 125.498  0.00  0.00    +0.038 C 
BRANCH  10  12
ATOM     12  C   LIG A   1      -7.374  -1.944 126.880  0.00  0.00    +0.034 C 
BRANCH  12  13
ATOM     13  C   LIG A   1      -5.951  -1.747 126.362  0.00  0.00    +0.031 C 
BRANCH  13  14
ATOM     14  C   LIG A   1      -5.409  -2.838 125.463  0.00  0.00    -0.028 C 
ATOM     15  C   LIG A   1      -5.411  -2.957 124.120  0.00  0.00    -0.080 C 
ATOM     16  C   LIG A   1      -6.144  -2.095 123.130  0.00  0.00    +0.038 C 
ATOM     17  C   LIG A   1      -4.539  -4.007 123.472  0.00  0.00    +0.038 C 
ENDBRANCH  13  14
ENDBRANCH  12  13
ENDBRANCH  10  12
ENDBRANCH   8   9
ENDBRANCH   3   8
BRANCH   5  18
ATOM     18  C   LIG A   1      -5.972   4.306 125.956  0.00  0.00    +0.226 C 
BRANCH  18  19
ATOM     19  C   LIG A   1      -4.559   3.991 126.149  0.00  0.00    +0.009 C 
ATOM     20  C   LIG A   1      -3.565   4.518 127.005  0.00  0.00    -0.073 C 
ATOM     21  C   LIG A   1      -2.504   3.514 127.157  0.00  0.00    +0.038 C 
BRANCH  20  22
ATOM     22  C   LIG A   1      -3.604   5.813 127.752  0.00  0.00    +0.034 C 
BRANCH  22  23
ATOM     23  C   LIG A   1      -2.311   6.259 128.531  0.00  0.00    +0.031 C 
BRANCH  23  24
ATOM     24  C   LIG A   1      -2.457   6.454 130.025  0.00  0.00    -0.028 C 
ATOM     25  C   LIG A   1      -3.167   7.423 130.655  0.00  0.00    -0.080 C 
ATOM     26  C   LIG A   1      -3.966   8.524 129.952  0.00  0.00    +0.038 C 
ATOM     27  C   LIG A   1      -2.920   7.662 132.126  0.00  0.00    +0.038 C 
ENDBRANCH  23  24
ENDBRANCH  22  23
ENDBRANCH  20  22
ENDBRANCH  18  19
ENDBRANCH   5  18
TORSDOF 10
ENDMDL
MODEL 2
REMARK VINA RESULT:      -7.2      3.951      7.381
REMARK  Name = NuBBE_425
REMARK  18 active torsions:
REMARK  status: ('A' for Active; 'I' for Inactive)
REMARK    1  A    between atoms: N_3  and  C_4
REMARK    2  A    between atoms: N_3  and  C_5
REMARK    3  A    between atoms: C_5  and  C_6
REMARK    4  A    between atoms: C_7  and  C_8
REMARK    5  A    between atoms: C_7  and  C_9
REMARK    6  A    between atoms: C_9  and  C_10
REMARK    7  A    between atoms: C_10  and  C_11
REMARK    8  A    between atoms: C_12  and  C_13
REMARK    9  A    between atoms: C_12  and  C_14
REMARK   10  A    between atoms: N_15  and  C_16
REMARK   11  A    between atoms: N_15  and  C_17
REMARK   12  A    between atoms: C_17  and  C_18
REMARK   13  A    between atoms: C_19  and  C_20
REMARK   14  A    between atoms: C_19  and  C_26
REMARK   15  A    between atoms: C_20  and  C_21
REMARK   16  A    between atoms: C_21  and  C_22
REMARK   17  A    between atoms: C_23  and  C_24
REMARK   18  A    between atoms: C_23  and  C_25
REMARK                            x       y       z     vdW  Elec       q    Type
REMARK                         _______ _______ _______ _____ _____    ______ ____
ROOT
ATOM      1  N   LIG A   1      -5.461   1.421 127.696  0.00  0.00    -0.129 NA
ATOM      2  C   LIG A   1      -6.407   1.375 128.581  0.00  0.00    +0.383 C 
ATOM      3  N   LIG A   1      -6.215   0.715 129.771  0.00  0.00    -0.262 N 
ATOM      4  C   LIG A   1      -4.923   0.786 130.401  0.00  0.00    +0.242 C 
ATOM      5  N   LIG A   1      -7.586   2.040 128.353  0.00  0.00    -0.262 N 
ATOM      6  C   LIG A   1      -8.589   2.311 129.374  0.00  0.00    +0.242 C 
ATOM      7  H   LIG A   1      -4.689   0.843 128.022  0.00  0.00    +0.306 HD
ENDROOT
BRANCH   3   8
ATOM      8  C   LIG A   1      -7.167  -0.213 130.383  0.00  0.00    +0.226 C 
BRANCH   8   9
ATOM      9  C   LIG A   1      -7.704  -1.358 129.521  0.00  0.00    +0.009 C 
ATOM     10  C   LIG A   1      -7.272  -2.157 128.505  0.00  0.00    -0.073 C 
ATOM     11  C   LIG A   1      -8.166  -3.285 128.059  0.00  0.00    +0.038 C 
BRANCH  10  12
ATOM     12  C   LIG A   1      -5.951  -2.102 127.738  0.00  0.00    +0.034 C 
BRANCH  12  13
ATOM     13  C   LIG A   1      -4.736  -2.912 128.185  0.00  0.00    +0.031 C 
BRANCH  13  14
ATOM     14  C   LIG A   1      -4.414  -2.873 129.664  0.00  0.00    -0.028 C 
ATOM     15  C   LIG A   1      -4.741  -3.720 130.661  0.00  0.00    -0.080 C 
ATOM     16  C   LIG A   1      -5.706  -4.872 130.598  0.00  0.00    +0.038 C 
ATOM     17  C   LIG A   1      -4.039  -3.597 131.993  0.00  0.00    +0.038 C 
ENDBRANCH  13  14
ENDBRANCH  12  13
ENDBRANCH  10  12
ENDBRANCH   8   9
ENDBRANCH   3   8
BRANCH   5  18
ATOM     18  C   LIG A   1      -7.911   2.455 126.962  0.00  0.00    +0.226 C 
BRANCH  18  19
ATOM     19  C   LIG A   1      -8.645   1.339 126.371  0.00  0.00    +0.009 C 
ATOM     20  C   LIG A   1      -8.247   0.243 125.571  0.00  0.00    -0.073 C 
ATOM     21  C   LIG A   1      -9.255  -0.817 125.703  0.00  0.00    +0.038 C 
BRANCH  20  22
ATOM     22  C   LIG A   1      -6.969   0.092 124.809  0.00  0.00    +0.034 C 
BRANCH  22  23
ATOM     23  C   LIG A   1      -6.980  -0.806 123.516  0.00  0.00    +0.031 C 
BRANCH  23  24
ATOM     24  C   LIG A   1      -5.926  -1.890 123.440  0.00  0.00    -0.028 C 
ATOM     25  C   LIG A   1      -6.050  -3.177 123.852  0.00  0.00    -0.080 C 
ATOM     26  C   LIG A   1      -7.306  -3.779 124.487  0.00  0.00    +0.038 C 
ATOM     27  C   LIG A   1      -4.800  -4.010 124.011  0.00  0.00    +0.038 C 
ENDBRANCH  23  24
ENDBRANCH  22  23
ENDBRANCH  20  22
ENDBRANCH  18  19
ENDBRANCH   5  18
TORSDOF 10
ENDMDL
MODEL 3
REMARK VINA RESULT:      -7.1      3.345      5.229
REMARK  Name = NuBBE_425
REMARK  18 active torsions:
REMARK  status: ('A' for Active; 'I' for Inactive)
REMARK    1  A    between atoms: N_3  and  C_4
REMARK    2  A    between atoms: N_3  and  C_5
REMARK    3  A    between atoms: C_5  and  C_6
REMARK    4  A    between atoms: C_7  and  C_8
REMARK    5  A    between atoms: C_7  and  C_9
REMARK    6  A    between atoms: C_9  and  C_10
REMARK    7  A    between atoms: C_10  and  C_11
REMARK    8  A    between atoms: C_12  and  C_13
REMARK    9  A    between atoms: C_12  and  C_14
REMARK   10  A    between atoms: N_15  and  C_16
REMARK   11  A    between atoms: N_15  and  C_17
REMARK   12  A    between atoms: C_17  and  C_18
REMARK   13  A    between atoms: C_19  and  C_20
REMARK   14  A    between atoms: C_19  and  C_26
REMARK   15  A    between atoms: C_20  and  C_21
REMARK   16  A    between atoms: C_21  and  C_22
REMARK   17  A    between atoms: C_23  and  C_24
REMARK   18  A    between atoms: C_23  and  C_25
REMARK                            x       y       z     vdW  Elec       q    Type
REMARK                         _______ _______ _______ _____ _____    ______ ____
ROOT
ATOM      1  N   LIG A   1      -4.048  -1.584 129.202  0.00  0.00    -0.129 NA
ATOM      2  C   LIG A   1      -4.969  -1.535 130.112  0.00  0.00    +0.383 C 
ATOM      3  N   LIG A   1      -5.661  -2.671 130.463  0.00  0.00    -0.262 N 
ATOM      4  C   LIG A   1      -4.956  -3.924 130.508  0.00  0.00    +0.242 C 
ATOM      5  N   LIG A   1      -5.214  -0.357 130.771  0.00  0.00    -0.262 N 
ATOM      6  C   LIG A   1      -5.994  -0.246 131.996  0.00  0.00    +0.242 C 
ATOM      7  H   LIG A   1      -4.040  -2.521 128.803  0.00  0.00    +0.306 HD
ENDROOT
BRANCH   3   8
ATOM      8  C   LIG A   1      -7.112  -2.754 130.629  0.00  0.00    +0.226 C 
BRANCH   8   9
ATOM      9  C   LIG A   1      -7.947  -3.196 129.424  0.00  0.00    +0.009 C 
ATOM     10  C   LIG A   1      -8.024  -2.936 128.088  0.00  0.00    -0.073 C 
ATOM     11  C   LIG A   1      -8.970  -3.763 127.258  0.00  0.00    +0.038 C 
BRANCH  10  12
ATOM     12  C   LIG A   1      -7.242  -1.913 127.264  0.00  0.00    +0.034 C 
BRANCH  12  13
ATOM     13  C   LIG A   1      -7.270  -1.931 125.738  0.00  0.00    +0.031 C 
BRANCH  13  14
ATOM     14  C   LIG A   1      -6.179  -2.731 125.058  0.00  0.00    -0.028 C 
ATOM     15  C   LIG A   1      -5.717  -2.694 123.791  0.00  0.00    -0.080 C 
ATOM     16  C   LIG A   1      -6.311  -1.953 122.626  0.00  0.00    +0.038 C 
ATOM     17  C   LIG A   1      -4.420  -3.395 123.459  0.00  0.00    +0.038 C 
ENDBRANCH  13  14
ENDBRANCH  12  13
ENDBRANCH  10  12
ENDBRANCH   8   9
ENDBRANCH   3   8
BRANCH   5  18
ATOM     18  C   LIG A   1      -4.717   0.910 130.171  0.00  0.00    +0.226 C 
BRANCH  18  19
ATOM     19  C   LIG A   1      -5.838   1.462 129.414  0.00  0.00    +0.009 C 
ATOM     20  C   LIG A   1      -6.132   1.513 128.033  0.00  0.00    -0.073 C 
ATOM     21  C   LIG A   1      -7.580   1.696 127.873  0.00  0.00    +0.038 C 
BRANCH  20  22
ATOM     22  C   LIG A   1      -5.186   1.294 126.895  0.00  0.00    +0.034 C 
BRANCH  22  23
ATOM     23  C   LIG A   1      -4.802   2.533 126.002  0.00  0.00    +0.031 C 
BRANCH  23  24
ATOM     24  C   LIG A   1      -4.207   3.724 126.723  0.00  0.00    -0.028 C 
ATOM     25  C   LIG A   1      -2.894   3.945 126.985  0.00  0.00    -0.080 C 
ATOM     26  C   LIG A   1      -1.750   3.006 126.595  0.00  0.00    +0.038 C 
ATOM     27  C   LIG A   1      -2.526   5.001 128.001  0.00  0.00    +0.038 C 
ENDBRANCH  23  24
ENDBRANCH  22  23
ENDBRANCH  20  22
ENDBRANCH  18  19
ENDBRANCH   5  18
TORSDOF 10
ENDMDL
MODEL 4
REMARK VINA RESULT:      -7.1      5.359      6.733
REMARK  Name = NuBBE_425
REMARK  18 active torsions:
REMARK  status: ('A' for Active; 'I' for Inactive)
REMARK    1  A    between atoms: N_3  and  C_4
REMARK    2  A    between atoms: N_3  and  C_5
REMARK    3  A    between atoms: C_5  and  C_6
REMARK    4  A    between atoms: C_7  and  C_8
REMARK    5  A    between atoms: C_7  and  C_9
REMARK    6  A    between atoms: C_9  and  C_10
REMARK    7  A    between atoms: C_10  and  C_11
REMARK    8  A    between atoms: C_12  and  C_13
REMARK    9  A    between atoms: C_12  and  C_14
REMARK   10  A    between atoms: N_15  and  C_16
REMARK   11  A    between atoms: N_15  and  C_17
REMARK   12  A    between atoms: C_17  and  C_18
REMARK   13  A    between atoms: C_19  and  C_20
REMARK   14  A    between atoms: C_19  and  C_26
REMARK   15  A    between atoms: C_20  and  C_21
REMARK   16  A    between atoms: C_21  and  C_22
REMARK   17  A    between atoms: C_23  and  C_24
REMARK   18  A    between atoms: C_23  and  C_25
REMARK                            x       y       z     vdW  Elec       q    Type
REMARK                         _______ _______ _______ _____ _____    ______ ____
ROOT
ATOM      1  N   LIG A   1      -8.247   2.443 128.746  0.00  0.00    -0.129 NA
ATOM      2  C   LIG A   1      -8.474   1.863 129.882  0.00  0.00    +0.383 C 
ATOM      3  N   LIG A   1      -7.806   0.711 130.221  0.00  0.00    -0.262 N 
ATOM      4  C   LIG A   1      -6.426   0.574 129.840  0.00  0.00    +0.242 C 
ATOM      5  N   LIG A   1      -9.343   2.435 130.776  0.00  0.00    -0.262 N 
ATOM      6  C   LIG A   1      -9.453   2.052 132.178  0.00  0.00    +0.242 C 
ATOM      7  H   LIG A   1      -7.612   1.856 128.207  0.00  0.00    +0.306 HD
ENDROOT
BRANCH   3   8
ATOM      8  C   LIG A   1      -8.427  -0.485 130.792  0.00  0.00    +0.226 C 
BRANCH   8   9
ATOM      9  C   LIG A   1      -7.663  -1.807 130.690  0.00  0.00    +0.009 C 
ATOM     10  C   LIG A   1      -7.494  -2.819 129.792  0.00  0.00    -0.073 C 
ATOM     11  C   LIG A   1      -6.486  -3.891 130.112  0.00  0.00    +0.038 C 
BRANCH  10  12
ATOM     12  C   LIG A   1      -8.177  -3.024 128.440  0.00  0.00    +0.034 C 
BRANCH  12  13
ATOM     13  C   LIG A   1      -7.964  -2.049 127.285  0.00  0.00    +0.031 C 
BRANCH  13  14
ATOM     14  C   LIG A   1      -8.740  -2.334 126.017  0.00  0.00    -0.028 C 
ATOM     15  C   LIG A   1      -8.379  -2.971 124.884  0.00  0.00    -0.080 C 
ATOM     16  C   LIG A   1      -6.998  -3.419 124.493  0.00  0.00    +0.038 C 
ATOM     17  C   LIG A   1      -9.444  -3.373 123.892  0.00  0.00    +0.038 C 
ENDBRANCH  13  14
ENDBRANCH  12  13
ENDBRANCH  10  12
ENDBRANCH   8   9
ENDBRANCH   3   8
BRANCH   5  18
ATOM     18  C   LIG A   1     -10.294   3.468 130.284  0.00  0.00    +0.226 C 
BRANCH  18  19
ATOM     19  C   LIG A   1      -9.613   4.750 130.447  0.00  0.00    +0.009 C 
ATOM     20  C   LIG A   1      -9.823   5.846 131.315  0.00  0.00    -0.073 C 
ATOM     21  C   LIG A   1      -8.572   6.609 131.410  0.00  0.00    +0.038 C 
BRANCH  20  22
ATOM     22  C   LIG A   1     -11.049   6.145 132.119  0.00  0.00    +0.034 C 
BRANCH  22  23
ATOM     23  C   LIG A   1     -12.115   7.128 131.507  0.00  0.00    +0.031 C 
BRANCH  23  24
ATOM     24  C   LIG A   1     -12.668   6.760 130.147  0.00  0.00    -0.028 C 
ATOM     25  C   LIG A   1     -12.959   7.609 129.129  0.00  0.00    -0.080 C 
ATOM     26  C   LIG A   1     -12.780   9.129 129.173  0.00  0.00    +0.038 C 
ATOM     27  C   LIG A   1     -13.814   7.107 127.988  0.00  0.00    +0.038 C 
ENDBRANCH  23  24
ENDBRANCH  22  23
ENDBRANCH  20  22
ENDBRANCH  18  19
ENDBRANCH   5  18
TORSDOF 10
ENDMDL
MODEL 5
REMARK VINA RESULT:      -7.1      4.340      9.670
REMARK  Name = NuBBE_425
REMARK  18 active torsions:
REMARK  status: ('A' for Active; 'I' for Inactive)
REMARK    1  A    between atoms: N_3  and  C_4
REMARK    2  A    between atoms: N_3  and  C_5
REMARK    3  A    between atoms: C_5  and  C_6
REMARK    4  A    between atoms: C_7  and  C_8
REMARK    5  A    between atoms: C_7  and  C_9
REMARK    6  A    between atoms: C_9  and  C_10
REMARK    7  A    between atoms: C_10  and  C_11
REMARK    8  A    between atoms: C_12  and  C_13
REMARK    9  A    between atoms: C_12  and  C_14
REMARK   10  A    between atoms: N_15  and  C_16
REMARK   11  A    between atoms: N_15  and  C_17
REMARK   12  A    between atoms: C_17  and  C_18
REMARK   13  A    between atoms: C_19  and  C_20
REMARK   14  A    between atoms: C_19  and  C_26
REMARK   15  A    between atoms: C_20  and  C_21
REMARK   16  A    between atoms: C_21  and  C_22
REMARK   17  A    between atoms: C_23  and  C_24
REMARK   18  A    between atoms: C_23  and  C_25
REMARK                            x       y       z     vdW  Elec       q    Type
REMARK                         _______ _______ _______ _____ _____    ______ ____
ROOT
ATOM      1  N   LIG A   1      -5.529   1.173 128.055  0.00  0.00    -0.129 NA
ATOM      2  C   LIG A   1      -6.788   1.402 127.852  0.00  0.00    +0.383 C 
ATOM      3  N   LIG A   1      -7.410   2.464 128.465  0.00  0.00    -0.262 N 
ATOM      4  C   LIG A   1      -6.681   3.694 128.625  0.00  0.00    +0.242 C 
ATOM      5  N   LIG A   1      -7.489   0.616 126.973  0.00  0.00    -0.262 N 
ATOM      6  C   LIG A   1      -8.803   0.949 126.438  0.00  0.00    +0.242 C 
ATOM      7  H   LIG A   1      -5.194   1.827 128.761  0.00  0.00    +0.306 HD
ENDROOT
BRANCH   3   8
ATOM      8  C   LIG A   1      -8.708   2.405 129.137  0.00  0.00    +0.226 C 
BRANCH   8   9
ATOM      9  C   LIG A   1      -8.784   2.878 130.591  0.00  0.00    +0.009 C 
ATOM     10  C   LIG A   1      -9.519   3.746 131.342  0.00  0.00    -0.073 C 
ATOM     11  C   LIG A   1      -9.293   3.762 132.831  0.00  0.00    +0.038 C 
BRANCH  10  12
ATOM     12  C   LIG A   1     -10.604   4.723 130.891  0.00  0.00    +0.034 C 
BRANCH  12  13
ATOM     13  C   LIG A   1     -10.280   5.910 129.986  0.00  0.00    +0.031 C 
BRANCH  13  14
ATOM     14  C   LIG A   1     -11.216   7.096 130.078  0.00  0.00    -0.028 C 
ATOM     15  C   LIG A   1     -11.434   8.117 129.224  0.00  0.00    -0.080 C 
ATOM     16  C   LIG A   1     -10.641   8.461 127.994  0.00  0.00    +0.038 C 
ATOM     17  C   LIG A   1     -12.638   9.006 129.430  0.00  0.00    +0.038 C 
ENDBRANCH  13  14
ENDBRANCH  12  13
ENDBRANCH  10  12
ENDBRANCH   8   9
ENDBRANCH   3   8
BRANCH   5  18
ATOM     18  C   LIG A   1      -6.917  -0.701 126.583  0.00  0.00    +0.226 C 
BRANCH  18  19
ATOM     19  C   LIG A   1      -7.718  -1.707 127.277  0.00  0.00    +0.009 C 
ATOM     20  C   LIG A   1      -8.620  -2.696 126.825  0.00  0.00    -0.073 C 
ATOM     21  C   LIG A   1      -8.725  -3.735 127.857  0.00  0.00    +0.038 C 
BRANCH  20  22
ATOM     22  C   LIG A   1      -9.280  -2.778 125.485  0.00  0.00    +0.034 C 
BRANCH  22  23
ATOM     23  C   LIG A   1      -8.611  -3.684 124.385  0.00  0.00    +0.031 C 
BRANCH  23  24
ATOM     24  C   LIG A   1      -7.099  -3.760 124.402  0.00  0.00    -0.028 C 
ATOM     25  C   LIG A   1      -6.234  -2.951 123.740  0.00  0.00    -0.080 C 
ATOM     26  C   LIG A   1      -6.641  -1.790 122.829  0.00  0.00    +0.038 C 
ATOM     27  C   LIG A   1      -4.794  -3.386 123.605  0.00  0.00    +0.038 C 
ENDBRANCH  23  24
ENDBRANCH  22  23
ENDBRANCH  20  22
ENDBRANCH  18  19
ENDBRANCH   5  18
TORSDOF 10
ENDMDL
MODEL 6
REMARK VINA RESULT:      -7.0      1.081      2.277
REMARK  Name = NuBBE_425
REMARK  18 active torsions:
REMARK  status: ('A' for Active; 'I' for Inactive)
REMARK    1  A    between atoms: N_3  and  C_4
REMARK    2  A    between atoms: N_3  and  C_5
REMARK    3  A    between atoms: C_5  and  C_6
REMARK    4  A    between atoms: C_7  and  C_8
REMARK    5  A    between atoms: C_7  and  C_9
REMARK    6  A    between atoms: C_9  and  C_10
REMARK    7  A    between atoms: C_10  and  C_11
REMARK    8  A    between atoms: C_12  and  C_13
REMARK    9  A    between atoms: C_12  and  C_14
REMARK   10  A    between atoms: N_15  and  C_16
REMARK   11  A    between atoms: N_15  and  C_17
REMARK   12  A    between atoms: C_17  and  C_18
REMARK   13  A    between atoms: C_19  and  C_20
REMARK   14  A    between atoms: C_19  and  C_26
REMARK   15  A    between atoms: C_20  and  C_21
REMARK   16  A    between atoms: C_21  and  C_22
REMARK   17  A    between atoms: C_23  and  C_24
REMARK   18  A    between atoms: C_23  and  C_25
REMARK                            x       y       z     vdW  Elec       q    Type
REMARK                         _______ _______ _______ _____ _____    ______ ____
ROOT
ATOM      1  N   LIG A   1      -8.767   4.208 125.020  0.00  0.00    -0.129 NA
ATOM      2  C   LIG A   1      -8.222   3.057 125.261  0.00  0.00    +0.383 C 
ATOM      3  N   LIG A   1      -8.928   1.896 125.052  0.00  0.00    -0.262 N 
ATOM      4  C   LIG A   1      -9.816   1.820 123.923  0.00  0.00    +0.242 C 
ATOM      5  N   LIG A   1      -6.913   2.995 125.669  0.00  0.00    -0.262 N 
ATOM      6  C   LIG A   1      -6.111   1.779 125.681  0.00  0.00    +0.242 C 
ATOM      7  H   LIG A   1      -9.742   4.055 124.769  0.00  0.00    +0.306 HD
ENDROOT
BRANCH   3   8
ATOM      8  C   LIG A   1      -8.993   0.771 125.986  0.00  0.00    +0.226 C 
BRANCH   8   9
ATOM      9  C   LIG A   1      -9.154  -0.635 125.403  0.00  0.00    +0.009 C 
ATOM     10  C   LIG A   1      -8.375  -1.718 125.124  0.00  0.00    -0.073 C 
ATOM     11  C   LIG A   1      -9.053  -2.979 124.657  0.00  0.00    +0.038 C 
BRANCH  10  12
ATOM     12  C   LIG A   1      -6.859  -1.865 125.249  0.00  0.00    +0.034 C 
BRANCH  12  13
ATOM     13  C   LIG A   1      -6.217  -2.469 126.496  0.00  0.00    +0.031 C 
BRANCH  13  14
ATOM     14  C   LIG A   1      -6.776  -2.010 127.825  0.00  0.00    -0.028 C 
ATOM     15  C   LIG A   1      -7.721  -2.553 128.620  0.00  0.00    -0.080 C 
ATOM     16  C   LIG A   1      -8.636  -3.700 128.294  0.00  0.00    +0.038 C 
ATOM     17  C   LIG A   1      -7.877  -2.044 130.034  0.00  0.00    +0.038 C 
ENDBRANCH  13  14
ENDBRANCH  12  13
ENDBRANCH  10  12
ENDBRANCH   8   9
ENDBRANCH   3   8
BRANCH   5  18
ATOM     18  C   LIG A   1      -6.277   4.228 126.206  0.00  0.00    +0.226 C 
BRANCH  18  19
ATOM     19  C   LIG A   1      -4.837   3.979 126.182  0.00  0.00    +0.009 C 
ATOM     20  C   LIG A   1      -3.757   4.516 126.918  0.00  0.00    -0.073 C 
ATOM     21  C   LIG A   1      -2.640   3.564 126.864  0.00  0.00    +0.038 C 
BRANCH  20  22
ATOM     22  C   LIG A   1      -3.749   5.771 127.733  0.00  0.00    +0.034 C 
BRANCH  22  23
ATOM     23  C   LIG A   1      -2.383   6.235 128.363  0.00  0.00    +0.031 C 
BRANCH  23  24
ATOM     24  C   LIG A   1      -2.355   6.397 129.868  0.00  0.00    -0.028 C 
ATOM     25  C   LIG A   1      -3.062   7.291 130.605  0.00  0.00    -0.080 C 
ATOM     26  C   LIG A   1      -4.034   8.327 130.033  0.00  0.00    +0.038 C 
ATOM     27  C   LIG A   1      -2.652   7.533 132.039  0.00  0.00    +0.038 C 
ENDBRANCH  23  24
ENDBRANCH  22  23
ENDBRANCH  20  22
ENDBRANCH  18  19
ENDBRANCH   5  18
TORSDOF 10
ENDMDL
MODEL 7
REMARK VINA RESULT:      -7.0      2.862      6.802
REMARK  Name = NuBBE_425
REMARK  18 active torsions:
REMARK  status: ('A' for Active; 'I' for Inactive)
REMARK    1  A    between atoms: N_3  and  C_4
REMARK    2  A    between atoms: N_3  and  C_5
REMARK    3  A    between atoms: C_5  and  C_6
REMARK    4  A    between atoms: C_7  and  C_8
REMARK    5  A    between atoms: C_7  and  C_9
REMARK    6  A    between atoms: C_9  and  C_10
REMARK    7  A    between atoms: C_10  and  C_11
REMARK    8  A    between atoms: C_12  and  C_13
REMARK    9  A    between atoms: C_12  and  C_14
REMARK   10  A    between atoms: N_15  and  C_16
REMARK   11  A    between atoms: N_15  and  C_17
REMARK   12  A    between atoms: C_17  and  C_18
REMARK   13  A    between atoms: C_19  and  C_20
REMARK   14  A    between atoms: C_19  and  C_26
REMARK   15  A    between atoms: C_20  and  C_21
REMARK   16  A    between atoms: C_21  and  C_22
REMARK   17  A    between atoms: C_23  and  C_24
REMARK   18  A    between atoms: C_23  and  C_25
REMARK                            x       y       z     vdW  Elec       q    Type
REMARK                         _______ _______ _______ _____ _____    ______ ____
ROOT
ATOM      1  N   LIG A   1      -4.809   2.834 125.970  0.00  0.00    -0.129 NA
ATOM      2  C   LIG A   1      -5.992   3.267 126.275  0.00  0.00    +0.383 C 
ATOM      3  N   LIG A   1      -6.498   3.075 127.539  0.00  0.00    -0.262 N 
ATOM      4  C   LIG A   1      -5.607   3.174 128.664  0.00  0.00    +0.242 C 
ATOM      5  N   LIG A   1      -6.719   3.973 125.350  0.00  0.00    -0.262 N 
ATOM      6  C   LIG A   1      -7.908   4.756 125.660  0.00  0.00    +0.242 C 
ATOM      7  H   LIG A   1      -4.447   2.306 126.762  0.00  0.00    +0.306 HD
ENDROOT
BRANCH   3   8
ATOM      8  C   LIG A   1      -7.849   2.599 127.841  0.00  0.00    +0.226 C 
BRANCH   8   9
ATOM      9  C   LIG A   1      -8.310   1.292 127.192  0.00  0.00    +0.009 C 
ATOM     10  C   LIG A   1      -7.971  -0.028 127.210  0.00  0.00    -0.073 C 
ATOM     11  C   LIG A   1      -8.853  -0.997 126.466  0.00  0.00    +0.038 C 
BRANCH  10  12
ATOM     12  C   LIG A   1      -6.804  -0.709 127.924  0.00  0.00    +0.034 C 
BRANCH  12  13
ATOM     13  C   LIG A   1      -6.330  -2.104 127.523  0.00  0.00    +0.031 C 
BRANCH  13  14
ATOM     14  C   LIG A   1      -4.944  -2.498 127.985  0.00  0.00    -0.028 C 
ATOM     15  C   LIG A   1      -4.542  -3.258 129.023  0.00  0.00    -0.080 C 
ATOM     16  C   LIG A   1      -5.389  -3.783 130.149  0.00  0.00    +0.038 C 
ATOM     17  C   LIG A   1      -3.108  -3.732 129.080  0.00  0.00    +0.038 C 
ENDBRANCH  13  14
ENDBRANCH  12  13
ENDBRANCH  10  12
ENDBRANCH   8   9
ENDBRANCH   3   8
BRANCH   5  18
ATOM     18  C   LIG A   1      -6.323   3.887 123.919  0.00  0.00    +0.226 C 
BRANCH  18  19
ATOM     19  C   LIG A   1      -7.381   3.130 123.254  0.00  0.00    +0.009 C 
ATOM     20  C   LIG A   1      -7.751   1.767 123.282  0.00  0.00    -0.073 C 
ATOM     21  C   LIG A   1      -9.155   1.657 122.866  0.00  0.00    +0.038 C 
BRANCH  20  22
ATOM     22  C   LIG A   1      -6.929   0.614 123.766  0.00  0.00    +0.034 C 
BRANCH  22  23
ATOM     23  C   LIG A   1      -7.221  -0.810 123.160  0.00  0.00    +0.031 C 
BRANCH  23  24
ATOM     24  C   LIG A   1      -6.105  -1.828 123.264  0.00  0.00    -0.028 C 
ATOM     25  C   LIG A   1      -6.186  -3.073 123.797  0.00  0.00    -0.080 C 
ATOM     26  C   LIG A   1      -7.448  -3.688 124.407  0.00  0.00    +0.038 C 
ATOM     27  C   LIG A   1      -4.905  -3.806 124.121  0.00  0.00    +0.038 C 
ENDBRANCH  23  24
ENDBRANCH  22  23
ENDBRANCH  20  22
ENDBRANCH  18  19
ENDBRANCH   5  18
TORSDOF 10
ENDMDL
MODEL 8
REMARK VINA RESULT:      -6.9      4.464      5.687
REMARK  Name = NuBBE_425
REMARK  18 active torsions:
REMARK  status: ('A' for Active; 'I' for Inactive)
REMARK    1  A    between atoms: N_3  and  C_4
REMARK    2  A    between atoms: N_3  and  C_5
REMARK    3  A    between atoms: C_5  and  C_6
REMARK    4  A    between atoms: C_7  and  C_8
REMARK    5  A    between atoms: C_7  and  C_9
REMARK    6  A    between atoms: C_9  and  C_10
REMARK    7  A    between atoms: C_10  and  C_11
REMARK    8  A    between atoms: C_12  and  C_13
REMARK    9  A    between atoms: C_12  and  C_14
REMARK   10  A    between atoms: N_15  and  C_16
REMARK   11  A    between atoms: N_15  and  C_17
REMARK   12  A    between atoms: C_17  and  C_18
REMARK   13  A    between atoms: C_19  and  C_20
REMARK   14  A    between atoms: C_19  and  C_26
REMARK   15  A    between atoms: C_20  and  C_21
REMARK   16  A    between atoms: C_21  and  C_22
REMARK   17  A    between atoms: C_23  and  C_24
REMARK   18  A    between atoms: C_23  and  C_25
REMARK                            x       y       z     vdW  Elec       q    Type
REMARK                         _______ _______ _______ _____ _____    ______ ____
ROOT
ATOM      1  N   LIG A   1      -8.447   4.998 127.149  0.00  0.00    -0.129 NA
ATOM      2  C   LIG A   1      -7.595   4.083 127.488  0.00  0.00    +0.383 C 
ATOM      3  N   LIG A   1      -6.639   3.656 126.596  0.00  0.00    -0.262 N 
ATOM      4  C   LIG A   1      -6.037   4.620 125.714  0.00  0.00    +0.242 C 
ATOM      5  N   LIG A   1      -7.608   3.581 128.765  0.00  0.00    -0.262 N 
ATOM      6  C   LIG A   1      -6.535   2.787 129.349  0.00  0.00    +0.242 C 
ATOM      7  H   LIG A   1      -8.309   5.215 126.163  0.00  0.00    +0.306 HD
ENDROOT
BRANCH   3   8
ATOM      8  C   LIG A   1      -6.296   2.258 126.336  0.00  0.00    +0.226 C 
BRANCH   8   9
ATOM      9  C   LIG A   1      -7.436   1.287 126.023  0.00  0.00    +0.009 C 
ATOM     10  C   LIG A   1      -7.783   0.405 125.042  0.00  0.00    -0.073 C 
ATOM     11  C   LIG A   1      -8.997  -0.459 125.262  0.00  0.00    +0.038 C 
BRANCH  10  12
ATOM     12  C   LIG A   1      -7.081   0.124 123.714  0.00  0.00    +0.034 C 
BRANCH  12  13
ATOM     13  C   LIG A   1      -7.278  -1.196 122.973  0.00  0.00    +0.031 C 
BRANCH  13  14
ATOM     14  C   LIG A   1      -6.086  -2.127 122.935  0.00  0.00    -0.028 C 
ATOM     15  C   LIG A   1      -5.445  -2.781 123.925  0.00  0.00    -0.080 C 
ATOM     16  C   LIG A   1      -5.636  -2.605 125.406  0.00  0.00    +0.038 C 
ATOM     17  C   LIG A   1      -4.468  -3.878 123.573  0.00  0.00    +0.038 C 
ENDBRANCH  13  14
ENDBRANCH  12  13
ENDBRANCH  10  12
ENDBRANCH   8   9
ENDBRANCH   3   8
BRANCH   5  18
ATOM     18  C   LIG A   1      -8.821   3.790 129.599  0.00  0.00    +0.226 C 
BRANCH  18  19
ATOM     19  C   LIG A   1      -8.398   4.623 130.722  0.00  0.00    +0.009 C 
ATOM     20  C   LIG A   1      -8.727   5.938 131.121  0.00  0.00    -0.073 C 
ATOM     21  C   LIG A   1      -8.438   6.075 132.555  0.00  0.00    +0.038 C 
BRANCH  20  22
ATOM     22  C   LIG A   1      -9.380   7.001 130.294  0.00  0.00    +0.034 C 
BRANCH  22  23
ATOM     23  C   LIG A   1     -10.883   6.795 129.876  0.00  0.00    +0.031 C 
BRANCH  23  24
ATOM     24  C   LIG A   1     -11.714   8.049 129.709  0.00  0.00    -0.028 C 
ATOM     25  C   LIG A   1     -12.888   8.166 129.039  0.00  0.00    -0.080 C 
ATOM     26  C   LIG A   1     -13.601   7.024 128.310  0.00  0.00    +0.038 C 
ATOM     27  C   LIG A   1     -13.389   9.548 128.691  0.00  0.00    +0.038 C 
ENDBRANCH  23  24
ENDBRANCH  22  23
ENDBRANCH  20  22
ENDBRANCH  18  19
ENDBRANCH   5  18
TORSDOF 10
ENDMDL
MODEL 9
REMARK VINA RESULT:      -6.9      1.484      9.218
REMARK  Name = NuBBE_425
REMARK  18 active torsions:
REMARK  status: ('A' for Active; 'I' for Inactive)
REMARK    1  A    between atoms: N_3  and  C_4
REMARK    2  A    between atoms: N_3  and  C_5
REMARK    3  A    between atoms: C_5  and  C_6
REMARK    4  A    between atoms: C_7  and  C_8
REMARK    5  A    between atoms: C_7  and  C_9
REMARK    6  A    between atoms: C_9  and  C_10
REMARK    7  A    between atoms: C_10  and  C_11
REMARK    8  A    between atoms: C_12  and  C_13
REMARK    9  A    between atoms: C_12  and  C_14
REMARK   10  A    between atoms: N_15  and  C_16
REMARK   11  A    between atoms: N_15  and  C_17
REMARK   12  A    between atoms: C_17  and  C_18
REMARK   13  A    between atoms: C_19  and  C_20
REMARK   14  A    between atoms: C_19  and  C_26
REMARK   15  A    between atoms: C_20  and  C_21
REMARK   16  A    between atoms: C_21  and  C_22
REMARK   17  A    between atoms: C_23  and  C_24
REMARK   18  A    between atoms: C_23  and  C_25
REMARK                            x       y       z     vdW  Elec       q    Type
REMARK                         _______ _______ _______ _____ _____    ______ ____
ROOT
ATOM      1  N   LIG A   1      -7.239   1.585 124.626  0.00  0.00    -0.129 NA
ATOM      2  C   LIG A   1      -6.992   1.793 125.881  0.00  0.00    +0.383 C 
ATOM      3  N   LIG A   1      -6.858   3.074 126.361  0.00  0.00    -0.262 N 
ATOM      4  C   LIG A   1      -7.705   4.106 125.825  0.00  0.00    +0.242 C 
ATOM      5  N   LIG A   1      -6.924   0.730 126.747  0.00  0.00    -0.262 N 
ATOM      6  C   LIG A   1      -6.954   0.847 128.199  0.00  0.00    +0.242 C 
ATOM      7  H   LIG A   1      -7.212   2.481 124.142  0.00  0.00    +0.306 HD
ENDROOT
BRANCH   3   8
ATOM      8  C   LIG A   1      -5.797   3.529 127.260  0.00  0.00    +0.226 C 
BRANCH   8   9
ATOM      9  C   LIG A   1      -4.346   3.294 126.832  0.00  0.00    +0.009 C 
ATOM     10  C   LIG A   1      -3.099   3.708 127.192  0.00  0.00    -0.073 C 
ATOM     11  C   LIG A   1      -1.915   3.058 126.525  0.00  0.00    +0.038 C 
BRANCH  10  12
ATOM     12  C   LIG A   1      -2.699   4.753 128.233  0.00  0.00    +0.034 C 
BRANCH  12  13
ATOM     13  C   LIG A   1      -3.067   4.590 129.707  0.00  0.00    +0.031 C 
BRANCH  13  14
ATOM     14  C   LIG A   1      -3.362   5.865 130.467  0.00  0.00    -0.028 C 
ATOM     15  C   LIG A   1      -2.606   6.573 131.330  0.00  0.00    -0.080 C 
ATOM     16  C   LIG A   1      -1.288   6.168 131.931  0.00  0.00    +0.038 C 
ATOM     17  C   LIG A   1      -3.038   7.968 131.717  0.00  0.00    +0.038 C 
ENDBRANCH  13  14
ENDBRANCH  12  13
ENDBRANCH  10  12
ENDBRANCH   8   9
ENDBRANCH   3   8
BRANCH   5  18
ATOM     18  C   LIG A   1      -6.736  -0.634 126.185  0.00  0.00    +0.226 C 
BRANCH  18  19
ATOM     19  C   LIG A   1      -7.461  -1.538 127.074  0.00  0.00    +0.009 C 
ATOM     20  C   LIG A   1      -8.448  -2.524 126.846  0.00  0.00    -0.073 C 
ATOM     21  C   LIG A   1      -8.438  -3.461 127.976  0.00  0.00    +0.038 C 
BRANCH  20  22
ATOM     22  C   LIG A   1      -9.291  -2.698 125.622  0.00  0.00    +0.034 C 
BRANCH  22  23
ATOM     23  C   LIG A   1      -8.601  -3.255 124.321  0.00  0.00    +0.031 C 
BRANCH  23  24
ATOM     24  C   LIG A   1      -7.192  -3.786 124.479  0.00  0.00    -0.028 C 
ATOM     25  C   LIG A   1      -6.077  -3.339 123.848  0.00  0.00    -0.080 C 
ATOM     26  C   LIG A   1      -6.041  -2.192 122.835  0.00  0.00    +0.038 C 
ATOM     27  C   LIG A   1      -4.837  -4.201 123.870  0.00  0.00    +0.038 C 
ENDBRANCH  23  24
ENDBRANCH  22  23
ENDBRANCH  20  22
ENDBRANCH  18  19
ENDBRANCH   5  18
TORSDOF 10
ENDMDL
