MODEL 1
REMARK VINA RESULT:      -7.4      0.000      0.000
REMARK  Name = NuBBE_1780
REMARK  5 active torsions:
REMARK  status: ('A' for Active; 'I' for Inactive)
REMARK    1  A    between atoms: C_1  and  C_2
REMARK    2  A    between atoms: C_1  and  C_13
REMARK    3  A    between atoms: C_2  and  C_3
REMARK    4  A    between atoms: C_6  and  O_11
REMARK    5  A    between atoms: O_11  and  C_12
REMARK                            x       y       z     vdW  Elec       q    Type
REMARK                         _______ _______ _______ _____ _____    ______ ____
ROOT
ATOM      1  C   LIG A   1     -10.519   5.984 131.968  0.00  0.00    +0.039 C 
ENDROOT
BRANCH   1   2
ATOM      2  C   LIG A   1      -9.018   6.123 132.043  0.00  0.00    -0.044 A 
ATOM      3  C   LIG A   1      -8.321   6.858 131.073  0.00  0.00    +0.053 A 
ATOM      4  C   LIG A   1      -6.947   6.914 131.169  0.00  0.00    +0.167 A 
ATOM      5  C   LIG A   1      -6.263   6.305 132.195  0.00  0.00    +0.166 A 
ATOM      6  C   LIG A   1      -6.914   5.608 133.186  0.00  0.00    +0.050 A 
ATOM      7  C   LIG A   1      -8.304   5.507 133.098  0.00  0.00    +0.007 A 
ATOM      8  O   LIG A   1      -4.916   6.465 132.089  0.00  0.00    -0.453 OA
ATOM      9  C   LIG A   1      -4.830   7.145 130.821  0.00  0.00    +0.466 C 
ATOM     10  O   LIG A   1      -6.113   7.537 130.292  0.00  0.00    -0.453 OA
ENDBRANCH   1   2
BRANCH   1  11
ATOM     11  C   LIG A   1     -11.194   7.040 131.086  0.00  0.00    +0.050 C 
BRANCH  11  12
ATOM     12  C   LIG A   1     -12.036   6.447 129.939  0.00  0.00    +0.184 C 
ATOM     13  C   LIG A   1     -13.139   7.379 129.451  0.00  0.00    +0.118 C 
ATOM     14  C   LIG A   1     -12.558   8.481 128.619  0.00  0.00    +0.108 C 
ATOM     15  C   LIG A   1     -11.428   8.264 127.924  0.00  0.00    +0.132 C 
ATOM     16  C   LIG A   1     -10.764   6.951 127.929  0.00  0.00    +0.335 C 
ATOM     17  O   LIG A   1      -9.870   6.706 127.124  0.00  0.00    -0.245 OA
ATOM     18  O   LIG A   1     -11.184   6.047 128.842  0.00  0.00    -0.458 OA
BRANCH  14  19
ATOM     19  O   LIG A   1     -13.276   9.652 128.679  0.00  0.00    -0.499 OA
ATOM     20  C   LIG A   1     -13.268  10.367 129.910  0.00  0.00    +0.276 C 
ENDBRANCH  14  19
ENDBRANCH  11  12
ENDBRANCH   1  11
TORSDOF 4
ENDMDL
MODEL 2
REMARK VINA RESULT:      -7.0      9.395     11.876
REMARK  Name = NuBBE_1780
REMARK  5 active torsions:
REMARK  status: ('A' for Active; 'I' for Inactive)
REMARK    1  A    between atoms: C_1  and  C_2
REMARK    2  A    between atoms: C_1  and  C_13
REMARK    3  A    between atoms: C_2  and  C_3
REMARK    4  A    between atoms: C_6  and  O_11
REMARK    5  A    between atoms: O_11  and  C_12
REMARK                            x       y       z     vdW  Elec       q    Type
REMARK                         _______ _______ _______ _____ _____    ______ ____
ROOT
ATOM      1  C   LIG A   1      -8.094   1.657 124.449  0.00  0.00    +0.039 C 
ENDROOT
BRANCH   1   2
ATOM      2  C   LIG A   1      -7.762   2.416 123.188  0.00  0.00    -0.044 A 
ATOM      3  C   LIG A   1      -8.778   2.810 122.305  0.00  0.00    +0.053 A 
ATOM      4  C   LIG A   1      -8.410   3.464 121.147  0.00  0.00    +0.167 A 
ATOM      5  C   LIG A   1      -7.098   3.760 120.864  0.00  0.00    +0.166 A 
ATOM      6  C   LIG A   1      -6.077   3.425 121.724  0.00  0.00    +0.050 A 
ATOM      7  C   LIG A   1      -6.416   2.734 122.889  0.00  0.00    +0.007 A 
ATOM      8  O   LIG A   1      -6.954   4.387 119.665  0.00  0.00    -0.453 OA
ATOM      9  C   LIG A   1      -8.310   4.345 119.180  0.00  0.00    +0.466 C 
ATOM     10  O   LIG A   1      -9.256   3.870 120.162  0.00  0.00    -0.453 OA
ENDBRANCH   1   2
BRANCH   1  11
ATOM     11  C   LIG A   1      -7.400   0.294 124.551  0.00  0.00    +0.050 C 
BRANCH  11  12
ATOM     12  C   LIG A   1      -7.585  -0.593 123.305  0.00  0.00    +0.184 C 
ATOM     13  C   LIG A   1      -6.370  -1.459 122.991  0.00  0.00    +0.118 C 
ATOM     14  C   LIG A   1      -6.288  -2.608 123.947  0.00  0.00    +0.108 C 
ATOM     15  C   LIG A   1      -7.415  -3.104 124.488  0.00  0.00    +0.132 C 
ATOM     16  C   LIG A   1      -8.737  -2.569 124.131  0.00  0.00    +0.335 C 
ATOM     17  O   LIG A   1      -9.758  -3.170 124.457  0.00  0.00    -0.245 OA
ATOM     18  O   LIG A   1      -8.771  -1.409 123.436  0.00  0.00    -0.458 OA
BRANCH  14  19
ATOM     19  O   LIG A   1      -5.003  -3.033 124.188  0.00  0.00    -0.499 OA
ATOM     20  C   LIG A   1      -4.620  -4.301 123.668  0.00  0.00    +0.276 C 
ENDBRANCH  14  19
ENDBRANCH  11  12
ENDBRANCH   1  11
TORSDOF 4
ENDMDL
MODEL 3
REMARK VINA RESULT:      -6.8      9.392     10.443
REMARK  Name = NuBBE_1780
REMARK  5 active torsions:
REMARK  status: ('A' for Active; 'I' for Inactive)
REMARK    1  A    between atoms: C_1  and  C_2
REMARK    2  A    between atoms: C_1  and  C_13
REMARK    3  A    between atoms: C_2  and  C_3
REMARK    4  A    between atoms: C_6  and  O_11
REMARK    5  A    between atoms: O_11  and  C_12
REMARK                            x       y       z     vdW  Elec       q    Type
REMARK                         _______ _______ _______ _____ _____    ______ ____
ROOT
ATOM      1  C   LIG A   1      -8.842  -3.766 127.090  0.00  0.00    +0.039 C 
ENDROOT
BRANCH   1   2
ATOM      2  C   LIG A   1      -8.234  -2.850 128.123  0.00  0.00    -0.044 A 
ATOM      3  C   LIG A   1      -8.133  -3.253 129.463  0.00  0.00    +0.053 A 
ATOM      4  C   LIG A   1      -7.607  -2.357 130.370  0.00  0.00    +0.167 A 
ATOM      5  C   LIG A   1      -7.158  -1.114 129.988  0.00  0.00    +0.166 A 
ATOM      6  C   LIG A   1      -7.204  -0.697 128.678  0.00  0.00    +0.050 A 
ATOM      7  C   LIG A   1      -7.760  -1.571 127.742  0.00  0.00    +0.007 A 
ATOM      8  O   LIG A   1      -6.699  -0.383 131.039  0.00  0.00    -0.453 OA
ATOM      9  C   LIG A   1      -7.018  -1.264 132.134  0.00  0.00    +0.466 C 
ATOM     10  O   LIG A   1      -7.483  -2.562 131.709  0.00  0.00    -0.453 OA
ENDBRANCH   1   2
BRANCH   1  11
ATOM     11  C   LIG A   1      -9.367  -3.036 125.849  0.00  0.00    +0.050 C 
BRANCH  11  12
ATOM     12  C   LIG A   1      -8.751  -3.533 124.527  0.00  0.00    +0.184 C 
ATOM     13  C   LIG A   1      -9.448  -2.985 123.287  0.00  0.00    +0.118 C 
ATOM     14  C   LIG A   1      -9.070  -1.553 123.068  0.00  0.00    +0.108 C 
ATOM     15  C   LIG A   1      -7.869  -1.112 123.482  0.00  0.00    +0.132 C 
ATOM     16  C   LIG A   1      -6.896  -2.016 124.113  0.00  0.00    +0.335 C 
ATOM     17  O   LIG A   1      -5.733  -1.656 124.281  0.00  0.00    -0.245 OA
ATOM     18  O   LIG A   1      -7.336  -3.239 124.487  0.00  0.00    -0.458 OA
BRANCH  14  19
ATOM     19  O   LIG A   1     -10.051  -0.813 122.453  0.00  0.00    -0.499 OA
ATOM     20  C   LIG A   1     -10.061   0.592 122.685  0.00  0.00    +0.276 C 
ENDBRANCH  14  19
ENDBRANCH  11  12
ENDBRANCH   1  11
TORSDOF 4
ENDMDL
MODEL 4
REMARK VINA RESULT:      -6.8      9.963     11.151
REMARK  Name = NuBBE_1780
REMARK  5 active torsions:
REMARK  status: ('A' for Active; 'I' for Inactive)
REMARK    1  A    between atoms: C_1  and  C_2
REMARK    2  A    between atoms: C_1  and  C_13
REMARK    3  A    between atoms: C_2  and  C_3
REMARK    4  A    between atoms: C_6  and  O_11
REMARK    5  A    between atoms: O_11  and  C_12
REMARK                            x       y       z     vdW  Elec       q    Type
REMARK                         _______ _______ _______ _____ _____    ______ ____
ROOT
ATOM      1  C   LIG A   1      -8.983  -3.689 128.780  0.00  0.00    +0.039 C 
ENDROOT
BRANCH   1   2
ATOM      2  C   LIG A   1      -7.828  -3.138 129.579  0.00  0.00    -0.044 A 
ATOM      3  C   LIG A   1      -6.683  -3.916 129.806  0.00  0.00    +0.053 A 
ATOM      4  C   LIG A   1      -5.677  -3.375 130.579  0.00  0.00    +0.167 A 
ATOM      5  C   LIG A   1      -5.758  -2.102 131.092  0.00  0.00    +0.166 A 
ATOM      6  C   LIG A   1      -6.846  -1.294 130.858  0.00  0.00    +0.050 A 
ATOM      7  C   LIG A   1      -7.895  -1.826 130.105  0.00  0.00    +0.007 A 
ATOM      8  O   LIG A   1      -4.671  -1.774 131.841  0.00  0.00    -0.453 OA
ATOM      9  C   LIG A   1      -3.956  -3.025 131.832  0.00  0.00    +0.466 C 
ATOM     10  O   LIG A   1      -4.526  -4.005 130.940  0.00  0.00    -0.453 OA
ENDBRANCH   1   2
BRANCH   1  11
ATOM     11  C   LIG A   1      -8.694  -3.816 127.280  0.00  0.00    +0.050 C 
BRANCH  11  12
ATOM     12  C   LIG A   1      -8.757  -2.478 126.519  0.00  0.00    +0.184 C 
ATOM     13  C   LIG A   1      -7.392  -1.967 126.072  0.00  0.00    +0.118 C 
ATOM     14  C   LIG A   1      -6.902  -2.754 124.896  0.00  0.00    +0.108 C 
ATOM     15  C   LIG A   1      -7.789  -3.299 124.045  0.00  0.00    +0.132 C 
ATOM     16  C   LIG A   1      -9.237  -3.108 124.220  0.00  0.00    +0.335 C 
ATOM     17  O   LIG A   1     -10.016  -3.419 123.323  0.00  0.00    -0.245 OA
ATOM     18  O   LIG A   1      -9.656  -2.579 125.392  0.00  0.00    -0.458 OA
BRANCH  14  19
ATOM     19  O   LIG A   1      -5.532  -2.846 124.828  0.00  0.00    -0.499 OA
ATOM     20  C   LIG A   1      -4.974  -3.594 123.753  0.00  0.00    +0.276 C 
ENDBRANCH  14  19
ENDBRANCH  11  12
ENDBRANCH   1  11
TORSDOF 4
ENDMDL
MODEL 5
REMARK VINA RESULT:      -6.6      7.107      9.880
REMARK  Name = NuBBE_1780
REMARK  5 active torsions:
REMARK  status: ('A' for Active; 'I' for Inactive)
REMARK    1  A    between atoms: C_1  and  C_2
REMARK    2  A    between atoms: C_1  and  C_13
REMARK    3  A    between atoms: C_2  and  C_3
REMARK    4  A    between atoms: C_6  and  O_11
REMARK    5  A    between atoms: O_11  and  C_12
REMARK                            x       y       z     vdW  Elec       q    Type
REMARK                         _______ _______ _______ _____ _____    ______ ____
ROOT
ATOM      1  C   LIG A   1      -8.375   2.157 123.625  0.00  0.00    +0.039 C 
ENDROOT
BRANCH   1   2
ATOM      2  C   LIG A   1      -7.966   2.887 122.369  0.00  0.00    -0.044 A 
ATOM      3  C   LIG A   1      -6.628   3.256 122.163  0.00  0.00    +0.053 A 
ATOM      4  C   LIG A   1      -6.321   3.959 121.017  0.00  0.00    +0.167 A 
ATOM      5  C   LIG A   1      -7.275   4.269 120.075  0.00  0.00    +0.166 A 
ATOM      6  C   LIG A   1      -8.589   3.889 120.223  0.00  0.00    +0.050 A 
ATOM      7  C   LIG A   1      -8.936   3.205 121.389  0.00  0.00    +0.007 A 
ATOM      8  O   LIG A   1      -6.765   4.982 119.035  0.00  0.00    -0.453 OA
ATOM      9  C   LIG A   1      -5.412   5.181 119.488  0.00  0.00    +0.466 C 
ATOM     10  O   LIG A   1      -5.092   4.437 120.683  0.00  0.00    -0.453 OA
ENDBRANCH   1   2
BRANCH   1  11
ATOM     11  C   LIG A   1      -7.193   1.649 124.458  0.00  0.00    +0.050 C 
BRANCH  11  12
ATOM     12  C   LIG A   1      -7.218   2.118 125.925  0.00  0.00    +0.184 C 
ATOM     13  C   LIG A   1      -5.860   2.588 126.435  0.00  0.00    +0.118 C 
ATOM     14  C   LIG A   1      -5.536   3.941 125.880  0.00  0.00    +0.108 C 
ATOM     15  C   LIG A   1      -6.532   4.790 125.574  0.00  0.00    +0.132 C 
ATOM     16  C   LIG A   1      -7.940   4.437 125.809  0.00  0.00    +0.335 C 
ATOM     17  O   LIG A   1      -8.815   5.296 125.735  0.00  0.00    -0.245 OA
ATOM     18  O   LIG A   1      -8.215   3.147 126.110  0.00  0.00    -0.458 OA
BRANCH  14  19
ATOM     19  O   LIG A   1      -4.188   4.161 125.723  0.00  0.00    -0.499 OA
ATOM     20  C   LIG A   1      -3.344   3.911 126.842  0.00  0.00    +0.276 C 
ENDBRANCH  14  19
ENDBRANCH  11  12
ENDBRANCH   1  11
TORSDOF 4
ENDMDL
MODEL 6
REMARK VINA RESULT:      -6.5     10.285     11.091
REMARK  Name = NuBBE_1780
REMARK  5 active torsions:
REMARK  status: ('A' for Active; 'I' for Inactive)
REMARK    1  A    between atoms: C_1  and  C_2
REMARK    2  A    between atoms: C_1  and  C_13
REMARK    3  A    between atoms: C_2  and  C_3
REMARK    4  A    between atoms: C_6  and  O_11
REMARK    5  A    between atoms: O_11  and  C_12
REMARK                            x       y       z     vdW  Elec       q    Type
REMARK                         _______ _______ _______ _____ _____    ______ ____
ROOT
ATOM      1  C   LIG A   1      -8.340  -2.985 128.660  0.00  0.00    +0.039 C 
ENDROOT
BRANCH   1   2
ATOM      2  C   LIG A   1      -6.956  -3.154 129.234  0.00  0.00    -0.044 A 
ATOM      3  C   LIG A   1      -6.774  -3.733 130.499  0.00  0.00    +0.053 A 
ATOM      4  C   LIG A   1      -5.489  -3.822 130.991  0.00  0.00    +0.167 A 
ATOM      5  C   LIG A   1      -4.401  -3.395 130.266  0.00  0.00    +0.166 A 
ATOM      6  C   LIG A   1      -4.534  -2.859 129.006  0.00  0.00    +0.050 A 
ATOM      7  C   LIG A   1      -5.827  -2.726 128.495  0.00  0.00    +0.007 A 
ATOM      8  O   LIG A   1      -3.231  -3.554 130.942  0.00  0.00    -0.453 OA
ATOM      9  C   LIG A   1      -3.722  -4.022 132.214  0.00  0.00    +0.466 C 
ATOM     10  O   LIG A   1      -5.137  -4.306 132.213  0.00  0.00    -0.453 OA
ENDBRANCH   1   2
BRANCH   1  11
ATOM     11  C   LIG A   1      -8.422  -3.254 127.153  0.00  0.00    +0.050 C 
BRANCH  11  12
ATOM     12  C   LIG A   1      -8.952  -2.060 126.336  0.00  0.00    +0.184 C 
ATOM     13  C   LIG A   1      -7.850  -1.167 125.778  0.00  0.00    +0.118 C 
ATOM     14  C   LIG A   1      -7.186  -1.829 124.610  0.00  0.00    +0.108 C 
ATOM     15  C   LIG A   1      -7.885  -2.685 123.845  0.00  0.00    +0.132 C 
ATOM     16  C   LIG A   1      -9.306  -2.960 124.105  0.00  0.00    +0.335 C 
ATOM     17  O   LIG A   1      -9.982  -3.564 123.275  0.00  0.00    -0.245 OA
ATOM     18  O   LIG A   1      -9.821  -2.519 125.275  0.00  0.00    -0.458 OA
BRANCH  14  19
ATOM     19  O   LIG A   1      -5.865  -1.479 124.459  0.00  0.00    -0.499 OA
ATOM     20  C   LIG A   1      -5.263  -0.712 125.496  0.00  0.00    +0.276 C 
ENDBRANCH  14  19
ENDBRANCH  11  12
ENDBRANCH   1  11
TORSDOF 4
ENDMDL
MODEL 7
REMARK VINA RESULT:      -6.5      1.947      7.087
REMARK  Name = NuBBE_1780
REMARK  5 active torsions:
REMARK  status: ('A' for Active; 'I' for Inactive)
REMARK    1  A    between atoms: C_1  and  C_2
REMARK    2  A    between atoms: C_1  and  C_13
REMARK    3  A    between atoms: C_2  and  C_3
REMARK    4  A    between atoms: C_6  and  O_11
REMARK    5  A    between atoms: O_11  and  C_12
REMARK                            x       y       z     vdW  Elec       q    Type
REMARK                         _______ _______ _______ _____ _____    ______ ____
ROOT
ATOM      1  C   LIG A   1      -7.528   6.056 132.255  0.00  0.00    +0.039 C 
ENDROOT
BRANCH   1   2
ATOM      2  C   LIG A   1      -8.797   6.447 131.539  0.00  0.00    -0.044 A 
ATOM      3  C   LIG A   1      -8.744   7.163 130.333  0.00  0.00    +0.053 A 
ATOM      4  C   LIG A   1      -9.937   7.530 129.747  0.00  0.00    +0.167 A 
ATOM      5  C   LIG A   1     -11.153   7.186 130.291  0.00  0.00    +0.166 A 
ATOM      6  C   LIG A   1     -11.245   6.450 131.450  0.00  0.00    +0.050 A 
ATOM      7  C   LIG A   1     -10.054   6.092 132.084  0.00  0.00    +0.007 A 
ATOM      8  O   LIG A   1     -12.200   7.664 129.567  0.00  0.00    -0.453 OA
ATOM      9  C   LIG A   1     -11.503   8.442 128.574  0.00  0.00    +0.466 C 
ATOM     10  O   LIG A   1     -10.071   8.266 128.610  0.00  0.00    -0.453 OA
ENDBRANCH   1   2
BRANCH   1  11
ATOM     11  C   LIG A   1      -6.346   5.787 131.316  0.00  0.00    +0.050 C 
BRANCH  11  12
ATOM     12  C   LIG A   1      -5.291   6.910 131.305  0.00  0.00    +0.184 C 
ATOM     13  C   LIG A   1      -4.006   6.543 132.038  0.00  0.00    +0.118 C 
ATOM     14  C   LIG A   1      -3.188   5.599 131.212  0.00  0.00    +0.108 C 
ATOM     15  C   LIG A   1      -3.273   5.643 129.871  0.00  0.00    +0.132 C 
ATOM     16  C   LIG A   1      -4.126   6.629 129.189  0.00  0.00    +0.335 C 
ATOM     17  O   LIG A   1      -4.025   6.803 127.977  0.00  0.00    -0.245 OA
ATOM     18  O   LIG A   1      -5.005   7.321 129.949  0.00  0.00    -0.458 OA
BRANCH  14  19
ATOM     19  O   LIG A   1      -2.417   4.741 131.960  0.00  0.00    -0.499 OA
ATOM     20  C   LIG A   1      -1.194   5.242 132.487  0.00  0.00    +0.276 C 
ENDBRANCH  14  19
ENDBRANCH  11  12
ENDBRANCH   1  11
TORSDOF 4
ENDMDL
MODEL 8
REMARK VINA RESULT:      -6.3      9.724     11.982
REMARK  Name = NuBBE_1780
REMARK  5 active torsions:
REMARK  status: ('A' for Active; 'I' for Inactive)
REMARK    1  A    between atoms: C_1  and  C_2
REMARK    2  A    between atoms: C_1  and  C_13
REMARK    3  A    between atoms: C_2  and  C_3
REMARK    4  A    between atoms: C_6  and  O_11
REMARK    5  A    between atoms: O_11  and  C_12
REMARK                            x       y       z     vdW  Elec       q    Type
REMARK                         _______ _______ _______ _____ _____    ______ ____
ROOT
ATOM      1  C   LIG A   1      -8.546  -3.540 128.438  0.00  0.00    +0.039 C 
ENDROOT
BRANCH   1   2
ATOM      2  C   LIG A   1      -8.264  -2.981 127.065  0.00  0.00    -0.044 A 
ATOM      3  C   LIG A   1      -9.242  -3.030 126.061  0.00  0.00    +0.053 A 
ATOM      4  C   LIG A   1      -8.913  -2.542 124.813  0.00  0.00    +0.167 A 
ATOM      5  C   LIG A   1      -7.681  -1.989 124.550  0.00  0.00    +0.166 A 
ATOM      6  C   LIG A   1      -6.710  -1.887 125.520  0.00  0.00    +0.050 A 
ATOM      7  C   LIG A   1      -7.004  -2.402 126.784  0.00  0.00    +0.007 A 
ATOM      8  O   LIG A   1      -7.557  -1.590 123.256  0.00  0.00    -0.453 OA
ATOM      9  C   LIG A   1      -8.806  -2.060 122.713  0.00  0.00    +0.466 C 
ATOM     10  O   LIG A   1      -9.717  -2.556 123.716  0.00  0.00    -0.453 OA
ENDBRANCH   1   2
BRANCH   1  11
ATOM     11  C   LIG A   1      -8.122  -2.613 129.583  0.00  0.00    +0.050 C 
BRANCH  11  12
ATOM     12  C   LIG A   1      -7.247  -3.301 130.648  0.00  0.00    +0.184 C 
ATOM     13  C   LIG A   1      -5.909  -3.792 130.111  0.00  0.00    +0.118 C 
ATOM     14  C   LIG A   1      -4.973  -2.640 129.911  0.00  0.00    +0.108 C 
ATOM     15  C   LIG A   1      -5.090  -1.548 130.686  0.00  0.00    +0.132 C 
ATOM     16  C   LIG A   1      -6.093  -1.472 131.759  0.00  0.00    +0.335 C 
ATOM     17  O   LIG A   1      -6.041  -0.572 132.594  0.00  0.00    -0.245 OA
ATOM     18  O   LIG A   1      -7.051  -2.426 131.782  0.00  0.00    -0.458 OA
BRANCH  14  19
ATOM     19  O   LIG A   1      -4.070  -2.835 128.893  0.00  0.00    -0.499 OA
ATOM     20  C   LIG A   1      -3.008  -3.755 129.122  0.00  0.00    +0.276 C 
ENDBRANCH  14  19
ENDBRANCH  11  12
ENDBRANCH   1  11
TORSDOF 4
ENDMDL
MODEL 9
REMARK VINA RESULT:      -6.3      2.262      6.035
REMARK  Name = NuBBE_1780
REMARK  5 active torsions:
REMARK  status: ('A' for Active; 'I' for Inactive)
REMARK    1  A    between atoms: C_1  and  C_2
REMARK    2  A    between atoms: C_1  and  C_13
REMARK    3  A    between atoms: C_2  and  C_3
REMARK    4  A    between atoms: C_6  and  O_11
REMARK    5  A    between atoms: O_11  and  C_12
REMARK                            x       y       z     vdW  Elec       q    Type
REMARK                         _______ _______ _______ _____ _____    ______ ____
ROOT
ATOM      1  C   LIG A   1      -8.542   6.081 132.196  0.00  0.00    +0.039 C 
ENDROOT
BRANCH   1   2
ATOM      2  C   LIG A   1      -9.749   6.567 131.431  0.00  0.00    -0.044 A 
ATOM      3  C   LIG A   1      -9.596   7.207 130.192  0.00  0.00    +0.053 A 
ATOM      4  C   LIG A   1     -10.732   7.668 129.559  0.00  0.00    +0.167 A 
ATOM      5  C   LIG A   1     -11.987   7.485 130.090  0.00  0.00    +0.166 A 
ATOM      6  C   LIG A   1     -12.180   6.827 131.283  0.00  0.00    +0.050 A 
ATOM      7  C   LIG A   1     -11.046   6.378 131.963  0.00  0.00    +0.007 A 
ATOM      8  O   LIG A   1     -12.963   8.033 129.318  0.00  0.00    -0.453 OA
ATOM      9  C   LIG A   1     -12.167   8.677 128.303  0.00  0.00    +0.466 C 
ATOM     10  O   LIG A   1     -10.764   8.352 128.383  0.00  0.00    -0.453 OA
ENDBRANCH   1   2
BRANCH   1  11
ATOM     11  C   LIG A   1      -7.206   6.515 131.584  0.00  0.00    +0.050 C 
BRANCH  11  12
ATOM     12  C   LIG A   1      -6.106   5.439 131.665  0.00  0.00    +0.184 C 
ATOM     13  C   LIG A   1      -6.650   4.016 131.701  0.00  0.00    +0.118 C 
ATOM     14  C   LIG A   1      -7.123   3.605 130.341  0.00  0.00    +0.108 C 
ATOM     15  C   LIG A   1      -6.547   4.136 129.248  0.00  0.00    +0.132 C 
ATOM     16  C   LIG A   1      -5.430   5.086 129.356  0.00  0.00    +0.335 C 
ATOM     17  O   LIG A   1      -4.775   5.388 128.362  0.00  0.00    -0.245 OA
ATOM     18  O   LIG A   1      -5.164   5.596 130.580  0.00  0.00    -0.458 OA
BRANCH  14  19
ATOM     19  O   LIG A   1      -8.157   2.699 130.368  0.00  0.00    -0.499 OA
ATOM     20  C   LIG A   1      -9.466   3.184 130.092  0.00  0.00    +0.276 C 
ENDBRANCH  14  19
ENDBRANCH  11  12
ENDBRANCH   1  11
TORSDOF 4
ENDMDL
