MODEL 1
REMARK VINA RESULT:      -6.0      0.000      0.000
REMARK  Name = NuBBE_624
REMARK  6 active torsions:
REMARK  status: ('A' for Active; 'I' for Inactive)
REMARK    1  A    between atoms: C_2  and  O_3
REMARK    2  A    between atoms: C_2  and  C_5
REMARK    3  A    between atoms: O_3  and  C_4
REMARK    4  A    between atoms: C_7  and  O_8
REMARK    5  A    between atoms: C_9  and  O_10
REMARK    6  A    between atoms: C_11  and  O_12
REMARK                            x       y       z     vdW  Elec       q    Type
REMARK                         _______ _______ _______ _____ _____    ______ ____
ROOT
ATOM      1  C   LIG A   1     -12.444   8.502 129.503  0.00  0.00    +0.066 A 
ATOM      2  C   LIG A   1     -11.524   8.158 128.494  0.00  0.00    +0.064 A 
ATOM      3  C   LIG A   1     -10.767   6.997 128.631  0.00  0.00    +0.163 A 
ATOM      4  C   LIG A   1     -10.916   6.191 129.755  0.00  0.00    +0.201 A 
ATOM      5  C   LIG A   1     -11.818   6.537 130.751  0.00  0.00    +0.163 A 
ATOM      6  C   LIG A   1     -12.583   7.686 130.637  0.00  0.00    +0.064 A 
ENDROOT
BRANCH   1   8
ATOM      7  O   LIG A   1     -13.883  10.003 128.321  0.00  0.00    -0.245 OA
ATOM      8  C   LIG A   1     -13.261   9.735 129.332  0.00  0.00    +0.339 C 
BRANCH   8   9
ATOM      9  O   LIG A   1     -13.201  10.476 130.465  0.00  0.00    -0.464 OA
ATOM     10  C   LIG A   1     -13.616  11.836 130.350  0.00  0.00    +0.280 C 
ENDBRANCH   8   9
ENDBRANCH   1   8
BRANCH   3  11
ATOM     11  O   LIG A   1      -9.862   6.602 127.685  0.00  0.00    -0.503 OA
ATOM     12  H   LIG A   1      -9.867   5.631 127.637  0.00  0.00    +0.292 HD
ENDBRANCH   3  11
BRANCH   4  13
ATOM     13  O   LIG A   1     -10.182   5.045 129.896  0.00  0.00    -0.501 OA
ATOM     14  H   LIG A   1     -10.553   4.436 129.226  0.00  0.00    +0.292 HD
ENDBRANCH   4  13
BRANCH   5  15
ATOM     15  O   LIG A   1     -11.965   5.748 131.853  0.00  0.00    -0.503 OA
ATOM     16  H   LIG A   1     -11.062   5.665 132.223  0.00  0.00    +0.292 HD
ENDBRANCH   5  15
TORSDOF 5
ENDMDL
MODEL 2
REMARK VINA RESULT:      -6.0      0.053      2.297
REMARK  Name = NuBBE_624
REMARK  6 active torsions:
REMARK  status: ('A' for Active; 'I' for Inactive)
REMARK    1  A    between atoms: C_2  and  O_3
REMARK    2  A    between atoms: C_2  and  C_5
REMARK    3  A    between atoms: O_3  and  C_4
REMARK    4  A    between atoms: C_7  and  O_8
REMARK    5  A    between atoms: C_9  and  O_10
REMARK    6  A    between atoms: C_11  and  O_12
REMARK                            x       y       z     vdW  Elec       q    Type
REMARK                         _______ _______ _______ _____ _____    ______ ____
ROOT
ATOM      1  C   LIG A   1     -12.448   8.471 129.432  0.00  0.00    +0.066 A 
ATOM      2  C   LIG A   1     -12.608   7.688 130.591  0.00  0.00    +0.064 A 
ATOM      3  C   LIG A   1     -11.840   6.536 130.745  0.00  0.00    +0.163 A 
ATOM      4  C   LIG A   1     -10.929   6.163 129.762  0.00  0.00    +0.201 A 
ATOM      5  C   LIG A   1     -10.779   6.933 128.617  0.00  0.00    +0.163 A 
ATOM      6  C   LIG A   1     -11.531   8.084 128.441  0.00  0.00    +0.064 A 
ENDROOT
BRANCH   1   8
ATOM      7  O   LIG A   1     -13.887  10.002 128.288  0.00  0.00    -0.245 OA
ATOM      8  C   LIG A   1     -13.261   9.710 129.290  0.00  0.00    +0.339 C 
BRANCH   8   9
ATOM      9  O   LIG A   1     -13.194  10.427 130.439  0.00  0.00    -0.464 OA
ATOM     10  C   LIG A   1     -13.606  11.789 130.354  0.00  0.00    +0.280 C 
ENDBRANCH   8   9
ENDBRANCH   1   8
BRANCH   3  11
ATOM     11  O   LIG A   1     -11.941   5.736 131.849  0.00  0.00    -0.503 OA
ATOM     12  H   LIG A   1     -12.716   6.017 132.366  0.00  0.00    +0.292 HD
ENDBRANCH   3  11
BRANCH   4  13
ATOM     13  O   LIG A   1     -10.165   5.038 129.906  0.00  0.00    -0.501 OA
ATOM     14  H   LIG A   1     -10.080   4.927 130.876  0.00  0.00    +0.292 HD
ENDBRANCH   4  13
BRANCH   5  15
ATOM     15  O   LIG A   1      -9.887   6.569 127.652  0.00  0.00    -0.503 OA
ATOM     16  H   LIG A   1      -9.762   5.606 127.778  0.00  0.00    +0.292 HD
ENDBRANCH   5  15
TORSDOF 5
ENDMDL
MODEL 3
REMARK VINA RESULT:      -5.4      1.460      2.273
REMARK  Name = NuBBE_624
REMARK  6 active torsions:
REMARK  status: ('A' for Active; 'I' for Inactive)
REMARK    1  A    between atoms: C_2  and  O_3
REMARK    2  A    between atoms: C_2  and  C_5
REMARK    3  A    between atoms: O_3  and  C_4
REMARK    4  A    between atoms: C_7  and  O_8
REMARK    5  A    between atoms: C_9  and  O_10
REMARK    6  A    between atoms: C_11  and  O_12
REMARK                            x       y       z     vdW  Elec       q    Type
REMARK                         _______ _______ _______ _____ _____    ______ ____
ROOT
ATOM      1  C   LIG A   1     -11.902   8.317 129.178  0.00  0.00    +0.066 A 
ATOM      2  C   LIG A   1     -12.057   8.382 127.780  0.00  0.00    +0.064 A 
ATOM      3  C   LIG A   1     -11.207   7.638 126.966  0.00  0.00    +0.163 A 
ATOM      4  C   LIG A   1     -10.213   6.844 127.529  0.00  0.00    +0.201 A 
ATOM      5  C   LIG A   1     -10.058   6.788 128.907  0.00  0.00    +0.163 A 
ATOM      6  C   LIG A   1     -10.892   7.518 129.738  0.00  0.00    +0.064 A 
ENDROOT
BRANCH   1   8
ATOM      7  O   LIG A   1     -13.108   8.807 131.185  0.00  0.00    -0.245 OA
ATOM      8  C   LIG A   1     -12.832   9.101 130.036  0.00  0.00    +0.339 C 
BRANCH   8   9
ATOM      9  O   LIG A   1     -13.293  10.170 129.342  0.00  0.00    -0.464 OA
ATOM     10  C   LIG A   1     -13.602  11.332 130.109  0.00  0.00    +0.280 C 
ENDBRANCH   8   9
ENDBRANCH   1   8
BRANCH   3  11
ATOM     11  O   LIG A   1     -11.308   7.652 125.603  0.00  0.00    -0.503 OA
ATOM     12  H   LIG A   1     -12.057   8.220 125.353  0.00  0.00    +0.292 HD
ENDBRANCH   3  11
BRANCH   4  13
ATOM     13  O   LIG A   1      -9.376   6.105 126.739  0.00  0.00    -0.501 OA
ATOM     14  H   LIG A   1      -9.282   6.638 125.923  0.00  0.00    +0.292 HD
ENDBRANCH   4  13
BRANCH   5  15
ATOM     15  O   LIG A   1      -9.083   6.011 129.460  0.00  0.00    -0.503 OA
ATOM     16  H   LIG A   1      -9.503   5.136 129.585  0.00  0.00    +0.292 HD
ENDBRANCH   5  15
TORSDOF 5
ENDMDL
MODEL 4
REMARK VINA RESULT:      -5.2      2.442      2.985
REMARK  Name = NuBBE_624
REMARK  6 active torsions:
REMARK  status: ('A' for Active; 'I' for Inactive)
REMARK    1  A    between atoms: C_2  and  O_3
REMARK    2  A    between atoms: C_2  and  C_5
REMARK    3  A    between atoms: O_3  and  C_4
REMARK    4  A    between atoms: C_7  and  O_8
REMARK    5  A    between atoms: C_9  and  O_10
REMARK    6  A    between atoms: C_11  and  O_12
REMARK                            x       y       z     vdW  Elec       q    Type
REMARK                         _______ _______ _______ _____ _____    ______ ____
ROOT
ATOM      1  C   LIG A   1     -10.972   6.804 130.287  0.00  0.00    +0.066 A 
ATOM      2  C   LIG A   1      -9.702   7.300 129.936  0.00  0.00    +0.064 A 
ATOM      3  C   LIG A   1      -8.610   7.013 130.751  0.00  0.00    +0.163 A 
ATOM      4  C   LIG A   1      -8.775   6.248 131.901  0.00  0.00    +0.201 A 
ATOM      5  C   LIG A   1     -10.029   5.767 132.249  0.00  0.00    +0.163 A 
ATOM      6  C   LIG A   1     -11.131   6.038 131.453  0.00  0.00    +0.064 A 
ENDROOT
BRANCH   1   8
ATOM      7  O   LIG A   1     -12.452   6.406 128.450  0.00  0.00    -0.245 OA
ATOM      8  C   LIG A   1     -12.126   7.102 129.394  0.00  0.00    +0.339 C 
BRANCH   8   9
ATOM      9  O   LIG A   1     -12.735   8.240 129.810  0.00  0.00    -0.464 OA
ATOM     10  C   LIG A   1     -13.020   9.205 128.800  0.00  0.00    +0.280 C 
ENDBRANCH   8   9
ENDBRANCH   1   8
BRANCH   3  11
ATOM     11  O   LIG A   1      -7.349   7.458 130.463  0.00  0.00    -0.503 OA
ATOM     12  H   LIG A   1      -6.879   7.620 131.299  0.00  0.00    +0.292 HD
ENDBRANCH   3  11
BRANCH   4  13
ATOM     13  O   LIG A   1      -7.708   5.955 132.706  0.00  0.00    -0.501 OA
ATOM     14  H   LIG A   1      -7.525   5.009 132.528  0.00  0.00    +0.292 HD
ENDBRANCH   4  13
BRANCH   5  15
ATOM     15  O   LIG A   1     -10.193   5.018 133.376  0.00  0.00    -0.503 OA
ATOM     16  H   LIG A   1     -10.759   4.269 133.099  0.00  0.00    +0.292 HD
ENDBRANCH   5  15
TORSDOF 5
ENDMDL
MODEL 5
REMARK VINA RESULT:      -5.2      2.454      3.706
REMARK  Name = NuBBE_624
REMARK  6 active torsions:
REMARK  status: ('A' for Active; 'I' for Inactive)
REMARK    1  A    between atoms: C_2  and  O_3
REMARK    2  A    between atoms: C_2  and  C_5
REMARK    3  A    between atoms: O_3  and  C_4
REMARK    4  A    between atoms: C_7  and  O_8
REMARK    5  A    between atoms: C_9  and  O_10
REMARK    6  A    between atoms: C_11  and  O_12
REMARK                            x       y       z     vdW  Elec       q    Type
REMARK                         _______ _______ _______ _____ _____    ______ ____
ROOT
ATOM      1  C   LIG A   1     -10.958   6.764 130.271  0.00  0.00    +0.066 A 
ATOM      2  C   LIG A   1     -11.140   5.973 131.421  0.00  0.00    +0.064 A 
ATOM      3  C   LIG A   1     -10.048   5.707 132.244  0.00  0.00    +0.163 A 
ATOM      4  C   LIG A   1      -8.792   6.214 131.928  0.00  0.00    +0.201 A 
ATOM      5  C   LIG A   1      -8.614   6.987 130.789  0.00  0.00    +0.163 A 
ATOM      6  C   LIG A   1      -9.685   7.266 129.956  0.00  0.00    +0.064 A 
ENDROOT
BRANCH   1   8
ATOM      7  O   LIG A   1     -12.497   6.354 128.486  0.00  0.00    -0.245 OA
ATOM      8  C   LIG A   1     -12.139   7.057 129.413  0.00  0.00    +0.339 C 
BRANCH   8   9
ATOM      9  O   LIG A   1     -12.732   8.200 129.837  0.00  0.00    -0.464 OA
ATOM     10  C   LIG A   1     -12.963   9.195 128.842  0.00  0.00    +0.280 C 
ENDBRANCH   8   9
ENDBRANCH   1   8
BRANCH   3  11
ATOM     11  O   LIG A   1     -10.158   4.952 133.378  0.00  0.00    -0.503 OA
ATOM     12  H   LIG A   1     -10.448   4.057 133.129  0.00  0.00    +0.292 HD
ENDBRANCH   3  11
BRANCH   4  13
ATOM     13  O   LIG A   1      -7.714   5.963 132.732  0.00  0.00    -0.501 OA
ATOM     14  H   LIG A   1      -8.108   5.695 133.587  0.00  0.00    +0.292 HD
ENDBRANCH   4  13
BRANCH   5  15
ATOM     15  O   LIG A   1      -7.383   7.483 130.478  0.00  0.00    -0.503 OA
ATOM     16  H   LIG A   1      -7.533   8.051 129.695  0.00  0.00    +0.292 HD
ENDBRANCH   5  15
TORSDOF 5
ENDMDL
MODEL 6
REMARK VINA RESULT:      -5.2      2.373      4.654
REMARK  Name = NuBBE_624
REMARK  6 active torsions:
REMARK  status: ('A' for Active; 'I' for Inactive)
REMARK    1  A    between atoms: C_2  and  O_3
REMARK    2  A    between atoms: C_2  and  C_5
REMARK    3  A    between atoms: O_3  and  C_4
REMARK    4  A    between atoms: C_7  and  O_8
REMARK    5  A    between atoms: C_9  and  O_10
REMARK    6  A    between atoms: C_11  and  O_12
REMARK                            x       y       z     vdW  Elec       q    Type
REMARK                         _______ _______ _______ _____ _____    ______ ____
ROOT
ATOM      1  C   LIG A   1      -9.750   6.974 130.537  0.00  0.00    +0.066 A 
ATOM      2  C   LIG A   1      -9.745   7.672 129.314  0.00  0.00    +0.064 A 
ATOM      3  C   LIG A   1     -10.944   8.170 128.811  0.00  0.00    +0.163 A 
ATOM      4  C   LIG A   1     -12.133   7.975 129.507  0.00  0.00    +0.201 A 
ATOM      5  C   LIG A   1     -12.135   7.280 130.708  0.00  0.00    +0.163 A 
ATOM      6  C   LIG A   1     -10.955   6.776 131.230  0.00  0.00    +0.064 A 
ENDROOT
BRANCH   1   8
ATOM      7  O   LIG A   1      -8.353   5.470 131.766  0.00  0.00    -0.245 OA
ATOM      8  C   LIG A   1      -8.457   6.465 131.073  0.00  0.00    +0.339 C 
BRANCH   8   9
ATOM      9  O   LIG A   1      -7.449   7.271 130.659  0.00  0.00    -0.464 OA
ATOM     10  C   LIG A   1      -6.141   6.925 131.110  0.00  0.00    +0.280 C 
ENDBRANCH   8   9
ENDBRANCH   1   8
BRANCH   3  11
ATOM     11  O   LIG A   1     -11.008   8.862 127.634  0.00  0.00    -0.503 OA
ATOM     12  H   LIG A   1     -11.940   8.927 127.361  0.00  0.00    +0.292 HD
ENDBRANCH   3  11
BRANCH   4  13
ATOM     13  O   LIG A   1     -13.315   8.466 129.025  0.00  0.00    -0.501 OA
ATOM     14  H   LIG A   1     -13.230   9.436 129.120  0.00  0.00    +0.292 HD
ENDBRANCH   4  13
BRANCH   5  15
ATOM     15  O   LIG A   1     -13.299   7.088 131.392  0.00  0.00    -0.503 OA
ATOM     16  H   LIG A   1     -13.996   7.090 130.705  0.00  0.00    +0.292 HD
ENDBRANCH   5  15
TORSDOF 5
ENDMDL
MODEL 7
REMARK VINA RESULT:      -5.2      2.400      5.181
REMARK  Name = NuBBE_624
REMARK  6 active torsions:
REMARK  status: ('A' for Active; 'I' for Inactive)
REMARK    1  A    between atoms: C_2  and  O_3
REMARK    2  A    between atoms: C_2  and  C_5
REMARK    3  A    between atoms: O_3  and  C_4
REMARK    4  A    between atoms: C_7  and  O_8
REMARK    5  A    between atoms: C_9  and  O_10
REMARK    6  A    between atoms: C_11  and  O_12
REMARK                            x       y       z     vdW  Elec       q    Type
REMARK                         _______ _______ _______ _____ _____    ______ ____
ROOT
ATOM      1  C   LIG A   1      -9.706   7.023 130.534  0.00  0.00    +0.066 A 
ATOM      2  C   LIG A   1     -10.899   6.795 131.246  0.00  0.00    +0.064 A 
ATOM      3  C   LIG A   1     -12.104   7.252 130.719  0.00  0.00    +0.163 A 
ATOM      4  C   LIG A   1     -12.126   7.930 129.504  0.00  0.00    +0.201 A 
ATOM      5  C   LIG A   1     -10.948   8.160 128.808  0.00  0.00    +0.163 A 
ATOM      6  C   LIG A   1      -9.737   7.714 129.311  0.00  0.00    +0.064 A 
ENDROOT
BRANCH   1   8
ATOM      7  O   LIG A   1      -8.347   5.526 131.812  0.00  0.00    -0.245 OA
ATOM      8  C   LIG A   1      -8.428   6.510 131.100  0.00  0.00    +0.339 C 
BRANCH   8   9
ATOM      9  O   LIG A   1      -7.404   7.298 130.689  0.00  0.00    -0.464 OA
ATOM     10  C   LIG A   1      -6.099   6.898 131.100  0.00  0.00    +0.280 C 
ENDBRANCH   8   9
ENDBRANCH   1   8
BRANCH   3  11
ATOM     11  O   LIG A   1     -13.298   7.058 131.356  0.00  0.00    -0.503 OA
ATOM     12  H   LIG A   1     -13.578   7.900 131.754  0.00  0.00    +0.292 HD
ENDBRANCH   3  11
BRANCH   4  13
ATOM     13  O   LIG A   1     -13.305   8.378 128.974  0.00  0.00    -0.501 OA
ATOM     14  H   LIG A   1     -13.993   7.869 129.451  0.00  0.00    +0.292 HD
ENDBRANCH   4  13
BRANCH   5  15
ATOM     15  O   LIG A   1     -10.968   8.825 127.618  0.00  0.00    -0.503 OA
ATOM     16  H   LIG A   1     -11.909   9.054 127.475  0.00  0.00    +0.292 HD
ENDBRANCH   5  15
TORSDOF 5
ENDMDL
MODEL 8
REMARK VINA RESULT:      -5.0     11.201     13.459
REMARK  Name = NuBBE_624
REMARK  6 active torsions:
REMARK  status: ('A' for Active; 'I' for Inactive)
REMARK    1  A    between atoms: C_2  and  O_3
REMARK    2  A    between atoms: C_2  and  C_5
REMARK    3  A    between atoms: O_3  and  C_4
REMARK    4  A    between atoms: C_7  and  O_8
REMARK    5  A    between atoms: C_9  and  O_10
REMARK    6  A    between atoms: C_11  and  O_12
REMARK                            x       y       z     vdW  Elec       q    Type
REMARK                         _______ _______ _______ _____ _____    ______ ____
ROOT
ATOM      1  C   LIG A   1      -6.764  -2.262 124.078  0.00  0.00    +0.066 A 
ATOM      2  C   LIG A   1      -7.875  -3.110 123.910  0.00  0.00    +0.064 A 
ATOM      3  C   LIG A   1      -9.075  -2.576 123.448  0.00  0.00    +0.163 A 
ATOM      4  C   LIG A   1      -9.175  -1.218 123.162  0.00  0.00    +0.201 A 
ATOM      5  C   LIG A   1      -8.080  -0.383 123.337  0.00  0.00    +0.163 A 
ATOM      6  C   LIG A   1      -6.875  -0.891 123.793  0.00  0.00    +0.064 A 
ENDROOT
BRANCH   1   8
ATOM      7  O   LIG A   1      -5.147  -2.899 125.722  0.00  0.00    -0.245 OA
ATOM      8  C   LIG A   1      -5.481  -2.851 124.552  0.00  0.00    +0.339 C 
BRANCH   8   9
ATOM      9  O   LIG A   1      -4.781  -3.320 123.491  0.00  0.00    -0.464 OA
ATOM     10  C   LIG A   1      -4.285  -4.652 123.604  0.00  0.00    +0.280 C 
ENDBRANCH   8   9
ENDBRANCH   1   8
BRANCH   3  11
ATOM     11  O   LIG A   1     -10.189  -3.345 123.256  0.00  0.00    -0.503 OA
ATOM     12  H   LIG A   1     -10.117  -3.786 122.392  0.00  0.00    +0.292 HD
ENDBRANCH   3  11
BRANCH   4  13
ATOM     13  O   LIG A   1     -10.347  -0.683 122.703  0.00  0.00    -0.501 OA
ATOM     14  H   LIG A   1     -10.809  -0.383 123.512  0.00  0.00    +0.292 HD
ENDBRANCH   4  13
BRANCH   5  15
ATOM     15  O   LIG A   1      -8.176   0.948 123.058  0.00  0.00    -0.503 OA
ATOM     16  H   LIG A   1      -7.260   1.228 122.855  0.00  0.00    +0.292 HD
ENDBRANCH   5  15
TORSDOF 5
ENDMDL
MODEL 9
REMARK VINA RESULT:      -5.0      1.838      4.929
REMARK  Name = NuBBE_624
REMARK  6 active torsions:
REMARK  status: ('A' for Active; 'I' for Inactive)
REMARK    1  A    between atoms: C_2  and  O_3
REMARK    2  A    between atoms: C_2  and  C_5
REMARK    3  A    between atoms: O_3  and  C_4
REMARK    4  A    between atoms: C_7  and  O_8
REMARK    5  A    between atoms: C_9  and  O_10
REMARK    6  A    between atoms: C_11  and  O_12
REMARK                            x       y       z     vdW  Elec       q    Type
REMARK                         _______ _______ _______ _____ _____    ______ ____
ROOT
ATOM      1  C   LIG A   1     -10.517   5.740 130.007  0.00  0.00    +0.066 A 
ATOM      2  C   LIG A   1     -10.201   6.714 129.040  0.00  0.00    +0.064 A 
ATOM      3  C   LIG A   1     -10.957   7.882 128.977  0.00  0.00    +0.163 A 
ATOM      4  C   LIG A   1     -12.016   8.080 129.857  0.00  0.00    +0.201 A 
ATOM      5  C   LIG A   1     -12.330   7.115 130.804  0.00  0.00    +0.163 A 
ATOM      6  C   LIG A   1     -11.592   5.946 130.887  0.00  0.00    +0.064 A 
ENDROOT
BRANCH   1   8
ATOM      7  O   LIG A   1      -9.103   4.026 129.121  0.00  0.00    -0.245 OA
ATOM      8  C   LIG A   1      -9.687   4.507 130.076  0.00  0.00    +0.339 C 
BRANCH   8   9
ATOM      9  O   LIG A   1      -9.686   4.034 131.346  0.00  0.00    -0.464 OA
ATOM     10  C   LIG A   1      -9.822   2.622 131.491  0.00  0.00    +0.280 C 
ENDBRANCH   8   9
ENDBRANCH   1   8
BRANCH   3  11
ATOM     11  O   LIG A   1     -10.698   8.868 128.067  0.00  0.00    -0.503 OA
ATOM     12  H   LIG A   1     -11.541   9.275 127.802  0.00  0.00    +0.292 HD
ENDBRANCH   3  11
BRANCH   4  13
ATOM     13  O   LIG A   1     -12.761   9.226 129.808  0.00  0.00    -0.501 OA
ATOM     14  H   LIG A   1     -13.392   9.072 129.075  0.00  0.00    +0.292 HD
ENDBRANCH   4  13
BRANCH   5  15
ATOM     15  O   LIG A   1     -13.368   7.308 131.667  0.00  0.00    -0.503 OA
ATOM     16  H   LIG A   1     -14.112   6.804 131.279  0.00  0.00    +0.292 HD
ENDBRANCH   5  15
TORSDOF 5
ENDMDL
