MODEL 1
REMARK VINA RESULT:      -8.3      0.000      0.000
REMARK  Name = NuBBE_1456
REMARK  7 active torsions:
REMARK  status: ('A' for Active; 'I' for Inactive)
REMARK    1  A    between atoms: C_4  and  O_5
REMARK    2  A    between atoms: C_9  and  C_10
REMARK    3  A    between atoms: C_9  and  C_11
REMARK    4  A    between atoms: C_22  and  O_23
REMARK    5  A    between atoms: O_23  and  C_24
REMARK    6  A    between atoms: C_25  and  O_26
REMARK    7  A    between atoms: O_26  and  C_27
REMARK                            x       y       z     vdW  Elec       q    Type
REMARK                         _______ _______ _______ _____ _____    ______ ____
ROOT
ATOM      1  O   LIG A   1      -4.727   1.409 125.936  0.00  0.00    -0.291 OA
ATOM      2  C   LIG A   1      -4.850   1.221 127.143  0.00  0.00    +0.181 C 
ATOM      3  C   LIG A   1      -4.411   2.286 128.077  0.00  0.00    +0.102 A 
ATOM      4  C   LIG A   1      -3.742   3.434 127.626  0.00  0.00    +0.141 A 
ATOM      5  C   LIG A   1      -3.286   4.392 128.546  0.00  0.00    +0.059 A 
ATOM      6  C   LIG A   1      -3.500   4.179 129.913  0.00  0.00    +0.136 A 
ATOM      7  O   LIG A   1      -3.078   5.030 130.896  0.00  0.00    -0.481 OA
ATOM      8  C   LIG A   1      -2.482   6.291 130.527  0.00  0.00    +0.123 C 
ATOM      9  C   LIG A   1      -1.156   6.378 131.291  0.00  0.00    +0.060 C 
ATOM     10  C   LIG A   1      -3.435   7.386 131.020  0.00  0.00    +0.060 C 
ATOM     11  C   LIG A   1      -2.218   6.482 129.052  0.00  0.00    +0.020 C 
ATOM     12  C   LIG A   1      -2.586   5.597 128.121  0.00  0.00    +0.015 C 
ATOM     13  C   LIG A   1      -4.174   3.040 130.360  0.00  0.00    +0.092 A 
ATOM     14  C   LIG A   1      -4.649   2.107 129.444  0.00  0.00    +0.139 A 
ATOM     15  O   LIG A   1      -5.332   1.033 129.962  0.00  0.00    -0.483 OA
ATOM     16  C   LIG A   1      -6.175   0.417 128.980  0.00  0.00    +0.226 C 
ATOM     17  C   LIG A   1      -5.339  -0.058 127.795  0.00  0.00    +0.138 C 
ATOM     18  C   LIG A   1      -6.131  -1.012 126.932  0.00  0.00    +0.012 A 
ATOM     19  C   LIG A   1      -5.665  -1.423 125.676  0.00  0.00    +0.057 A 
ATOM     20  C   LIG A   1      -6.397  -2.310 124.872  0.00  0.00    +0.162 A 
ATOM     21  C   LIG A   1      -7.612  -2.830 125.340  0.00  0.00    +0.165 A 
ATOM     22  C   LIG A   1      -8.053  -2.467 126.619  0.00  0.00    +0.095 A 
ATOM     23  C   LIG A   1      -7.312  -1.586 127.411  0.00  0.00    +0.128 A 
ATOM     24  O   LIG A   1      -7.827  -1.341 128.659  0.00  0.00    -0.488 OA
ATOM     25  C   LIG A   1      -6.888  -0.783 129.582  0.00  0.00    +0.274 C 
ENDROOT
BRANCH   4  26
ATOM     26  O   LIG A   1      -3.509   3.652 126.288  0.00  0.00    -0.505 OA
ATOM     27  H   LIG A   1      -3.310   2.788 125.859  0.00  0.00    +0.292 HD
ENDBRANCH   4  26
BRANCH  20  28
ATOM     28  O   LIG A   1      -5.772  -2.597 123.685  0.00  0.00    -0.491 OA
ATOM     29  C   LIG A   1      -4.790  -3.625 123.710  0.00  0.00    +0.277 C 
ENDBRANCH  20  28
BRANCH  21  30
ATOM     30  O   LIG A   1      -8.279  -3.743 124.566  0.00  0.00    -0.491 OA
ATOM     31  C   LIG A   1      -9.347  -3.233 123.774  0.00  0.00    +0.277 C 
ENDBRANCH  21  30
TORSDOF 3
ENDMDL
MODEL 2
REMARK VINA RESULT:      -8.3      3.143      4.501
REMARK  Name = NuBBE_1456
REMARK  7 active torsions:
REMARK  status: ('A' for Active; 'I' for Inactive)
REMARK    1  A    between atoms: C_4  and  O_5
REMARK    2  A    between atoms: C_9  and  C_10
REMARK    3  A    between atoms: C_9  and  C_11
REMARK    4  A    between atoms: C_22  and  O_23
REMARK    5  A    between atoms: O_23  and  C_24
REMARK    6  A    between atoms: C_25  and  O_26
REMARK    7  A    between atoms: O_26  and  C_27
REMARK                            x       y       z     vdW  Elec       q    Type
REMARK                         _______ _______ _______ _____ _____    ______ ____
ROOT
ATOM      1  O   LIG A   1      -4.824   6.058 126.942  0.00  0.00    -0.291 OA
ATOM      2  C   LIG A   1      -4.462   5.081 127.591  0.00  0.00    +0.181 C 
ATOM      3  C   LIG A   1      -3.973   5.288 128.976  0.00  0.00    +0.102 A 
ATOM      4  C   LIG A   1      -3.787   6.572 129.509  0.00  0.00    +0.141 A 
ATOM      5  C   LIG A   1      -3.263   6.730 130.802  0.00  0.00    +0.059 A 
ATOM      6  C   LIG A   1      -2.923   5.591 131.543  0.00  0.00    +0.136 A 
ATOM      7  O   LIG A   1      -2.383   5.626 132.798  0.00  0.00    -0.481 OA
ATOM      8  C   LIG A   1      -2.260   6.895 133.475  0.00  0.00    +0.123 C 
ATOM      9  C   LIG A   1      -0.805   6.987 133.950  0.00  0.00    +0.060 C 
ATOM     10  C   LIG A   1      -3.196   6.836 134.687  0.00  0.00    +0.060 C 
ATOM     11  C   LIG A   1      -2.588   8.113 132.645  0.00  0.00    +0.020 C 
ATOM     12  C   LIG A   1      -3.052   8.044 131.394  0.00  0.00    +0.015 C 
ATOM     13  C   LIG A   1      -3.116   4.313 131.014  0.00  0.00    +0.092 A 
ATOM     14  C   LIG A   1      -3.662   4.160 129.743  0.00  0.00    +0.139 A 
ATOM     15  O   LIG A   1      -3.854   2.870 129.311  0.00  0.00    -0.483 OA
ATOM     16  C   LIG A   1      -4.829   2.802 128.262  0.00  0.00    +0.226 C 
ATOM     17  C   LIG A   1      -4.385   3.656 127.078  0.00  0.00    +0.138 C 
ATOM     18  C   LIG A   1      -5.193   3.322 125.846  0.00  0.00    +0.012 A 
ATOM     19  C   LIG A   1      -5.125   4.110 124.689  0.00  0.00    +0.057 A 
ATOM     20  C   LIG A   1      -5.874   3.802 123.542  0.00  0.00    +0.162 A 
ATOM     21  C   LIG A   1      -6.692   2.663 123.532  0.00  0.00    +0.165 A 
ATOM     22  C   LIG A   1      -6.719   1.842 124.666  0.00  0.00    +0.095 A 
ATOM     23  C   LIG A   1      -5.964   2.157 125.800  0.00  0.00    +0.128 A 
ATOM     24  O   LIG A   1      -6.042   1.254 126.829  0.00  0.00    -0.488 OA
ATOM     25  C   LIG A   1      -4.989   1.365 127.790  0.00  0.00    +0.274 C 
ENDROOT
BRANCH   4  26
ATOM     26  O   LIG A   1      -4.102   7.702 128.790  0.00  0.00    -0.505 OA
ATOM     27  H   LIG A   1      -4.773   7.465 128.110  0.00  0.00    +0.292 HD
ENDBRANCH   4  26
BRANCH  20  28
ATOM     28  O   LIG A   1      -5.665   4.685 122.514  0.00  0.00    -0.491 OA
ATOM     29  C   LIG A   1      -4.380   4.666 121.905  0.00  0.00    +0.277 C 
ENDBRANCH  20  28
BRANCH  21  30
ATOM     30  O   LIG A   1      -7.365   2.347 122.381  0.00  0.00    -0.491 OA
ATOM     31  C   LIG A   1      -8.690   2.857 122.270  0.00  0.00    +0.277 C 
ENDBRANCH  21  30
TORSDOF 3
ENDMDL
MODEL 3
REMARK VINA RESULT:      -8.2      6.858      9.288
REMARK  Name = NuBBE_1456
REMARK  7 active torsions:
REMARK  status: ('A' for Active; 'I' for Inactive)
REMARK    1  A    between atoms: C_4  and  O_5
REMARK    2  A    between atoms: C_9  and  C_10
REMARK    3  A    between atoms: C_9  and  C_11
REMARK    4  A    between atoms: C_22  and  O_23
REMARK    5  A    between atoms: O_23  and  C_24
REMARK    6  A    between atoms: C_25  and  O_26
REMARK    7  A    between atoms: O_26  and  C_27
REMARK                            x       y       z     vdW  Elec       q    Type
REMARK                         _______ _______ _______ _____ _____    ______ ____
ROOT
ATOM      1  O   LIG A   1      -7.084   5.805 132.191  0.00  0.00    -0.291 OA
ATOM      2  C   LIG A   1      -8.062   5.071 132.080  0.00  0.00    +0.181 C 
ATOM      3  C   LIG A   1      -9.122   5.440 131.110  0.00  0.00    +0.102 A 
ATOM      4  C   LIG A   1      -9.100   6.662 130.422  0.00  0.00    +0.141 A 
ATOM      5  C   LIG A   1     -10.153   7.004 129.558  0.00  0.00    +0.059 A 
ATOM      6  C   LIG A   1     -11.223   6.114 129.403  0.00  0.00    +0.136 A 
ATOM      7  O   LIG A   1     -12.310   6.354 128.610  0.00  0.00    -0.481 OA
ATOM      8  C   LIG A   1     -12.326   7.532 127.775  0.00  0.00    +0.123 C 
ATOM      9  C   LIG A   1     -13.653   8.243 128.064  0.00  0.00    +0.060 C 
ATOM     10  C   LIG A   1     -12.309   7.038 126.324  0.00  0.00    +0.060 C 
ATOM     11  C   LIG A   1     -11.187   8.500 127.990  0.00  0.00    +0.020 C 
ATOM     12  C   LIG A   1     -10.171   8.263 128.825  0.00  0.00    +0.015 C 
ATOM     13  C   LIG A   1     -11.239   4.894 130.082  0.00  0.00    +0.092 A 
ATOM     14  C   LIG A   1     -10.181   4.546 130.915  0.00  0.00    +0.139 A 
ATOM     15  O   LIG A   1     -10.256   3.314 131.519  0.00  0.00    -0.483 OA
ATOM     16  C   LIG A   1      -8.966   2.849 131.936  0.00  0.00    +0.226 C 
ATOM     17  C   LIG A   1      -8.344   3.838 132.917  0.00  0.00    +0.138 C 
ATOM     18  C   LIG A   1      -7.173   3.212 133.637  0.00  0.00    +0.012 A 
ATOM     19  C   LIG A   1      -6.306   3.976 134.430  0.00  0.00    +0.057 A 
ATOM     20  C   LIG A   1      -5.218   3.397 135.101  0.00  0.00    +0.162 A 
ATOM     21  C   LIG A   1      -5.000   2.015 135.008  0.00  0.00    +0.165 A 
ATOM     22  C   LIG A   1      -5.897   1.239 134.263  0.00  0.00    +0.095 A 
ATOM     23  C   LIG A   1      -6.980   1.828 133.603  0.00  0.00    +0.128 A 
ATOM     24  O   LIG A   1      -7.810   0.958 132.943  0.00  0.00    -0.488 OA
ATOM     25  C   LIG A   1      -9.095   1.499 132.625  0.00  0.00    +0.274 C 
ENDROOT
BRANCH   4  26
ATOM     26  O   LIG A   1      -8.065   7.555 130.574  0.00  0.00    -0.505 OA
ATOM     27  H   LIG A   1      -8.120   7.950 131.473  0.00  0.00    +0.292 HD
ENDBRANCH   4  26
BRANCH  20  28
ATOM     28  O   LIG A   1      -4.494   4.305 135.831  0.00  0.00    -0.491 OA
ATOM     29  C   LIG A   1      -3.754   5.272 135.097  0.00  0.00    +0.277 C 
ENDBRANCH  20  28
BRANCH  21  30
ATOM     30  O   LIG A   1      -3.969   1.462 135.722  0.00  0.00    -0.491 OA
ATOM     31  C   LIG A   1      -4.310   0.906 136.988  0.00  0.00    +0.277 C 
ENDBRANCH  21  30
TORSDOF 3
ENDMDL
MODEL 4
REMARK VINA RESULT:      -7.9      4.120      8.975
REMARK  Name = NuBBE_1456
REMARK  7 active torsions:
REMARK  status: ('A' for Active; 'I' for Inactive)
REMARK    1  A    between atoms: C_4  and  O_5
REMARK    2  A    between atoms: C_9  and  C_10
REMARK    3  A    between atoms: C_9  and  C_11
REMARK    4  A    between atoms: C_22  and  O_23
REMARK    5  A    between atoms: O_23  and  C_24
REMARK    6  A    between atoms: C_25  and  O_26
REMARK    7  A    between atoms: O_26  and  C_27
REMARK                            x       y       z     vdW  Elec       q    Type
REMARK                         _______ _______ _______ _____ _____    ______ ____
ROOT
ATOM      1  O   LIG A   1      -8.702   3.554 128.669  0.00  0.00    -0.291 OA
ATOM      2  C   LIG A   1      -8.540   2.411 129.086  0.00  0.00    +0.181 C 
ATOM      3  C   LIG A   1      -8.299   1.324 128.107  0.00  0.00    +0.102 A 
ATOM      4  C   LIG A   1      -8.384   1.543 126.724  0.00  0.00    +0.141 A 
ATOM      5  C   LIG A   1      -8.210   0.476 125.828  0.00  0.00    +0.059 A 
ATOM      6  C   LIG A   1      -7.961  -0.805 126.335  0.00  0.00    +0.136 A 
ATOM      7  O   LIG A   1      -7.801  -1.919 125.560  0.00  0.00    -0.481 OA
ATOM      8  C   LIG A   1      -7.759  -1.776 124.124  0.00  0.00    +0.123 C 
ATOM      9  C   LIG A   1      -8.778  -2.775 123.565  0.00  0.00    +0.060 C 
ATOM     10  C   LIG A   1      -6.346  -2.179 123.686  0.00  0.00    +0.060 C 
ATOM     11  C   LIG A   1      -8.076  -0.397 123.596  0.00  0.00    +0.020 C 
ATOM     12  C   LIG A   1      -8.293   0.658 124.385  0.00  0.00    +0.015 C 
ATOM     13  C   LIG A   1      -7.867  -1.021 127.713  0.00  0.00    +0.092 A 
ATOM     14  C   LIG A   1      -8.012   0.045 128.596  0.00  0.00    +0.139 A 
ATOM     15  O   LIG A   1      -7.870  -0.244 129.932  0.00  0.00    -0.483 OA
ATOM     16  C   LIG A   1      -7.551   0.926 130.696  0.00  0.00    +0.226 C 
ATOM     17  C   LIG A   1      -8.649   1.973 130.534  0.00  0.00    +0.138 C 
ATOM     18  C   LIG A   1      -8.522   3.046 131.590  0.00  0.00    +0.012 A 
ATOM     19  C   LIG A   1      -9.276   4.226 131.529  0.00  0.00    +0.057 A 
ATOM     20  C   LIG A   1      -9.162   5.225 132.509  0.00  0.00    +0.162 A 
ATOM     21  C   LIG A   1      -8.298   5.034 133.597  0.00  0.00    +0.165 A 
ATOM     22  C   LIG A   1      -7.586   3.832 133.691  0.00  0.00    +0.095 A 
ATOM     23  C   LIG A   1      -7.712   2.844 132.711  0.00  0.00    +0.128 A 
ATOM     24  O   LIG A   1      -6.997   1.695 132.937  0.00  0.00    -0.488 OA
ATOM     25  C   LIG A   1      -7.434   0.571 132.170  0.00  0.00    +0.274 C 
ENDROOT
BRANCH   4  26
ATOM     26  O   LIG A   1      -8.644   2.792 126.208  0.00  0.00    -0.505 OA
ATOM     27  H   LIG A   1      -8.460   3.464 126.904  0.00  0.00    +0.292 HD
ENDBRANCH   4  26
BRANCH  20  28
ATOM     28  O   LIG A   1      -9.986   6.297 132.279  0.00  0.00    -0.491 OA
ATOM     29  C   LIG A   1     -11.107   6.073 131.434  0.00  0.00    +0.277 C 
ENDBRANCH  20  28
BRANCH  21  30
ATOM     30  O   LIG A   1      -8.250   5.994 134.574  0.00  0.00    -0.491 OA
ATOM     31  C   LIG A   1      -7.553   5.643 135.765  0.00  0.00    +0.277 C 
ENDBRANCH  21  30
TORSDOF 3
ENDMDL
MODEL 5
REMARK VINA RESULT:      -7.7      4.992      7.122
REMARK  Name = NuBBE_1456
REMARK  7 active torsions:
REMARK  status: ('A' for Active; 'I' for Inactive)
REMARK    1  A    between atoms: C_4  and  O_5
REMARK    2  A    between atoms: C_9  and  C_10
REMARK    3  A    between atoms: C_9  and  C_11
REMARK    4  A    between atoms: C_22  and  O_23
REMARK    5  A    between atoms: O_23  and  C_24
REMARK    6  A    between atoms: C_25  and  O_26
REMARK    7  A    between atoms: O_26  and  C_27
REMARK                            x       y       z     vdW  Elec       q    Type
REMARK                         _______ _______ _______ _____ _____    ______ ____
ROOT
ATOM      1  O   LIG A   1      -7.750   0.245 133.244  0.00  0.00    -0.291 OA
ATOM      2  C   LIG A   1      -7.986   0.324 132.042  0.00  0.00    +0.181 C 
ATOM      3  C   LIG A   1      -8.486   1.610 131.498  0.00  0.00    +0.102 A 
ATOM      4  C   LIG A   1      -8.820   2.686 132.335  0.00  0.00    +0.141 A 
ATOM      5  C   LIG A   1      -9.349   3.867 131.789  0.00  0.00    +0.059 A 
ATOM      6  C   LIG A   1      -9.545   3.949 130.405  0.00  0.00    +0.136 A 
ATOM      7  O   LIG A   1     -10.075   5.037 129.769  0.00  0.00    -0.481 OA
ATOM      8  C   LIG A   1     -10.344   6.234 130.530  0.00  0.00    +0.123 C 
ATOM      9  C   LIG A   1     -11.795   6.619 130.222  0.00  0.00    +0.060 C 
ATOM     10  C   LIG A   1      -9.397   7.314 129.993  0.00  0.00    +0.060 C 
ATOM     11  C   LIG A   1     -10.170   6.110 132.025  0.00  0.00    +0.020 C 
ATOM     12  C   LIG A   1      -9.711   5.007 132.621  0.00  0.00    +0.015 C 
ATOM     13  C   LIG A   1      -9.204   2.881 129.572  0.00  0.00    +0.092 A 
ATOM     14  C   LIG A   1      -8.653   1.723 130.114  0.00  0.00    +0.139 A 
ATOM     15  O   LIG A   1      -8.312   0.733 129.224  0.00  0.00    -0.483 OA
ATOM     16  C   LIG A   1      -7.345  -0.167 129.778  0.00  0.00    +0.226 C 
ATOM     17  C   LIG A   1      -7.897  -0.815 131.045  0.00  0.00    +0.138 C 
ATOM     18  C   LIG A   1      -7.064  -2.012 131.439  0.00  0.00    +0.012 A 
ATOM     19  C   LIG A   1      -7.235  -2.649 132.676  0.00  0.00    +0.057 A 
ATOM     20  C   LIG A   1      -6.464  -3.762 133.045  0.00  0.00    +0.162 A 
ATOM     21  C   LIG A   1      -5.516  -4.278 132.149  0.00  0.00    +0.165 A 
ATOM     22  C   LIG A   1      -5.382  -3.679 130.890  0.00  0.00    +0.095 A 
ATOM     23  C   LIG A   1      -6.160  -2.574 130.533  0.00  0.00    +0.128 A 
ATOM     24  O   LIG A   1      -5.966  -2.105 129.259  0.00  0.00    -0.488 OA
ATOM     25  C   LIG A   1      -7.017  -1.264 128.777  0.00  0.00    +0.274 C 
ENDROOT
BRANCH   4  26
ATOM     26  O   LIG A   1      -8.648   2.617 133.698  0.00  0.00    -0.505 OA
ATOM     27  H   LIG A   1      -7.684   2.612 133.894  0.00  0.00    +0.292 HD
ENDBRANCH   4  26
BRANCH  20  28
ATOM     28  O   LIG A   1      -6.785  -4.248 134.286  0.00  0.00    -0.491 OA
ATOM     29  C   LIG A   1      -6.256  -3.548 135.405  0.00  0.00    +0.277 C 
ENDBRANCH  20  28
BRANCH  21  30
ATOM     30  O   LIG A   1      -4.819  -5.402 132.505  0.00  0.00    -0.491 OA
ATOM     31  C   LIG A   1      -3.627  -5.190 133.255  0.00  0.00    +0.277 C 
ENDBRANCH  21  30
TORSDOF 3
ENDMDL
MODEL 6
REMARK VINA RESULT:      -7.7      2.465      8.800
REMARK  Name = NuBBE_1456
REMARK  7 active torsions:
REMARK  status: ('A' for Active; 'I' for Inactive)
REMARK    1  A    between atoms: C_4  and  O_5
REMARK    2  A    between atoms: C_9  and  C_10
REMARK    3  A    between atoms: C_9  and  C_11
REMARK    4  A    between atoms: C_22  and  O_23
REMARK    5  A    between atoms: O_23  and  C_24
REMARK    6  A    between atoms: C_25  and  O_26
REMARK    7  A    between atoms: O_26  and  C_27
REMARK                            x       y       z     vdW  Elec       q    Type
REMARK                         _______ _______ _______ _____ _____    ______ ____
ROOT
ATOM      1  O   LIG A   1      -4.461   2.616 127.785  0.00  0.00    -0.291 OA
ATOM      2  C   LIG A   1      -5.677   2.775 127.725  0.00  0.00    +0.181 C 
ATOM      3  C   LIG A   1      -6.497   1.748 127.038  0.00  0.00    +0.102 A 
ATOM      4  C   LIG A   1      -5.911   0.679 126.344  0.00  0.00    +0.141 A 
ATOM      5  C   LIG A   1      -6.717  -0.240 125.653  0.00  0.00    +0.059 A 
ATOM      6  C   LIG A   1      -8.106  -0.068 125.660  0.00  0.00    +0.136 A 
ATOM      7  O   LIG A   1      -8.983  -0.884 125.003  0.00  0.00    -0.481 OA
ATOM      8  C   LIG A   1      -8.486  -2.075 124.356  0.00  0.00    +0.123 C 
ATOM      9  C   LIG A   1      -9.023  -2.037 122.921  0.00  0.00    +0.060 C 
ATOM     10  C   LIG A   1      -9.095  -3.265 125.104  0.00  0.00    +0.060 C 
ATOM     11  C   LIG A   1      -6.983  -2.219 124.319  0.00  0.00    +0.020 C 
ATOM     12  C   LIG A   1      -6.150  -1.364 124.918  0.00  0.00    +0.015 C 
ATOM     13  C   LIG A   1      -8.689   0.992 126.359  0.00  0.00    +0.092 A 
ATOM     14  C   LIG A   1      -7.888   1.884 127.066  0.00  0.00    +0.139 A 
ATOM     15  O   LIG A   1      -8.541   2.878 127.756  0.00  0.00    -0.483 OA
ATOM     16  C   LIG A   1      -7.726   3.418 128.804  0.00  0.00    +0.226 C 
ATOM     17  C   LIG A   1      -6.436   3.990 128.224  0.00  0.00    +0.138 C 
ATOM     18  C   LIG A   1      -5.741   4.871 129.234  0.00  0.00    +0.012 A 
ATOM     19  C   LIG A   1      -4.438   5.342 129.022  0.00  0.00    +0.057 A 
ATOM     20  C   LIG A   1      -3.789   6.161 129.959  0.00  0.00    +0.162 A 
ATOM     21  C   LIG A   1      -4.462   6.551 131.126  0.00  0.00    +0.165 A 
ATOM     22  C   LIG A   1      -5.784   6.129 131.314  0.00  0.00    +0.095 A 
ATOM     23  C   LIG A   1      -6.421   5.316 130.372  0.00  0.00    +0.128 A 
ATOM     24  O   LIG A   1      -7.728   5.006 130.649  0.00  0.00    -0.488 OA
ATOM     25  C   LIG A   1      -8.471   4.533 129.522  0.00  0.00    +0.274 C 
ENDROOT
BRANCH   4  26
ATOM     26  O   LIG A   1      -4.547   0.502 126.314  0.00  0.00    -0.505 OA
ATOM     27  H   LIG A   1      -4.305   0.064 125.466  0.00  0.00    +0.292 HD
ENDBRANCH   4  26
BRANCH  20  28
ATOM     28  O   LIG A   1      -2.526   6.525 129.567  0.00  0.00    -0.491 OA
ATOM     29  C   LIG A   1      -2.342   6.821 128.189  0.00  0.00    +0.277 C 
ENDBRANCH  20  28
BRANCH  21  30
ATOM     30  O   LIG A   1      -3.832   7.402 131.996  0.00  0.00    -0.491 OA
ATOM     31  C   LIG A   1      -3.419   6.838 133.236  0.00  0.00    +0.277 C 
ENDBRANCH  21  30
TORSDOF 3
ENDMDL
MODEL 7
REMARK VINA RESULT:      -7.7      2.081      9.090
REMARK  Name = NuBBE_1456
REMARK  7 active torsions:
REMARK  status: ('A' for Active; 'I' for Inactive)
REMARK    1  A    between atoms: C_4  and  O_5
REMARK    2  A    between atoms: C_9  and  C_10
REMARK    3  A    between atoms: C_9  and  C_11
REMARK    4  A    between atoms: C_22  and  O_23
REMARK    5  A    between atoms: O_23  and  C_24
REMARK    6  A    between atoms: C_25  and  O_26
REMARK    7  A    between atoms: O_26  and  C_27
REMARK                            x       y       z     vdW  Elec       q    Type
REMARK                         _______ _______ _______ _____ _____    ______ ____
ROOT
ATOM      1  O   LIG A   1      -7.269   3.466 128.375  0.00  0.00    -0.291 OA
ATOM      2  C   LIG A   1      -6.270   2.897 127.943  0.00  0.00    +0.181 C 
ATOM      3  C   LIG A   1      -6.448   1.731 127.044  0.00  0.00    +0.102 A 
ATOM      4  C   LIG A   1      -7.714   1.184 126.786  0.00  0.00    +0.141 A 
ATOM      5  C   LIG A   1      -7.837   0.041 125.979  0.00  0.00    +0.059 A 
ATOM      6  C   LIG A   1      -6.682  -0.545 125.447  0.00  0.00    +0.136 A 
ATOM      7  O   LIG A   1      -6.681  -1.670 124.672  0.00  0.00    -0.481 OA
ATOM      8  C   LIG A   1      -7.942  -2.240 124.258  0.00  0.00    +0.123 C 
ATOM      9  C   LIG A   1      -7.882  -3.726 124.629  0.00  0.00    +0.060 C 
ATOM     10  C   LIG A   1      -8.008  -2.091 122.733  0.00  0.00    +0.060 C 
ATOM     11  C   LIG A   1      -9.172  -1.622 124.878  0.00  0.00    +0.020 C 
ATOM     12  C   LIG A   1      -9.131  -0.560 125.687  0.00  0.00    +0.015 C 
ATOM     13  C   LIG A   1      -5.423   0.006 125.698  0.00  0.00    +0.092 A 
ATOM     14  C   LIG A   1      -5.307   1.155 126.475  0.00  0.00    +0.139 A 
ATOM     15  O   LIG A   1      -4.038   1.653 126.644  0.00  0.00    -0.483 OA
ATOM     16  C   LIG A   1      -4.058   3.038 127.013  0.00  0.00    +0.226 C 
ATOM     17  C   LIG A   1      -4.836   3.223 128.313  0.00  0.00    +0.138 C 
ATOM     18  C   LIG A   1      -4.570   4.587 128.905  0.00  0.00    +0.012 A 
ATOM     19  C   LIG A   1      -5.323   5.080 129.979  0.00  0.00    +0.057 A 
ATOM     20  C   LIG A   1      -5.078   6.346 130.532  0.00  0.00    +0.162 A 
ATOM     21  C   LIG A   1      -4.035   7.135 130.025  0.00  0.00    +0.165 A 
ATOM     22  C   LIG A   1      -3.244   6.623 128.990  0.00  0.00    +0.095 A 
ATOM     23  C   LIG A   1      -3.495   5.358 128.451  0.00  0.00    +0.128 A 
ATOM     24  O   LIG A   1      -2.625   4.951 127.472  0.00  0.00    -0.488 OA
ATOM     25  C   LIG A   1      -2.639   3.544 127.222  0.00  0.00    +0.274 C 
ENDROOT
BRANCH   4  26
ATOM     26  O   LIG A   1      -8.857   1.738 127.313  0.00  0.00    -0.505 OA
ATOM     27  H   LIG A   1      -8.608   2.528 127.844  0.00  0.00    +0.292 HD
ENDBRANCH   4  26
BRANCH  20  28
ATOM     28  O   LIG A   1      -5.913   6.644 131.579  0.00  0.00    -0.491 OA
ATOM     29  C   LIG A   1      -7.294   6.788 131.275  0.00  0.00    +0.277 C 
ENDBRANCH  20  28
BRANCH  21  30
ATOM     30  O   LIG A   1      -3.774   8.341 130.621  0.00  0.00    -0.491 OA
ATOM     31  C   LIG A   1      -2.913   8.307 131.755  0.00  0.00    +0.277 C 
ENDBRANCH  21  30
TORSDOF 3
ENDMDL
MODEL 8
REMARK VINA RESULT:      -7.5      4.013      6.826
REMARK  Name = NuBBE_1456
REMARK  7 active torsions:
REMARK  status: ('A' for Active; 'I' for Inactive)
REMARK    1  A    between atoms: C_4  and  O_5
REMARK    2  A    between atoms: C_9  and  C_10
REMARK    3  A    between atoms: C_9  and  C_11
REMARK    4  A    between atoms: C_22  and  O_23
REMARK    5  A    between atoms: O_23  and  C_24
REMARK    6  A    between atoms: C_25  and  O_26
REMARK    7  A    between atoms: O_26  and  C_27
REMARK                            x       y       z     vdW  Elec       q    Type
REMARK                         _______ _______ _______ _____ _____    ______ ____
ROOT
ATOM      1  O   LIG A   1      -6.518   1.549 128.643  0.00  0.00    -0.291 OA
ATOM      2  C   LIG A   1      -7.053   0.810 127.821  0.00  0.00    +0.181 C 
ATOM      3  C   LIG A   1      -6.966   1.165 126.383  0.00  0.00    +0.102 A 
ATOM      4  C   LIG A   1      -6.411   2.381 125.955  0.00  0.00    +0.141 A 
ATOM      5  C   LIG A   1      -6.403   2.710 124.590  0.00  0.00    +0.059 A 
ATOM      6  C   LIG A   1      -6.962   1.816 123.670  0.00  0.00    +0.136 A 
ATOM      7  O   LIG A   1      -7.031   2.044 122.324  0.00  0.00    -0.481 OA
ATOM      8  C   LIG A   1      -6.387   3.213 121.775  0.00  0.00    +0.123 C 
ATOM      9  C   LIG A   1      -7.444   3.922 120.921  0.00  0.00    +0.060 C 
ATOM     10  C   LIG A   1      -5.253   2.705 120.877  0.00  0.00    +0.060 C 
ATOM     11  C   LIG A   1      -5.831   4.187 122.786  0.00  0.00    +0.020 C 
ATOM     12  C   LIG A   1      -5.839   3.962 124.102  0.00  0.00    +0.015 C 
ATOM     13  C   LIG A   1      -7.506   0.602 124.097  0.00  0.00    +0.092 A 
ATOM     14  C   LIG A   1      -7.487   0.266 125.447  0.00  0.00    +0.139 A 
ATOM     15  O   LIG A   1      -8.009  -0.960 125.780  0.00  0.00    -0.483 OA
ATOM     16  C   LIG A   1      -7.522  -1.417 127.048  0.00  0.00    +0.226 C 
ATOM     17  C   LIG A   1      -7.886  -0.415 128.141  0.00  0.00    +0.138 C 
ATOM     18  C   LIG A   1      -7.710  -1.031 129.509  0.00  0.00    +0.012 A 
ATOM     19  C   LIG A   1      -7.775  -0.256 130.675  0.00  0.00    +0.057 A 
ATOM     20  C   LIG A   1      -7.612  -0.824 131.948  0.00  0.00    +0.162 A 
ATOM     21  C   LIG A   1      -7.410  -2.206 132.071  0.00  0.00    +0.165 A 
ATOM     22  C   LIG A   1      -7.402  -2.992 130.912  0.00  0.00    +0.095 A 
ATOM     23  C   LIG A   1      -7.569  -2.415 129.650  0.00  0.00    +0.128 A 
ATOM     24  O   LIG A   1      -7.585  -3.293 128.597  0.00  0.00    -0.488 OA
ATOM     25  C   LIG A   1      -8.146  -2.760 127.395  0.00  0.00    +0.274 C 
ENDROOT
BRANCH   4  26
ATOM     26  O   LIG A   1      -5.872   3.279 126.847  0.00  0.00    -0.505 OA
ATOM     27  H   LIG A   1      -5.971   2.917 127.757  0.00  0.00    +0.292 HD
ENDBRANCH   4  26
BRANCH  20  28
ATOM     28  O   LIG A   1      -7.717   0.094 132.962  0.00  0.00    -0.491 OA
ATOM     29  C   LIG A   1      -6.520   0.751 133.358  0.00  0.00    +0.277 C 
ENDBRANCH  20  28
BRANCH  21  30
ATOM     30  O   LIG A   1      -7.317  -2.748 133.326  0.00  0.00    -0.491 OA
ATOM     31  C   LIG A   1      -6.297  -3.725 133.513  0.00  0.00    +0.277 C 
ENDBRANCH  21  30
TORSDOF 3
ENDMDL
MODEL 9
REMARK VINA RESULT:      -7.5      4.995      8.936
REMARK  Name = NuBBE_1456
REMARK  7 active torsions:
REMARK  status: ('A' for Active; 'I' for Inactive)
REMARK    1  A    between atoms: C_4  and  O_5
REMARK    2  A    between atoms: C_9  and  C_10
REMARK    3  A    between atoms: C_9  and  C_11
REMARK    4  A    between atoms: C_22  and  O_23
REMARK    5  A    between atoms: O_23  and  C_24
REMARK    6  A    between atoms: C_25  and  O_26
REMARK    7  A    between atoms: O_26  and  C_27
REMARK                            x       y       z     vdW  Elec       q    Type
REMARK                         _______ _______ _______ _____ _____    ______ ____
ROOT
ATOM      1  O   LIG A   1      -7.382  -3.825 130.561  0.00  0.00    -0.291 OA
ATOM      2  C   LIG A   1      -6.410  -3.423 129.929  0.00  0.00    +0.181 C 
ATOM      3  C   LIG A   1      -6.622  -2.886 128.563  0.00  0.00    +0.102 A 
ATOM      4  C   LIG A   1      -7.873  -2.950 127.931  0.00  0.00    +0.141 A 
ATOM      5  C   LIG A   1      -8.022  -2.487 126.613  0.00  0.00    +0.059 A 
ATOM      6  C   LIG A   1      -6.907  -1.972 125.942  0.00  0.00    +0.136 A 
ATOM      7  O   LIG A   1      -6.930  -1.519 124.653  0.00  0.00    -0.481 OA
ATOM      8  C   LIG A   1      -8.192  -1.438 123.958  0.00  0.00    +0.123 C 
ATOM      9  C   LIG A   1      -7.994  -2.167 122.624  0.00  0.00    +0.060 C 
ATOM     10  C   LIG A   1      -8.455   0.050 123.700  0.00  0.00    +0.060 C 
ATOM     11  C   LIG A   1      -9.374  -2.040 124.680  0.00  0.00    +0.020 C 
ATOM     12  C   LIG A   1      -9.302  -2.536 125.918  0.00  0.00    +0.015 C 
ATOM     13  C   LIG A   1      -5.663  -1.901 126.575  0.00  0.00    +0.092 A 
ATOM     14  C   LIG A   1      -5.526  -2.335 127.891  0.00  0.00    +0.139 A 
ATOM     15  O   LIG A   1      -4.280  -2.198 128.453  0.00  0.00    -0.483 OA
ATOM     16  C   LIG A   1      -4.342  -2.198 129.885  0.00  0.00    +0.226 C 
ATOM     17  C   LIG A   1      -4.965  -3.500 130.382  0.00  0.00    +0.138 C 
ATOM     18  C   LIG A   1      -4.715  -3.681 131.861  0.00  0.00    +0.012 A 
ATOM     19  C   LIG A   1      -5.360  -4.684 132.596  0.00  0.00    +0.057 A 
ATOM     20  C   LIG A   1      -5.130  -4.856 133.970  0.00  0.00    +0.162 A 
ATOM     21  C   LIG A   1      -4.209  -4.027 134.628  0.00  0.00    +0.165 A 
ATOM     22  C   LIG A   1      -3.520  -3.061 133.885  0.00  0.00    +0.095 A 
ATOM     23  C   LIG A   1      -3.755  -2.904 132.516  0.00  0.00    +0.128 A 
ATOM     24  O   LIG A   1      -2.988  -1.954 131.892  0.00  0.00    -0.488 OA
ATOM     25  C   LIG A   1      -2.943  -2.077 130.469  0.00  0.00    +0.274 C 
ENDROOT
BRANCH   4  26
ATOM     26  O   LIG A   1      -8.976  -3.466 128.570  0.00  0.00    -0.505 OA
ATOM     27  H   LIG A   1      -8.701  -3.795 129.456  0.00  0.00    +0.292 HD
ENDBRANCH   4  26
BRANCH  20  28
ATOM     28  O   LIG A   1      -5.847  -5.893 134.508  0.00  0.00    -0.491 OA
ATOM     29  C   LIG A   1      -7.022  -5.552 135.232  0.00  0.00    +0.277 C 
ENDBRANCH  20  28
BRANCH  21  30
ATOM     30  O   LIG A   1      -3.954  -4.253 135.955  0.00  0.00    -0.491 OA
ATOM     31  C   LIG A   1      -2.866  -5.125 136.245  0.00  0.00    +0.277 C 
ENDBRANCH  21  30
TORSDOF 3
ENDMDL
