MODEL 1
REMARK VINA RESULT:      -6.6      0.000      0.000
REMARK  Name = NuBBE_1394
REMARK  4 active torsions:
REMARK  status: ('A' for Active; 'I' for Inactive)
REMARK    1  A    between atoms: C_1  and  C_2
REMARK    2  A    between atoms: C_7  and  C_8
REMARK    3  A    between atoms: C_7  and  C_9
REMARK    4  A    between atoms: C_13  and  C_17
REMARK                            x       y       z     vdW  Elec       q    Type
REMARK                         _______ _______ _______ _____ _____    ______ ____
ROOT
ATOM      1  C   LIG A   1     -10.149   1.885 124.179  0.00  0.00    +0.044 C 
ATOM      2  C   LIG A   1      -8.829   1.630 124.904  0.00  0.00    +0.093 C 
ATOM      3  C   LIG A   1      -7.279   1.974 124.371  0.00  0.00    +0.151 C 
ATOM      4  O   LIG A   1      -8.217   2.911 124.779  0.00  0.00    -0.365 OA
ATOM      5  C   LIG A   1      -6.939   1.166 123.132  0.00  0.00    +0.044 C 
ATOM      6  C   LIG A   1      -7.006  -0.362 123.613  0.00  0.00    -0.014 C 
ATOM      7  C   LIG A   1      -6.246  -0.315 125.008  0.00  0.00    +0.015 C 
ATOM      8  C   LIG A   1      -8.541  -0.588 123.341  0.00  0.00    +0.015 C 
ATOM      9  C   LIG A   1      -6.426  -1.666 122.940  0.00  0.00    -0.025 C 
ATOM     10  C   LIG A   1      -6.038  -2.750 123.743  0.00  0.00    -0.026 C 
ATOM     11  C   LIG A   1      -7.038  -3.827 124.254  0.00  0.00    +0.057 C 
ATOM     12  C   LIG A   1      -8.416  -3.202 124.669  0.00  0.00    -0.073 C 
ATOM     13  C   LIG A   1      -8.352  -2.257 125.688  0.00  0.00    -0.027 C 
ATOM     14  C   LIG A   1      -8.977  -0.934 126.371  0.00  0.00    +0.030 C 
ATOM     15  C   LIG A   1      -8.947   0.799 126.229  0.00  0.00    +0.041 C 
ATOM     16  C   LIG A   1      -9.405  -3.590 123.570  0.00  0.00    +0.039 C 
ENDROOT
TORSDOF 0
ENDMDL
MODEL 2
REMARK VINA RESULT:      -6.6      2.325      4.361
REMARK  Name = NuBBE_1394
REMARK  4 active torsions:
REMARK  status: ('A' for Active; 'I' for Inactive)
REMARK    1  A    between atoms: C_1  and  C_2
REMARK    2  A    between atoms: C_7  and  C_8
REMARK    3  A    between atoms: C_7  and  C_9
REMARK    4  A    between atoms: C_13  and  C_17
REMARK                            x       y       z     vdW  Elec       q    Type
REMARK                         _______ _______ _______ _____ _____    ______ ____
ROOT
ATOM      1  C   LIG A   1      -7.224   0.082 123.322  0.00  0.00    +0.044 C 
ATOM      2  C   LIG A   1      -7.022  -1.429 123.427  0.00  0.00    +0.093 C 
ATOM      3  C   LIG A   1      -8.098  -2.642 123.013  0.00  0.00    +0.151 C 
ATOM      4  O   LIG A   1      -7.415  -1.832 122.118  0.00  0.00    -0.365 OA
ATOM      5  C   LIG A   1      -9.340  -2.587 123.882  0.00  0.00    +0.044 C 
ATOM      6  C   LIG A   1      -8.805  -2.841 125.372  0.00  0.00    -0.014 C 
ATOM      7  C   LIG A   1      -7.787  -4.045 125.169  0.00  0.00    +0.015 C 
ATOM      8  C   LIG A   1      -8.488  -1.340 125.728  0.00  0.00    +0.015 C 
ATOM      9  C   LIG A   1      -9.588  -3.258 126.677  0.00  0.00    -0.025 C 
ATOM     10  C   LIG A   1      -8.937  -4.010 127.668  0.00  0.00    -0.026 C 
ATOM     11  C   LIG A   1      -8.052  -3.366 128.775  0.00  0.00    +0.057 C 
ATOM     12  C   LIG A   1      -7.188  -2.179 128.222  0.00  0.00    -0.073 C 
ATOM     13  C   LIG A   1      -6.304  -2.517 127.202  0.00  0.00    -0.027 C 
ATOM     14  C   LIG A   1      -5.496  -2.059 125.882  0.00  0.00    +0.030 C 
ATOM     15  C   LIG A   1      -5.711  -1.874 124.165  0.00  0.00    +0.041 C 
ATOM     16  C   LIG A   1      -7.833  -0.901 128.759  0.00  0.00    +0.039 C 
ENDROOT
TORSDOF 0
ENDMDL
MODEL 3
REMARK VINA RESULT:      -6.6      2.729      4.742
REMARK  Name = NuBBE_1394
REMARK  4 active torsions:
REMARK  status: ('A' for Active; 'I' for Inactive)
REMARK    1  A    between atoms: C_1  and  C_2
REMARK    2  A    between atoms: C_7  and  C_8
REMARK    3  A    between atoms: C_7  and  C_9
REMARK    4  A    between atoms: C_13  and  C_17
REMARK                            x       y       z     vdW  Elec       q    Type
REMARK                         _______ _______ _______ _____ _____    ______ ____
ROOT
ATOM      1  C   LIG A   1      -5.632  -3.592 124.153  0.00  0.00    +0.044 C 
ATOM      2  C   LIG A   1      -6.804  -2.631 124.349  0.00  0.00    +0.093 C 
ATOM      3  C   LIG A   1      -6.782  -0.958 124.304  0.00  0.00    +0.151 C 
ATOM      4  O   LIG A   1      -6.645  -1.796 123.206  0.00  0.00    -0.365 OA
ATOM      5  C   LIG A   1      -5.927  -0.395 125.422  0.00  0.00    +0.044 C 
ATOM      6  C   LIG A   1      -6.650  -0.878 126.769  0.00  0.00    -0.014 C 
ATOM      7  C   LIG A   1      -8.182  -0.597 126.454  0.00  0.00    +0.015 C 
ATOM      8  C   LIG A   1      -5.915  -2.264 126.903  0.00  0.00    +0.015 C 
ATOM      9  C   LIG A   1      -6.494  -0.355 128.250  0.00  0.00    -0.025 C 
ATOM     10  C   LIG A   1      -7.582  -0.436 129.134  0.00  0.00    -0.026 C 
ATOM     11  C   LIG A   1      -7.920  -1.719 129.947  0.00  0.00    +0.057 C 
ATOM     12  C   LIG A   1      -7.699  -3.025 129.106  0.00  0.00    -0.073 C 
ATOM     13  C   LIG A   1      -8.465  -3.118 127.948  0.00  0.00    -0.027 C 
ATOM     14  C   LIG A   1      -8.611  -3.682 126.443  0.00  0.00    +0.030 C 
ATOM     15  C   LIG A   1      -8.145  -3.304 124.810  0.00  0.00    +0.041 C 
ATOM     16  C   LIG A   1      -6.427  -3.671 129.654  0.00  0.00    +0.039 C 
ENDROOT
TORSDOF 0
ENDMDL
MODEL 4
REMARK VINA RESULT:      -6.5      2.086      4.883
REMARK  Name = NuBBE_1394
REMARK  4 active torsions:
REMARK  status: ('A' for Active; 'I' for Inactive)
REMARK    1  A    between atoms: C_1  and  C_2
REMARK    2  A    between atoms: C_7  and  C_8
REMARK    3  A    between atoms: C_7  and  C_9
REMARK    4  A    between atoms: C_13  and  C_17
REMARK                            x       y       z     vdW  Elec       q    Type
REMARK                         _______ _______ _______ _____ _____    ______ ____
ROOT
ATOM      1  C   LIG A   1      -5.263  -2.912 123.221  0.00  0.00    +0.044 C 
ATOM      2  C   LIG A   1      -6.317  -2.769 124.318  0.00  0.00    +0.093 C 
ATOM      3  C   LIG A   1      -7.907  -3.292 124.292  0.00  0.00    +0.151 C 
ATOM      4  O   LIG A   1      -6.792  -4.110 124.394  0.00  0.00    -0.365 OA
ATOM      5  C   LIG A   1      -8.699  -2.573 123.216  0.00  0.00    +0.044 C 
ATOM      6  C   LIG A   1      -8.657  -1.029 123.645  0.00  0.00    -0.014 C 
ATOM      7  C   LIG A   1      -8.943  -1.101 125.207  0.00  0.00    +0.015 C 
ATOM      8  C   LIG A   1      -7.316  -0.655 122.911  0.00  0.00    +0.015 C 
ATOM      9  C   LIG A   1      -9.557   0.180 123.178  0.00  0.00    -0.025 C 
ATOM     10  C   LIG A   1      -9.798   1.248 124.058  0.00  0.00    -0.026 C 
ATOM     11  C   LIG A   1      -8.815   2.443 124.229  0.00  0.00    +0.057 C 
ATOM     12  C   LIG A   1      -7.316   1.981 124.201  0.00  0.00    -0.073 C 
ATOM     13  C   LIG A   1      -6.959   1.074 125.193  0.00  0.00    -0.027 C 
ATOM     14  C   LIG A   1      -6.012  -0.148 125.656  0.00  0.00    +0.030 C 
ATOM     15  C   LIG A   1      -5.891  -1.880 125.538  0.00  0.00    +0.041 C 
ATOM     16  C   LIG A   1      -6.762   2.427 122.848  0.00  0.00    +0.039 C 
ENDROOT
TORSDOF 0
ENDMDL
MODEL 5
REMARK VINA RESULT:      -6.5      2.333      4.341
REMARK  Name = NuBBE_1394
REMARK  4 active torsions:
REMARK  status: ('A' for Active; 'I' for Inactive)
REMARK    1  A    between atoms: C_1  and  C_2
REMARK    2  A    between atoms: C_7  and  C_8
REMARK    3  A    between atoms: C_7  and  C_9
REMARK    4  A    between atoms: C_13  and  C_17
REMARK                            x       y       z     vdW  Elec       q    Type
REMARK                         _______ _______ _______ _____ _____    ______ ____
ROOT
ATOM      1  C   LIG A   1      -5.152  -1.998 128.084  0.00  0.00    +0.044 C 
ATOM      2  C   LIG A   1      -6.542  -1.411 127.845  0.00  0.00    +0.093 C 
ATOM      3  C   LIG A   1      -8.027  -2.125 128.143  0.00  0.00    +0.151 C 
ATOM      4  O   LIG A   1      -7.148  -1.661 129.110  0.00  0.00    -0.365 OA
ATOM      5  C   LIG A   1      -8.222  -3.354 127.275  0.00  0.00    +0.044 C 
ATOM      6  C   LIG A   1      -8.195  -2.798 125.772  0.00  0.00    -0.014 C 
ATOM      7  C   LIG A   1      -9.105  -1.498 125.871  0.00  0.00    +0.015 C 
ATOM      8  C   LIG A   1      -6.639  -2.890 125.554  0.00  0.00    +0.015 C 
ATOM      9  C   LIG A   1      -8.687  -3.469 124.430  0.00  0.00    -0.025 C 
ATOM     10  C   LIG A   1      -9.152  -2.663 123.379  0.00  0.00    -0.026 C 
ATOM     11  C   LIG A   1      -8.205  -1.997 122.340  0.00  0.00    +0.057 C 
ATOM     12  C   LIG A   1      -6.886  -1.463 123.001  0.00  0.00    -0.073 C 
ATOM     13  C   LIG A   1      -7.069  -0.503 123.992  0.00  0.00    -0.027 C 
ATOM     14  C   LIG A   1      -6.534   0.182 125.352  0.00  0.00    +0.030 C 
ATOM     15  C   LIG A   1      -6.563  -0.043 127.077  0.00  0.00    +0.041 C 
ATOM     16  C   LIG A   1      -5.780  -2.429 122.577  0.00  0.00    +0.039 C 
ENDROOT
TORSDOF 0
ENDMDL
MODEL 6
REMARK VINA RESULT:      -6.3      1.479      3.378
REMARK  Name = NuBBE_1394
REMARK  4 active torsions:
REMARK  status: ('A' for Active; 'I' for Inactive)
REMARK    1  A    between atoms: C_1  and  C_2
REMARK    2  A    between atoms: C_7  and  C_8
REMARK    3  A    between atoms: C_7  and  C_9
REMARK    4  A    between atoms: C_13  and  C_17
REMARK                            x       y       z     vdW  Elec       q    Type
REMARK                         _______ _______ _______ _____ _____    ______ ____
ROOT
ATOM      1  C   LIG A   1      -4.950   1.602 126.224  0.00  0.00    +0.044 C 
ATOM      2  C   LIG A   1      -6.458   1.559 125.983  0.00  0.00    +0.093 C 
ATOM      3  C   LIG A   1      -7.676   1.368 127.116  0.00  0.00    +0.151 C 
ATOM      4  O   LIG A   1      -6.900   2.506 126.952  0.00  0.00    -0.365 OA
ATOM      5  C   LIG A   1      -7.584   0.013 127.790  0.00  0.00    +0.044 C 
ATOM      6  C   LIG A   1      -7.794  -1.045 126.604  0.00  0.00    -0.014 C 
ATOM      7  C   LIG A   1      -9.012  -0.418 125.797  0.00  0.00    +0.015 C 
ATOM      8  C   LIG A   1      -6.285  -1.158 126.168  0.00  0.00    +0.015 C 
ATOM      9  C   LIG A   1      -8.164  -2.578 126.662  0.00  0.00    -0.025 C 
ATOM     10  C   LIG A   1      -8.888  -3.160 125.610  0.00  0.00    -0.026 C 
ATOM     11  C   LIG A   1      -8.216  -3.686 124.308  0.00  0.00    +0.057 C 
ATOM     12  C   LIG A   1      -7.054  -2.750 123.826  0.00  0.00    -0.073 C 
ATOM     13  C   LIG A   1      -7.431  -1.442 123.535  0.00  0.00    -0.027 C 
ATOM     14  C   LIG A   1      -7.022   0.118 123.462  0.00  0.00    +0.030 C 
ATOM     15  C   LIG A   1      -6.890   1.526 124.475  0.00  0.00    +0.041 C 
ATOM     16  C   LIG A   1      -5.755  -3.490 124.146  0.00  0.00    +0.039 C 
ENDROOT
TORSDOF 0
ENDMDL
MODEL 7
REMARK VINA RESULT:      -6.3      1.365      2.379
REMARK  Name = NuBBE_1394
REMARK  4 active torsions:
REMARK  status: ('A' for Active; 'I' for Inactive)
REMARK    1  A    between atoms: C_1  and  C_2
REMARK    2  A    between atoms: C_7  and  C_8
REMARK    3  A    between atoms: C_7  and  C_9
REMARK    4  A    between atoms: C_13  and  C_17
REMARK                            x       y       z     vdW  Elec       q    Type
REMARK                         _______ _______ _______ _____ _____    ______ ____
ROOT
ATOM      1  C   LIG A   1      -7.138   1.979 126.852  0.00  0.00    +0.044 C 
ATOM      2  C   LIG A   1      -6.441   1.405 125.619  0.00  0.00    +0.093 C 
ATOM      3  C   LIG A   1      -6.744   1.752 124.010  0.00  0.00    +0.151 C 
ATOM      4  O   LIG A   1      -6.132   2.605 124.917  0.00  0.00    -0.365 OA
ATOM      5  C   LIG A   1      -8.144   1.323 123.615  0.00  0.00    +0.044 C 
ATOM      6  C   LIG A   1      -8.154  -0.267 123.824  0.00  0.00    -0.014 C 
ATOM      7  C   LIG A   1      -6.765  -0.705 123.188  0.00  0.00    +0.015 C 
ATOM      8  C   LIG A   1      -8.581  -0.266 125.340  0.00  0.00    +0.015 C 
ATOM      9  C   LIG A   1      -9.153  -1.358 123.273  0.00  0.00    -0.025 C 
ATOM     10  C   LIG A   1      -8.692  -2.661 123.028  0.00  0.00    -0.026 C 
ATOM     11  C   LIG A   1      -8.598  -3.749 124.137  0.00  0.00    +0.057 C 
ATOM     12  C   LIG A   1      -8.102  -3.157 125.503  0.00  0.00    -0.073 C 
ATOM     13  C   LIG A   1      -6.843  -2.566 125.467  0.00  0.00    -0.027 C 
ATOM     14  C   LIG A   1      -5.833  -1.456 126.063  0.00  0.00    +0.030 C 
ATOM     15  C   LIG A   1      -5.440   0.231 125.908  0.00  0.00    +0.041 C 
ATOM     16  C   LIG A   1      -9.328  -3.111 126.414  0.00  0.00    +0.039 C 
ENDROOT
TORSDOF 0
ENDMDL
MODEL 8
REMARK VINA RESULT:      -6.0      2.282      3.927
REMARK  Name = NuBBE_1394
REMARK  4 active torsions:
REMARK  status: ('A' for Active; 'I' for Inactive)
REMARK    1  A    between atoms: C_1  and  C_2
REMARK    2  A    between atoms: C_7  and  C_8
REMARK    3  A    between atoms: C_7  and  C_9
REMARK    4  A    between atoms: C_13  and  C_17
REMARK                            x       y       z     vdW  Elec       q    Type
REMARK                         _______ _______ _______ _____ _____    ______ ____
ROOT
ATOM      1  C   LIG A   1      -7.177  -2.704 128.736  0.00  0.00    +0.044 C 
ATOM      2  C   LIG A   1      -6.485  -1.645 127.879  0.00  0.00    +0.093 C 
ATOM      3  C   LIG A   1      -6.763   0.006 127.859  0.00  0.00    +0.151 C 
ATOM      4  O   LIG A   1      -6.136  -0.693 128.880  0.00  0.00    -0.365 OA
ATOM      5  C   LIG A   1      -8.171   0.314 127.387  0.00  0.00    +0.044 C 
ATOM      6  C   LIG A   1      -8.228  -0.250 125.887  0.00  0.00    -0.014 C 
ATOM      7  C   LIG A   1      -6.846   0.249 125.281  0.00  0.00    +0.015 C 
ATOM      8  C   LIG A   1      -8.668  -1.719 126.244  0.00  0.00    +0.015 C 
ATOM      9  C   LIG A   1      -9.251   0.054 124.725  0.00  0.00    -0.025 C 
ATOM     10  C   LIG A   1      -8.826  -0.011 123.388  0.00  0.00    -0.026 C 
ATOM     11  C   LIG A   1      -8.772  -1.339 122.580  0.00  0.00    +0.057 C 
ATOM     12  C   LIG A   1      -8.273  -2.542 123.454  0.00  0.00    -0.073 C 
ATOM     13  C   LIG A   1      -6.997  -2.393 123.990  0.00  0.00    -0.027 C 
ATOM     14  C   LIG A   1      -5.962  -2.736 125.180  0.00  0.00    +0.030 C 
ATOM     15  C   LIG A   1      -5.520  -2.208 126.777  0.00  0.00    +0.041 C 
ATOM     16  C   LIG A   1      -9.506  -3.400 123.737  0.00  0.00    +0.039 C 
ENDROOT
TORSDOF 0
ENDMDL
MODEL 9
REMARK VINA RESULT:      -5.9      2.265      3.321
REMARK  Name = NuBBE_1394
REMARK  4 active torsions:
REMARK  status: ('A' for Active; 'I' for Inactive)
REMARK    1  A    between atoms: C_1  and  C_2
REMARK    2  A    between atoms: C_7  and  C_8
REMARK    3  A    between atoms: C_7  and  C_9
REMARK    4  A    between atoms: C_13  and  C_17
REMARK                            x       y       z     vdW  Elec       q    Type
REMARK                         _______ _______ _______ _____ _____    ______ ____
ROOT
ATOM      1  C   LIG A   1      -7.888  -0.011 128.180  0.00  0.00    +0.044 C 
ATOM      2  C   LIG A   1      -7.225  -1.302 127.701  0.00  0.00    +0.093 C 
ATOM      3  C   LIG A   1      -5.632  -1.531 127.241  0.00  0.00    +0.151 C 
ATOM      4  O   LIG A   1      -6.073  -1.325 128.539  0.00  0.00    -0.365 OA
ATOM      5  C   LIG A   1      -5.299  -0.715 126.006  0.00  0.00    +0.044 C 
ATOM      6  C   LIG A   1      -6.268  -1.291 124.866  0.00  0.00    -0.014 C 
ATOM      7  C   LIG A   1      -6.150  -2.862 125.079  0.00  0.00    +0.015 C 
ATOM      8  C   LIG A   1      -7.498  -0.353 125.157  0.00  0.00    +0.015 C 
ATOM      9  C   LIG A   1      -6.191  -1.142 123.296  0.00  0.00    -0.025 C 
ATOM     10  C   LIG A   1      -6.700  -2.161 122.476  0.00  0.00    -0.026 C 
ATOM     11  C   LIG A   1      -8.203  -2.264 122.086  0.00  0.00    +0.057 C 
ATOM     12  C   LIG A   1      -9.149  -1.894 123.282  0.00  0.00    -0.073 C 
ATOM     13  C   LIG A   1      -9.012  -2.694 124.412  0.00  0.00    -0.027 C 
ATOM     14  C   LIG A   1      -9.119  -2.828 126.017  0.00  0.00    +0.030 C 
ATOM     15  C   LIG A   1      -8.205  -2.504 127.461  0.00  0.00    +0.041 C 
ATOM     16  C   LIG A   1      -9.721  -0.514 122.956  0.00  0.00    +0.039 C 
ENDROOT
TORSDOF 0
ENDMDL
