MODEL 1
REMARK VINA RESULT:      -7.4      0.000      0.000
REMARK  Name = NuBBE_1622
REMARK  5 active torsions:
REMARK  status: ('A' for Active; 'I' for Inactive)
REMARK    1  A    between atoms: O_1  and  C_2
REMARK    2  A    between atoms: O_1  and  C_7
REMARK    3  A    between atoms: C_2  and  C_3
REMARK    4  A    between atoms: C_4  and  C_5
REMARK    5  A    between atoms: C_4  and  C_6
REMARK                            x       y       z     vdW  Elec       q    Type
REMARK                         _______ _______ _______ _____ _____    ______ ____
ROOT
ATOM      1  C   LIG A   1      -6.382   3.931 124.665  0.00  0.00    +0.207 A 
ATOM      2  C   LIG A   1      -5.991   3.905 123.312  0.00  0.00    +0.184 A 
ATOM      3  C   LIG A   1      -6.365   2.886 122.427  0.00  0.00    +0.022 A 
ATOM      4  C   LIG A   1      -7.168   1.830 122.877  0.00  0.00    +0.023 A 
ATOM      5  C   LIG A   1      -7.613   1.835 124.211  0.00  0.00    +0.025 A 
ATOM      6  C   LIG A   1      -7.223   2.876 125.054  0.00  0.00    +0.180 A 
ATOM      7  O   LIG A   1      -7.784   2.686 126.286  0.00  0.00    -0.459 OA
ATOM      8  C   LIG A   1      -8.502   1.539 126.243  0.00  0.00    +0.196 A 
ATOM      9  C   LIG A   1      -8.421   0.968 124.997  0.00  0.00    +0.050 A 
ATOM     10  C   LIG A   1      -5.911   2.930 121.045  0.00  0.00    +0.019 A 
ATOM     11  C   LIG A   1      -5.179   3.962 120.624  0.00  0.00    +0.092 A 
ATOM     12  C   LIG A   1      -4.793   5.072 121.510  0.00  0.00    +0.337 A 
ATOM     13  O   LIG A   1      -4.145   6.022 121.073  0.00  0.00    -0.245 OA
ATOM     14  O   LIG A   1      -5.189   4.978 122.833  0.00  0.00    -0.418 OA
ENDROOT
BRANCH   1  15
ATOM     15  O   LIG A   1      -5.903   4.964 125.455  0.00  0.00    -0.481 OA
BRANCH  15  16
ATOM     16  C   LIG A   1      -5.230   4.574 126.658  0.00  0.00    +0.257 C 
BRANCH  16  17
ATOM     17  C   LIG A   1      -3.977   3.833 126.287  0.00  0.00    +0.012 C 
ATOM     18  C   LIG A   1      -2.782   3.931 126.904  0.00  0.00    -0.076 C 
ATOM     19  C   LIG A   1      -2.485   4.859 128.053  0.00  0.00    +0.038 C 
ATOM     20  C   LIG A   1      -1.627   3.063 126.485  0.00  0.00    +0.038 C 
ENDBRANCH  16  17
ENDBRANCH  15  16
ENDBRANCH   1  15
TORSDOF 3
ENDMDL
MODEL 2
REMARK VINA RESULT:      -7.1      4.984      6.753
REMARK  Name = NuBBE_1622
REMARK  5 active torsions:
REMARK  status: ('A' for Active; 'I' for Inactive)
REMARK    1  A    between atoms: O_1  and  C_2
REMARK    2  A    between atoms: O_1  and  C_7
REMARK    3  A    between atoms: C_2  and  C_3
REMARK    4  A    between atoms: C_4  and  C_5
REMARK    5  A    between atoms: C_4  and  C_6
REMARK                            x       y       z     vdW  Elec       q    Type
REMARK                         _______ _______ _______ _____ _____    ______ ____
ROOT
ATOM      1  C   LIG A   1      -9.047  -1.778 125.803  0.00  0.00    +0.207 A 
ATOM      2  C   LIG A   1      -9.135  -0.507 125.201  0.00  0.00    +0.184 A 
ATOM      3  C   LIG A   1      -8.598   0.651 125.777  0.00  0.00    +0.022 A 
ATOM      4  C   LIG A   1      -7.933   0.576 127.008  0.00  0.00    +0.023 A 
ATOM      5  C   LIG A   1      -7.788  -0.679 127.626  0.00  0.00    +0.025 A 
ATOM      6  C   LIG A   1      -8.331  -1.808 127.011  0.00  0.00    +0.180 A 
ATOM      7  O   LIG A   1      -8.056  -2.908 127.774  0.00  0.00    -0.459 OA
ATOM      8  C   LIG A   1      -7.368  -2.494 128.865  0.00  0.00    +0.196 A 
ATOM      9  C   LIG A   1      -7.188  -1.134 128.832  0.00  0.00    +0.050 A 
ATOM     10  C   LIG A   1      -8.739   1.927 125.092  0.00  0.00    +0.019 A 
ATOM     11  C   LIG A   1      -9.342   1.976 123.904  0.00  0.00    +0.092 A 
ATOM     12  C   LIG A   1      -9.889   0.778 123.245  0.00  0.00    +0.337 A 
ATOM     13  O   LIG A   1     -10.408   0.860 122.133  0.00  0.00    -0.245 OA
ATOM     14  O   LIG A   1      -9.792  -0.414 123.943  0.00  0.00    -0.418 OA
ENDROOT
BRANCH   1  15
ATOM     15  O   LIG A   1      -9.665  -2.840 125.162  0.00  0.00    -0.481 OA
BRANCH  15  16
ATOM     16  C   LIG A   1      -9.031  -3.304 123.964  0.00  0.00    +0.257 C 
BRANCH  16  17
ATOM     17  C   LIG A   1      -7.599  -3.634 124.276  0.00  0.00    +0.012 C 
ATOM     18  C   LIG A   1      -6.513  -2.990 123.802  0.00  0.00    -0.076 C 
ATOM     19  C   LIG A   1      -6.554  -1.850 122.819  0.00  0.00    +0.038 C 
ATOM     20  C   LIG A   1      -5.132  -3.368 124.266  0.00  0.00    +0.038 C 
ENDBRANCH  16  17
ENDBRANCH  15  16
ENDBRANCH   1  15
TORSDOF 3
ENDMDL
MODEL 3
REMARK VINA RESULT:      -7.1      4.291      7.574
REMARK  Name = NuBBE_1622
REMARK  5 active torsions:
REMARK  status: ('A' for Active; 'I' for Inactive)
REMARK    1  A    between atoms: O_1  and  C_2
REMARK    2  A    between atoms: O_1  and  C_7
REMARK    3  A    between atoms: C_2  and  C_3
REMARK    4  A    between atoms: C_4  and  C_5
REMARK    5  A    between atoms: C_4  and  C_6
REMARK                            x       y       z     vdW  Elec       q    Type
REMARK                         _______ _______ _______ _____ _____    ______ ____
ROOT
ATOM      1  C   LIG A   1      -7.687  -1.021 125.904  0.00  0.00    +0.207 A 
ATOM      2  C   LIG A   1      -7.833  -1.687 127.136  0.00  0.00    +0.184 A 
ATOM      3  C   LIG A   1      -8.507  -2.907 127.271  0.00  0.00    +0.022 A 
ATOM      4  C   LIG A   1      -9.072  -3.521 126.146  0.00  0.00    +0.023 A 
ATOM      5  C   LIG A   1      -8.917  -2.910 124.889  0.00  0.00    +0.025 A 
ATOM      6  C   LIG A   1      -8.230  -1.699 124.801  0.00  0.00    +0.180 A 
ATOM      7  O   LIG A   1      -8.187  -1.304 123.493  0.00  0.00    -0.459 OA
ATOM      8  C   LIG A   1      -8.849  -2.230 122.758  0.00  0.00    +0.196 A 
ATOM      9  C   LIG A   1      -9.330  -3.230 123.566  0.00  0.00    +0.050 A 
ATOM     10  C   LIG A   1      -8.619  -3.526 128.583  0.00  0.00    +0.019 A 
ATOM     11  C   LIG A   1      -8.044  -2.947 129.638  0.00  0.00    +0.092 A 
ATOM     12  C   LIG A   1      -7.295  -1.684 129.536  0.00  0.00    +0.337 A 
ATOM     13  O   LIG A   1      -6.750  -1.200 130.527  0.00  0.00    -0.245 OA
ATOM     14  O   LIG A   1      -7.251  -1.087 128.288  0.00  0.00    -0.418 OA
ENDROOT
BRANCH   1  15
ATOM     15  O   LIG A   1      -7.045   0.208 125.907  0.00  0.00    -0.481 OA
BRANCH  15  16
ATOM     16  C   LIG A   1      -7.896   1.360 125.935  0.00  0.00    +0.257 C 
BRANCH  16  17
ATOM     17  C   LIG A   1      -7.856   2.019 124.586  0.00  0.00    +0.012 C 
ATOM     18  C   LIG A   1      -8.874   2.091 123.705  0.00  0.00    -0.076 C 
ATOM     19  C   LIG A   1     -10.228   1.464 123.907  0.00  0.00    +0.038 C 
ATOM     20  C   LIG A   1      -8.726   2.861 122.420  0.00  0.00    +0.038 C 
ENDBRANCH  16  17
ENDBRANCH  15  16
ENDBRANCH   1  15
TORSDOF 3
ENDMDL
MODEL 4
REMARK VINA RESULT:      -7.0      4.979      7.627
REMARK  Name = NuBBE_1622
REMARK  5 active torsions:
REMARK  status: ('A' for Active; 'I' for Inactive)
REMARK    1  A    between atoms: O_1  and  C_2
REMARK    2  A    between atoms: O_1  and  C_7
REMARK    3  A    between atoms: C_2  and  C_3
REMARK    4  A    between atoms: C_4  and  C_5
REMARK    5  A    between atoms: C_4  and  C_6
REMARK                            x       y       z     vdW  Elec       q    Type
REMARK                         _______ _______ _______ _____ _____    ______ ____
ROOT
ATOM      1  C   LIG A   1      -9.168  -1.313 125.506  0.00  0.00    +0.207 A 
ATOM      2  C   LIG A   1      -8.479  -1.286 126.734  0.00  0.00    +0.184 A 
ATOM      3  C   LIG A   1      -7.930  -0.119 127.279  0.00  0.00    +0.022 A 
ATOM      4  C   LIG A   1      -8.057   1.098 126.594  0.00  0.00    +0.023 A 
ATOM      5  C   LIG A   1      -8.770   1.124 125.382  0.00  0.00    +0.025 A 
ATOM      6  C   LIG A   1      -9.307  -0.062 124.882  0.00  0.00    +0.180 A 
ATOM      7  O   LIG A   1      -9.966   0.203 123.715  0.00  0.00    -0.459 OA
ATOM      8  C   LIG A   1      -9.839   1.527 123.459  0.00  0.00    +0.196 A 
ATOM      9  C   LIG A   1      -9.102   2.138 124.442  0.00  0.00    +0.050 A 
ATOM     10  C   LIG A   1      -7.227  -0.179 128.551  0.00  0.00    +0.019 A 
ATOM     11  C   LIG A   1      -7.148  -1.336 129.207  0.00  0.00    +0.092 A 
ATOM     12  C   LIG A   1      -7.742  -2.581 128.690  0.00  0.00    +0.337 A 
ATOM     13  O   LIG A   1      -7.676  -3.621 129.343  0.00  0.00    -0.245 OA
ATOM     14  O   LIG A   1      -8.355  -2.509 127.452  0.00  0.00    -0.418 OA
ENDROOT
BRANCH   1  15
ATOM     15  O   LIG A   1      -9.618  -2.540 125.045  0.00  0.00    -0.481 OA
BRANCH  15  16
ATOM     16  C   LIG A   1      -9.028  -3.009 123.827  0.00  0.00    +0.257 C 
BRANCH  16  17
ATOM     17  C   LIG A   1      -7.626  -3.464 124.118  0.00  0.00    +0.012 C 
ATOM     18  C   LIG A   1      -6.492  -2.836 123.746  0.00  0.00    -0.076 C 
ATOM     19  C   LIG A   1      -6.441  -1.581 122.916  0.00  0.00    +0.038 C 
ATOM     20  C   LIG A   1      -5.148  -3.355 124.180  0.00  0.00    +0.038 C 
ENDBRANCH  16  17
ENDBRANCH  15  16
ENDBRANCH   1  15
TORSDOF 3
ENDMDL
MODEL 5
REMARK VINA RESULT:      -6.9      4.210      7.035
REMARK  Name = NuBBE_1622
REMARK  5 active torsions:
REMARK  status: ('A' for Active; 'I' for Inactive)
REMARK    1  A    between atoms: O_1  and  C_2
REMARK    2  A    between atoms: O_1  and  C_7
REMARK    3  A    between atoms: C_2  and  C_3
REMARK    4  A    between atoms: C_4  and  C_5
REMARK    5  A    between atoms: C_4  and  C_6
REMARK                            x       y       z     vdW  Elec       q    Type
REMARK                         _______ _______ _______ _____ _____    ______ ____
ROOT
ATOM      1  C   LIG A   1      -6.804  -1.661 125.723  0.00  0.00    +0.207 A 
ATOM      2  C   LIG A   1      -7.187  -2.234 126.952  0.00  0.00    +0.184 A 
ATOM      3  C   LIG A   1      -8.312  -3.054 127.096  0.00  0.00    +0.022 A 
ATOM      4  C   LIG A   1      -9.115  -3.340 125.984  0.00  0.00    +0.023 A 
ATOM      5  C   LIG A   1      -8.748  -2.821 124.730  0.00  0.00    +0.025 A 
ATOM      6  C   LIG A   1      -7.613  -2.016 124.632  0.00  0.00    +0.180 A 
ATOM      7  O   LIG A   1      -7.440  -1.644 123.328  0.00  0.00    -0.459 OA
ATOM      8  C   LIG A   1      -8.453  -2.180 122.606  0.00  0.00    +0.196 A 
ATOM      9  C   LIG A   1      -9.292  -2.901 123.419  0.00  0.00    +0.050 A 
ATOM     10  C   LIG A   1      -8.643  -3.599 128.404  0.00  0.00    +0.019 A 
ATOM     11  C   LIG A   1      -7.849  -3.348 129.444  0.00  0.00    +0.092 A 
ATOM     12  C   LIG A   1      -6.636  -2.521 129.331  0.00  0.00    +0.337 A 
ATOM     13  O   LIG A   1      -5.910  -2.340 130.309  0.00  0.00    -0.245 OA
ATOM     14  O   LIG A   1      -6.375  -1.967 128.090  0.00  0.00    -0.418 OA
ENDROOT
BRANCH   1  15
ATOM     15  O   LIG A   1      -5.700  -0.823 125.719  0.00  0.00    -0.481 OA
BRANCH  15  16
ATOM     16  C   LIG A   1      -5.979   0.582 125.764  0.00  0.00    +0.257 C 
BRANCH  16  17
ATOM     17  C   LIG A   1      -4.806   1.283 126.388  0.00  0.00    +0.012 C 
ATOM     18  C   LIG A   1      -4.461   2.574 126.204  0.00  0.00    -0.076 C 
ATOM     19  C   LIG A   1      -5.174   3.528 125.282  0.00  0.00    +0.038 C 
ATOM     20  C   LIG A   1      -3.310   3.178 126.962  0.00  0.00    +0.038 C 
ENDBRANCH  16  17
ENDBRANCH  15  16
ENDBRANCH   1  15
TORSDOF 3
ENDMDL
MODEL 6
REMARK VINA RESULT:      -6.6      1.877      5.124
REMARK  Name = NuBBE_1622
REMARK  5 active torsions:
REMARK  status: ('A' for Active; 'I' for Inactive)
REMARK    1  A    between atoms: O_1  and  C_2
REMARK    2  A    between atoms: O_1  and  C_7
REMARK    3  A    between atoms: C_2  and  C_3
REMARK    4  A    between atoms: C_4  and  C_5
REMARK    5  A    between atoms: C_4  and  C_6
REMARK                            x       y       z     vdW  Elec       q    Type
REMARK                         _______ _______ _______ _____ _____    ______ ____
ROOT
ATOM      1  C   LIG A   1      -6.995   3.057 124.235  0.00  0.00    +0.207 A 
ATOM      2  C   LIG A   1      -6.101   2.822 125.298  0.00  0.00    +0.184 A 
ATOM      3  C   LIG A   1      -6.381   1.947 126.354  0.00  0.00    +0.022 A 
ATOM      4  C   LIG A   1      -7.598   1.253 126.383  0.00  0.00    +0.023 A 
ATOM      5  C   LIG A   1      -8.505   1.428 125.322  0.00  0.00    +0.025 A 
ATOM      6  C   LIG A   1      -8.180   2.304 124.286  0.00  0.00    +0.180 A 
ATOM      7  O   LIG A   1      -9.190   2.301 123.365  0.00  0.00    -0.459 OA
ATOM      8  C   LIG A   1     -10.152   1.457 123.808  0.00  0.00    +0.196 A 
ATOM      9  C   LIG A   1      -9.790   0.905 125.012  0.00  0.00    +0.050 A 
ATOM     10  C   LIG A   1      -5.405   1.767 127.419  0.00  0.00    +0.019 A 
ATOM     11  C   LIG A   1      -4.237   2.405 127.357  0.00  0.00    +0.092 A 
ATOM     12  C   LIG A   1      -3.885   3.307 126.247  0.00  0.00    +0.337 A 
ATOM     13  O   LIG A   1      -2.782   3.851 126.211  0.00  0.00    -0.245 OA
ATOM     14  O   LIG A   1      -4.853   3.505 125.277  0.00  0.00    -0.418 OA
ENDROOT
BRANCH   1  15
ATOM     15  O   LIG A   1      -6.627   3.987 123.276  0.00  0.00    -0.481 OA
BRANCH  15  16
ATOM     16  C   LIG A   1      -5.962   3.467 122.119  0.00  0.00    +0.257 C 
BRANCH  16  17
ATOM     17  C   LIG A   1      -6.850   3.667 120.924  0.00  0.00    +0.012 C 
ATOM     18  C   LIG A   1      -6.579   4.439 119.852  0.00  0.00    -0.076 C 
ATOM     19  C   LIG A   1      -5.344   5.286 119.697  0.00  0.00    +0.038 C 
ATOM     20  C   LIG A   1      -7.521   4.483 118.679  0.00  0.00    +0.038 C 
ENDBRANCH  16  17
ENDBRANCH  15  16
ENDBRANCH   1  15
TORSDOF 3
ENDMDL
MODEL 7
REMARK VINA RESULT:      -6.5      3.845      5.724
REMARK  Name = NuBBE_1622
REMARK  5 active torsions:
REMARK  status: ('A' for Active; 'I' for Inactive)
REMARK    1  A    between atoms: O_1  and  C_2
REMARK    2  A    between atoms: O_1  and  C_7
REMARK    3  A    between atoms: C_2  and  C_3
REMARK    4  A    between atoms: C_4  and  C_5
REMARK    5  A    between atoms: C_4  and  C_6
REMARK                            x       y       z     vdW  Elec       q    Type
REMARK                         _______ _______ _______ _____ _____    ______ ____
ROOT
ATOM      1  C   LIG A   1      -6.770  -0.103 125.833  0.00  0.00    +0.207 A 
ATOM      2  C   LIG A   1      -7.270   0.930 125.015  0.00  0.00    +0.184 A 
ATOM      3  C   LIG A   1      -7.272   0.864 123.617  0.00  0.00    +0.022 A 
ATOM      4  C   LIG A   1      -6.763  -0.270 122.970  0.00  0.00    +0.023 A 
ATOM      5  C   LIG A   1      -6.289  -1.340 123.748  0.00  0.00    +0.025 A 
ATOM      6  C   LIG A   1      -6.314  -1.235 125.139  0.00  0.00    +0.180 A 
ATOM      7  O   LIG A   1      -5.828  -2.390 125.684  0.00  0.00    -0.459 OA
ATOM      8  C   LIG A   1      -5.478  -3.213 124.666  0.00  0.00    +0.196 A 
ATOM      9  C   LIG A   1      -5.726  -2.613 123.457  0.00  0.00    +0.050 A 
ATOM     10  C   LIG A   1      -7.800   1.978 122.844  0.00  0.00    +0.019 A 
ATOM     11  C   LIG A   1      -8.315   3.034 123.476  0.00  0.00    +0.092 A 
ATOM     12  C   LIG A   1      -8.367   3.129 124.944  0.00  0.00    +0.337 A 
ATOM     13  O   LIG A   1      -8.881   4.105 125.488  0.00  0.00    -0.245 OA
ATOM     14  O   LIG A   1      -7.807   2.082 125.655  0.00  0.00    -0.418 OA
ENDROOT
BRANCH   1  15
ATOM     15  O   LIG A   1      -6.773   0.102 127.204  0.00  0.00    -0.481 OA
BRANCH  15  16
ATOM     16  C   LIG A   1      -7.822  -0.546 127.934  0.00  0.00    +0.257 C 
BRANCH  16  17
ATOM     17  C   LIG A   1      -7.207  -1.545 128.872  0.00  0.00    +0.012 C 
ATOM     18  C   LIG A   1      -7.524  -2.853 128.960  0.00  0.00    -0.076 C 
ATOM     19  C   LIG A   1      -8.605  -3.529 128.158  0.00  0.00    +0.038 C 
ATOM     20  C   LIG A   1      -6.766  -3.767 129.885  0.00  0.00    +0.038 C 
ENDBRANCH  16  17
ENDBRANCH  15  16
ENDBRANCH   1  15
TORSDOF 3
ENDMDL
MODEL 8
REMARK VINA RESULT:      -6.4      4.434      6.210
REMARK  Name = NuBBE_1622
REMARK  5 active torsions:
REMARK  status: ('A' for Active; 'I' for Inactive)
REMARK    1  A    between atoms: O_1  and  C_2
REMARK    2  A    between atoms: O_1  and  C_7
REMARK    3  A    between atoms: C_2  and  C_3
REMARK    4  A    between atoms: C_4  and  C_5
REMARK    5  A    between atoms: C_4  and  C_6
REMARK                            x       y       z     vdW  Elec       q    Type
REMARK                         _______ _______ _______ _____ _____    ______ ____
ROOT
ATOM      1  C   LIG A   1      -6.723  -1.663 126.728  0.00  0.00    +0.207 A 
ATOM      2  C   LIG A   1      -7.545  -2.182 125.708  0.00  0.00    +0.184 A 
ATOM      3  C   LIG A   1      -8.581  -3.092 125.949  0.00  0.00    +0.022 A 
ATOM      4  C   LIG A   1      -8.841  -3.525 127.257  0.00  0.00    +0.023 A 
ATOM      5  C   LIG A   1      -8.069  -3.003 128.311  0.00  0.00    +0.025 A 
ATOM      6  C   LIG A   1      -7.052  -2.092 128.024  0.00  0.00    +0.180 A 
ATOM      7  O   LIG A   1      -6.453  -1.709 129.191  0.00  0.00    -0.459 OA
ATOM      8  C   LIG A   1      -7.057  -2.374 130.205  0.00  0.00    +0.196 A 
ATOM      9  C   LIG A   1      -8.047  -3.193 129.719  0.00  0.00    +0.050 A 
ATOM     10  C   LIG A   1      -9.380  -3.585 124.838  0.00  0.00    +0.019 A 
ATOM     11  C   LIG A   1      -9.145  -3.135 123.605  0.00  0.00    +0.092 A 
ATOM     12  C   LIG A   1      -8.090  -2.151 123.311  0.00  0.00    +0.337 A 
ATOM     13  O   LIG A   1      -7.927  -1.736 122.164  0.00  0.00    -0.245 OA
ATOM     14  O   LIG A   1      -7.307  -1.741 124.376  0.00  0.00    -0.418 OA
ENDROOT
BRANCH   1  15
ATOM     15  O   LIG A   1      -5.695  -0.811 126.356  0.00  0.00    -0.481 OA
BRANCH  15  16
ATOM     16  C   LIG A   1      -5.929   0.586 126.571  0.00  0.00    +0.257 C 
BRANCH  16  17
ATOM     17  C   LIG A   1      -4.655   1.334 126.297  0.00  0.00    +0.012 C 
ATOM     18  C   LIG A   1      -4.234   2.447 126.930  0.00  0.00    -0.076 C 
ATOM     19  C   LIG A   1      -5.010   3.170 127.999  0.00  0.00    +0.038 C 
ATOM     20  C   LIG A   1      -2.890   3.047 126.618  0.00  0.00    +0.038 C 
ENDBRANCH  16  17
ENDBRANCH  15  16
ENDBRANCH   1  15
TORSDOF 3
ENDMDL
MODEL 9
REMARK VINA RESULT:      -6.3      7.151      8.089
REMARK  Name = NuBBE_1622
REMARK  5 active torsions:
REMARK  status: ('A' for Active; 'I' for Inactive)
REMARK    1  A    between atoms: O_1  and  C_2
REMARK    2  A    between atoms: O_1  and  C_7
REMARK    3  A    between atoms: C_2  and  C_3
REMARK    4  A    between atoms: C_4  and  C_5
REMARK    5  A    between atoms: C_4  and  C_6
REMARK                            x       y       z     vdW  Elec       q    Type
REMARK                         _______ _______ _______ _____ _____    ______ ____
ROOT
ATOM      1  C   LIG A   1      -8.405   5.564 130.224  0.00  0.00    +0.207 A 
ATOM      2  C   LIG A   1      -8.668   4.277 130.733  0.00  0.00    +0.184 A 
ATOM      3  C   LIG A   1      -9.962   3.762 130.880  0.00  0.00    +0.022 A 
ATOM      4  C   LIG A   1     -11.069   4.538 130.510  0.00  0.00    +0.023 A 
ATOM      5  C   LIG A   1     -10.850   5.814 129.961  0.00  0.00    +0.025 A 
ATOM      6  C   LIG A   1      -9.543   6.282 129.825  0.00  0.00    +0.180 A 
ATOM      7  O   LIG A   1      -9.571   7.526 129.258  0.00  0.00    -0.459 OA
ATOM      8  C   LIG A   1     -10.867   7.859 129.052  0.00  0.00    +0.196 A 
ATOM      9  C   LIG A   1     -11.696   6.851 129.478  0.00  0.00    +0.050 A 
ATOM     10  C   LIG A   1     -10.148   2.425 131.422  0.00  0.00    +0.019 A 
ATOM     11  C   LIG A   1      -9.084   1.685 131.734  0.00  0.00    +0.092 A 
ATOM     12  C   LIG A   1      -7.705   2.172 131.562  0.00  0.00    +0.337 A 
ATOM     13  O   LIG A   1      -6.749   1.445 131.831  0.00  0.00    -0.245 OA
ATOM     14  O   LIG A   1      -7.557   3.468 131.099  0.00  0.00    -0.418 OA
ENDROOT
BRANCH   1  15
ATOM     15  O   LIG A   1      -7.084   5.981 130.177  0.00  0.00    -0.481 OA
BRANCH  15  16
ATOM     16  C   LIG A   1      -6.694   6.941 131.167  0.00  0.00    +0.257 C 
BRANCH  16  17
ATOM     17  C   LIG A   1      -5.266   6.676 131.554  0.00  0.00    +0.012 C 
ATOM     18  C   LIG A   1      -4.177   7.285 131.042  0.00  0.00    -0.076 C 
ATOM     19  C   LIG A   1      -4.208   8.309 129.939  0.00  0.00    +0.038 C 
ATOM     20  C   LIG A   1      -2.805   6.988 131.584  0.00  0.00    +0.038 C 
ENDBRANCH  16  17
ENDBRANCH  15  16
ENDBRANCH   1  15
TORSDOF 3
ENDMDL
