MODEL 1
REMARK VINA RESULT:      -6.5      0.000      0.000
REMARK  Name = NuBBE_1088
REMARK  21 active torsions:
REMARK  status: ('A' for Active; 'I' for Inactive)
REMARK    1  A    between atoms: C_2  and  C_3
REMARK    2  A    between atoms: C_2  and  O_14
REMARK    3  A    between atoms: C_4  and  C_5
REMARK    4  A    between atoms: C_8  and  O_12
REMARK    5  A    between atoms: C_10  and  O_11
REMARK    6  A    between atoms: O_12  and  C_13
REMARK    7  A    between atoms: O_14  and  C_15
REMARK    8  A    between atoms: C_15  and  C_16
REMARK    9  A    between atoms: C_16  and  C_17
REMARK   10  A    between atoms: C_17  and  C_18
REMARK   11  A    between atoms: C_18  and  C_19
REMARK   12  A    between atoms: C_19  and  C_20
REMARK   13  A    between atoms: C_20  and  C_21
REMARK   14  A    between atoms: C_21  and  C_22
REMARK   15  A    between atoms: C_22  and  C_23
REMARK   16  A    between atoms: C_23  and  C_24
REMARK   17  A    between atoms: C_24  and  C_25
REMARK   18  A    between atoms: C_25  and  C_26
REMARK   19  A    between atoms: C_26  and  C_27
REMARK   20  A    between atoms: C_27  and  C_28
REMARK   21  A    between atoms: C_28  and  C_29
REMARK                            x       y       z     vdW  Elec       q    Type
REMARK                         _______ _______ _______ _____ _____    ______ ____
ROOT
ATOM      1  O   LIG A   1      -9.431  -0.430 124.039  0.00  0.00    -0.462 OA
ENDROOT
BRANCH   1   3
ATOM      2  O   LIG A   1     -10.064   1.458 125.288  0.00  0.00    -0.246 OA
ATOM      3  C   LIG A   1      -9.369   0.851 124.375  0.00  0.00    +0.332 C 
BRANCH   3   4
ATOM      4  C   LIG A   1      -8.400   1.563 123.506  0.00  0.00    +0.092 C 
ATOM      5  C   LIG A   1      -8.731   2.537 122.647  0.00  0.00    +0.018 C 
BRANCH   5   6
ATOM      6  C   LIG A   1      -7.836   3.242 121.704  0.00  0.00    +0.017 A 
ATOM      7  C   LIG A   1      -6.506   3.451 122.106  0.00  0.00    +0.015 A 
ATOM      8  C   LIG A   1      -5.614   4.159 121.302  0.00  0.00    +0.046 A 
ATOM      9  C   LIG A   1      -6.012   4.674 120.070  0.00  0.00    +0.124 A 
ATOM     10  C   LIG A   1      -7.325   4.470 119.642  0.00  0.00    +0.091 A 
ATOM     11  C   LIG A   1      -8.219   3.760 120.454  0.00  0.00    +0.127 A 
BRANCH   9  12
ATOM     12  O   LIG A   1      -5.185   5.390 119.241  0.00  0.00    -0.495 OA
ATOM     13  C   LIG A   1      -5.880   6.218 118.304  0.00  0.00    +0.277 C 
ENDBRANCH   9  12
BRANCH  11  14
ATOM     14  O   LIG A   1      -9.502   3.584 120.010  0.00  0.00    -0.506 OA
ATOM     15  H   LIG A   1      -9.761   4.320 119.437  0.00  0.00    +0.292 HD
ENDBRANCH  11  14
ENDBRANCH   5   6
ENDBRANCH   3   4
ENDBRANCH   1   3
BRANCH   1  16
ATOM     16  C   LIG A   1      -8.686  -1.132 122.999  0.00  0.00    +0.232 C 
BRANCH  16  17
ATOM     17  C   LIG A   1      -9.042  -2.631 122.872  0.00  0.00    +0.041 C 
BRANCH  17  18
ATOM     18  C   LIG A   1      -9.559  -3.515 124.034  0.00  0.00    +0.003 C 
BRANCH  18  19
ATOM     19  C   LIG A   1      -8.622  -3.650 125.239  0.00  0.00    +0.000 C 
BRANCH  19  20
ATOM     20  C   LIG A   1      -9.169  -3.005 126.534  0.00  0.00    -0.000 C 
BRANCH  20  21
ATOM     21  C   LIG A   1      -8.758  -3.728 127.831  0.00  0.00    -0.000 C 
BRANCH  21  22
ATOM     22  C   LIG A   1      -8.282  -2.830 128.985  0.00  0.00    -0.000 C 
BRANCH  22  23
ATOM     23  C   LIG A   1      -7.474  -3.471 130.100  0.00  0.00    -0.000 C 
BRANCH  23  24
ATOM     24  C   LIG A   1      -6.353  -2.605 130.553  0.00  0.00    -0.000 C 
BRANCH  24  25
ATOM     25  C   LIG A   1      -5.879  -1.700 129.426  0.00  0.00    -0.000 C 
BRANCH  25  26
ATOM     26  C   LIG A   1      -4.804  -2.193 128.395  0.00  0.00    -0.000 C 
BRANCH  26  27
ATOM     27  C   LIG A   1      -5.228  -2.491 126.893  0.00  0.00    -0.000 C 
BRANCH  27  28
ATOM     28  C   LIG A   1      -5.833  -1.350 126.013  0.00  0.00    -0.000 C 
BRANCH  28  29
ATOM     29  C   LIG A   1      -5.566  -1.555 124.526  0.00  0.00    -0.003 C 
ATOM     30  C   LIG A   1      -5.243  -3.001 124.356  0.00  0.00    +0.004 C 
ENDBRANCH  28  29
ENDBRANCH  27  28
ENDBRANCH  26  27
ENDBRANCH  25  26
ENDBRANCH  24  25
ENDBRANCH  23  24
ENDBRANCH  22  23
ENDBRANCH  21  22
ENDBRANCH  20  21
ENDBRANCH  19  20
ENDBRANCH  18  19
ENDBRANCH  17  18
ENDBRANCH  16  17
ENDBRANCH   1  16
TORSDOF 19
ENDMDL
MODEL 2
REMARK VINA RESULT:      -6.2      3.532      6.480
REMARK  Name = NuBBE_1088
REMARK  21 active torsions:
REMARK  status: ('A' for Active; 'I' for Inactive)
REMARK    1  A    between atoms: C_2  and  C_3
REMARK    2  A    between atoms: C_2  and  O_14
REMARK    3  A    between atoms: C_4  and  C_5
REMARK    4  A    between atoms: C_8  and  O_12
REMARK    5  A    between atoms: C_10  and  O_11
REMARK    6  A    between atoms: O_12  and  C_13
REMARK    7  A    between atoms: O_14  and  C_15
REMARK    8  A    between atoms: C_15  and  C_16
REMARK    9  A    between atoms: C_16  and  C_17
REMARK   10  A    between atoms: C_17  and  C_18
REMARK   11  A    between atoms: C_18  and  C_19
REMARK   12  A    between atoms: C_19  and  C_20
REMARK   13  A    between atoms: C_20  and  C_21
REMARK   14  A    between atoms: C_21  and  C_22
REMARK   15  A    between atoms: C_22  and  C_23
REMARK   16  A    between atoms: C_23  and  C_24
REMARK   17  A    between atoms: C_24  and  C_25
REMARK   18  A    between atoms: C_25  and  C_26
REMARK   19  A    between atoms: C_26  and  C_27
REMARK   20  A    between atoms: C_27  and  C_28
REMARK   21  A    between atoms: C_28  and  C_29
REMARK                            x       y       z     vdW  Elec       q    Type
REMARK                         _______ _______ _______ _____ _____    ______ ____
ROOT
ATOM      1  O   LIG A   1      -8.972  -0.168 124.532  0.00  0.00    -0.462 OA
ENDROOT
BRANCH   1   3
ATOM      2  O   LIG A   1      -9.158   2.172 124.416  0.00  0.00    -0.246 OA
ATOM      3  C   LIG A   1      -9.087   1.045 125.055  0.00  0.00    +0.332 C 
BRANCH   3   4
ATOM      4  C   LIG A   1      -9.073   0.968 126.537  0.00  0.00    +0.092 C 
ATOM      5  C   LIG A   1      -8.638   1.951 127.338  0.00  0.00    +0.018 C 
BRANCH   5   6
ATOM      6  C   LIG A   1      -8.529   1.921 128.813  0.00  0.00    +0.017 A 
ATOM      7  C   LIG A   1      -8.097   0.724 129.408  0.00  0.00    +0.015 A 
ATOM      8  C   LIG A   1      -8.025   0.594 130.794  0.00  0.00    +0.046 A 
ATOM      9  C   LIG A   1      -8.373   1.652 131.633  0.00  0.00    +0.124 A 
ATOM     10  C   LIG A   1      -8.794   2.856 131.067  0.00  0.00    +0.091 A 
ATOM     11  C   LIG A   1      -8.867   2.982 129.673  0.00  0.00    +0.127 A 
BRANCH   9  12
ATOM     12  O   LIG A   1      -8.335   1.582 133.003  0.00  0.00    -0.495 OA
ATOM     13  C   LIG A   1      -7.227   2.271 133.588  0.00  0.00    +0.277 C 
ENDBRANCH   9  12
BRANCH  11  14
ATOM     14  O   LIG A   1      -9.292   4.173 129.148  0.00  0.00    -0.506 OA
ATOM     15  H   LIG A   1      -9.814   4.659 129.803  0.00  0.00    +0.292 HD
ENDBRANCH  11  14
ENDBRANCH   5   6
ENDBRANCH   3   4
ENDBRANCH   1   3
BRANCH   1  16
ATOM     16  C   LIG A   1      -8.210  -0.580 123.357  0.00  0.00    +0.232 C 
BRANCH  16  17
ATOM     17  C   LIG A   1      -8.554  -1.999 122.848  0.00  0.00    +0.041 C 
BRANCH  17  18
ATOM     18  C   LIG A   1      -9.430  -3.021 123.615  0.00  0.00    +0.003 C 
BRANCH  18  19
ATOM     19  C   LIG A   1      -8.802  -3.626 124.875  0.00  0.00    +0.000 C 
BRANCH  19  20
ATOM     20  C   LIG A   1      -9.362  -3.046 126.195  0.00  0.00    -0.000 C 
BRANCH  20  21
ATOM     21  C   LIG A   1      -8.889  -3.779 127.466  0.00  0.00    -0.000 C 
BRANCH  21  22
ATOM     22  C   LIG A   1      -8.233  -2.905 128.547  0.00  0.00    -0.000 C 
BRANCH  22  23
ATOM     23  C   LIG A   1      -6.842  -3.284 129.022  0.00  0.00    -0.000 C 
BRANCH  23  24
ATOM     24  C   LIG A   1      -5.832  -2.238 128.707  0.00  0.00    -0.000 C 
BRANCH  24  25
ATOM     25  C   LIG A   1      -6.363  -1.274 127.656  0.00  0.00    -0.000 C 
BRANCH  25  26
ATOM     26  C   LIG A   1      -5.822  -1.308 126.185  0.00  0.00    -0.000 C 
BRANCH  26  27
ATOM     27  C   LIG A   1      -5.158  -2.635 125.616  0.00  0.00    -0.000 C 
BRANCH  27  28
ATOM     28  C   LIG A   1      -5.545  -3.152 124.193  0.00  0.00    -0.000 C 
BRANCH  28  29
ATOM     29  C   LIG A   1      -4.327  -3.503 123.347  0.00  0.00    -0.003 C 
ATOM     30  C   LIG A   1      -4.204  -4.989 123.390  0.00  0.00    +0.004 C 
ENDBRANCH  28  29
ENDBRANCH  27  28
ENDBRANCH  26  27
ENDBRANCH  25  26
ENDBRANCH  24  25
ENDBRANCH  23  24
ENDBRANCH  22  23
ENDBRANCH  21  22
ENDBRANCH  20  21
ENDBRANCH  19  20
ENDBRANCH  18  19
ENDBRANCH  17  18
ENDBRANCH  16  17
ENDBRANCH   1  16
TORSDOF 19
ENDMDL
MODEL 3
REMARK VINA RESULT:      -6.2      2.307      4.479
REMARK  Name = NuBBE_1088
REMARK  21 active torsions:
REMARK  status: ('A' for Active; 'I' for Inactive)
REMARK    1  A    between atoms: C_2  and  C_3
REMARK    2  A    between atoms: C_2  and  O_14
REMARK    3  A    between atoms: C_4  and  C_5
REMARK    4  A    between atoms: C_8  and  O_12
REMARK    5  A    between atoms: C_10  and  O_11
REMARK    6  A    between atoms: O_12  and  C_13
REMARK    7  A    between atoms: O_14  and  C_15
REMARK    8  A    between atoms: C_15  and  C_16
REMARK    9  A    between atoms: C_16  and  C_17
REMARK   10  A    between atoms: C_17  and  C_18
REMARK   11  A    between atoms: C_18  and  C_19
REMARK   12  A    between atoms: C_19  and  C_20
REMARK   13  A    between atoms: C_20  and  C_21
REMARK   14  A    between atoms: C_21  and  C_22
REMARK   15  A    between atoms: C_22  and  C_23
REMARK   16  A    between atoms: C_23  and  C_24
REMARK   17  A    between atoms: C_24  and  C_25
REMARK   18  A    between atoms: C_25  and  C_26
REMARK   19  A    between atoms: C_26  and  C_27
REMARK   20  A    between atoms: C_27  and  C_28
REMARK   21  A    between atoms: C_28  and  C_29
REMARK                            x       y       z     vdW  Elec       q    Type
REMARK                         _______ _______ _______ _____ _____    ______ ____
ROOT
ATOM      1  O   LIG A   1      -6.293   3.117 126.955  0.00  0.00    -0.462 OA
ENDROOT
BRANCH   1   3
ATOM      2  O   LIG A   1      -4.286   4.336 127.046  0.00  0.00    -0.246 OA
ATOM      3  C   LIG A   1      -5.344   3.889 126.443  0.00  0.00    +0.332 C 
BRANCH   3   4
ATOM      4  C   LIG A   1      -5.672   4.246 125.041  0.00  0.00    +0.092 C 
ATOM      5  C   LIG A   1      -6.024   3.359 124.099  0.00  0.00    +0.018 C 
BRANCH   5   6
ATOM      6  C   LIG A   1      -6.297   3.631 122.672  0.00  0.00    +0.017 A 
ATOM      7  C   LIG A   1      -5.254   4.173 121.902  0.00  0.00    +0.015 A 
ATOM      8  C   LIG A   1      -5.447   4.513 120.564  0.00  0.00    +0.046 A 
ATOM      9  C   LIG A   1      -6.682   4.318 119.946  0.00  0.00    +0.124 A 
ATOM     10  C   LIG A   1      -7.732   3.771 120.684  0.00  0.00    +0.091 A 
ATOM     11  C   LIG A   1      -7.534   3.432 122.030  0.00  0.00    +0.127 A 
BRANCH   9  12
ATOM     12  O   LIG A   1      -6.937   4.645 118.638  0.00  0.00    -0.495 OA
ATOM     13  C   LIG A   1      -6.109   5.694 118.130  0.00  0.00    +0.277 C 
ENDBRANCH   9  12
BRANCH  11  14
ATOM     14  O   LIG A   1      -8.585   2.905 122.730  0.00  0.00    -0.506 OA
ATOM     15  H   LIG A   1      -8.459   1.954 122.857  0.00  0.00    +0.292 HD
ENDBRANCH  11  14
ENDBRANCH   5   6
ENDBRANCH   3   4
ENDBRANCH   1   3
BRANCH   1  16
ATOM     16  C   LIG A   1      -6.155   1.808 127.584  0.00  0.00    +0.232 C 
BRANCH  16  17
ATOM     17  C   LIG A   1      -5.841   0.663 126.594  0.00  0.00    +0.041 C 
BRANCH  17  18
ATOM     18  C   LIG A   1      -6.904  -0.257 125.944  0.00  0.00    +0.003 C 
BRANCH  18  19
ATOM     19  C   LIG A   1      -8.197   0.431 125.493  0.00  0.00    +0.000 C 
BRANCH  19  20
ATOM     20  C   LIG A   1      -8.838  -0.200 124.235  0.00  0.00    -0.000 C 
BRANCH  20  21
ATOM     21  C   LIG A   1      -7.894  -1.108 123.425  0.00  0.00    -0.000 C 
BRANCH  21  22
ATOM     22  C   LIG A   1      -8.500  -2.423 122.905  0.00  0.00    -0.000 C 
BRANCH  22  23
ATOM     23  C   LIG A   1      -9.289  -3.277 123.881  0.00  0.00    -0.000 C 
BRANCH  23  24
ATOM     24  C   LIG A   1      -8.517  -3.586 125.114  0.00  0.00    -0.000 C 
BRANCH  24  25
ATOM     25  C   LIG A   1      -9.296  -3.178 126.355  0.00  0.00    -0.000 C 
BRANCH  25  26
ATOM     26  C   LIG A   1      -8.976  -3.816 127.753  0.00  0.00    -0.000 C 
BRANCH  26  27
ATOM     27  C   LIG A   1      -7.686  -3.353 128.556  0.00  0.00    -0.000 C 
BRANCH  27  28
ATOM     28  C   LIG A   1      -7.840  -2.470 129.837  0.00  0.00    -0.000 C 
BRANCH  28  29
ATOM     29  C   LIG A   1      -7.758  -0.979 129.532  0.00  0.00    -0.003 C 
ATOM     30  C   LIG A   1      -8.204  -0.276 130.770  0.00  0.00    +0.004 C 
ENDBRANCH  28  29
ENDBRANCH  27  28
ENDBRANCH  26  27
ENDBRANCH  25  26
ENDBRANCH  24  25
ENDBRANCH  23  24
ENDBRANCH  22  23
ENDBRANCH  21  22
ENDBRANCH  20  21
ENDBRANCH  19  20
ENDBRANCH  18  19
ENDBRANCH  17  18
ENDBRANCH  16  17
ENDBRANCH   1  16
TORSDOF 19
ENDMDL
MODEL 4
REMARK VINA RESULT:      -6.1      2.830      5.700
REMARK  Name = NuBBE_1088
REMARK  21 active torsions:
REMARK  status: ('A' for Active; 'I' for Inactive)
REMARK    1  A    between atoms: C_2  and  C_3
REMARK    2  A    between atoms: C_2  and  O_14
REMARK    3  A    between atoms: C_4  and  C_5
REMARK    4  A    between atoms: C_8  and  O_12
REMARK    5  A    between atoms: C_10  and  O_11
REMARK    6  A    between atoms: O_12  and  C_13
REMARK    7  A    between atoms: O_14  and  C_15
REMARK    8  A    between atoms: C_15  and  C_16
REMARK    9  A    between atoms: C_16  and  C_17
REMARK   10  A    between atoms: C_17  and  C_18
REMARK   11  A    between atoms: C_18  and  C_19
REMARK   12  A    between atoms: C_19  and  C_20
REMARK   13  A    between atoms: C_20  and  C_21
REMARK   14  A    between atoms: C_21  and  C_22
REMARK   15  A    between atoms: C_22  and  C_23
REMARK   16  A    between atoms: C_23  and  C_24
REMARK   17  A    between atoms: C_24  and  C_25
REMARK   18  A    between atoms: C_25  and  C_26
REMARK   19  A    between atoms: C_26  and  C_27
REMARK   20  A    between atoms: C_27  and  C_28
REMARK   21  A    between atoms: C_28  and  C_29
REMARK                            x       y       z     vdW  Elec       q    Type
REMARK                         _______ _______ _______ _____ _____    ______ ____
ROOT
ATOM      1  O   LIG A   1      -6.159  -0.317 130.532  0.00  0.00    -0.462 OA
ENDROOT
BRANCH   1   3
ATOM      2  O   LIG A   1      -5.873   2.010 130.690  0.00  0.00    -0.246 OA
ATOM      3  C   LIG A   1      -6.280   0.930 130.098  0.00  0.00    +0.332 C 
BRANCH   3   4
ATOM      4  C   LIG A   1      -7.022   0.957 128.813  0.00  0.00    +0.092 C 
ATOM      5  C   LIG A   1      -6.515   1.412 127.660  0.00  0.00    +0.018 C 
BRANCH   5   6
ATOM      6  C   LIG A   1      -7.213   1.533 126.361  0.00  0.00    +0.017 A 
ATOM      7  C   LIG A   1      -8.486   0.949 126.252  0.00  0.00    +0.015 A 
ATOM      8  C   LIG A   1      -9.185   0.967 125.046  0.00  0.00    +0.046 A 
ATOM      9  C   LIG A   1      -8.645   1.572 123.912  0.00  0.00    +0.124 A 
ATOM     10  C   LIG A   1      -7.387   2.169 123.997  0.00  0.00    +0.091 A 
ATOM     11  C   LIG A   1      -6.686   2.147 125.211  0.00  0.00    +0.127 A 
BRANCH   9  12
ATOM     12  O   LIG A   1      -9.278   1.610 122.695  0.00  0.00    -0.495 OA
ATOM     13  C   LIG A   1     -10.418   0.752 122.608  0.00  0.00    +0.277 C 
ENDBRANCH   9  12
BRANCH  11  14
ATOM     14  O   LIG A   1      -5.450   2.735 125.259  0.00  0.00    -0.506 OA
ATOM     15  H   LIG A   1      -4.918   2.334 125.961  0.00  0.00    +0.292 HD
ENDBRANCH  11  14
ENDBRANCH   5   6
ENDBRANCH   3   4
ENDBRANCH   1   3
BRANCH   1  16
ATOM     16  C   LIG A   1      -4.980  -1.178 130.499  0.00  0.00    +0.232 C 
BRANCH  16  17
ATOM     17  C   LIG A   1      -5.116  -2.396 129.558  0.00  0.00    +0.041 C 
BRANCH  17  18
ATOM     18  C   LIG A   1      -6.176  -3.515 129.713  0.00  0.00    +0.003 C 
BRANCH  18  19
ATOM     19  C   LIG A   1      -7.629  -3.046 129.846  0.00  0.00    +0.000 C 
BRANCH  19  20
ATOM     20  C   LIG A   1      -8.546  -3.506 128.689  0.00  0.00    -0.000 C 
BRANCH  20  21
ATOM     21  C   LIG A   1      -8.304  -2.778 127.353  0.00  0.00    -0.000 C 
BRANCH  21  22
ATOM     22  C   LIG A   1      -8.742  -3.528 126.084  0.00  0.00    -0.000 C 
BRANCH  22  23
ATOM     23  C   LIG A   1      -9.286  -2.711 124.926  0.00  0.00    -0.000 C 
BRANCH  23  24
ATOM     24  C   LIG A   1      -8.768  -3.179 123.612  0.00  0.00    -0.000 C 
BRANCH  24  25
ATOM     25  C   LIG A   1      -8.370  -2.000 122.737  0.00  0.00    -0.000 C 
BRANCH  25  26
ATOM     26  C   LIG A   1      -6.911  -1.424 122.775  0.00  0.00    -0.000 C 
BRANCH  26  27
ATOM     27  C   LIG A   1      -6.083  -1.457 124.130  0.00  0.00    -0.000 C 
BRANCH  27  28
ATOM     28  C   LIG A   1      -5.255  -2.729 124.507  0.00  0.00    -0.000 C 
BRANCH  28  29
ATOM     29  C   LIG A   1      -4.726  -3.466 123.282  0.00  0.00    -0.003 C 
ATOM     30  C   LIG A   1      -4.190  -4.767 123.778  0.00  0.00    +0.004 C 
ENDBRANCH  28  29
ENDBRANCH  27  28
ENDBRANCH  26  27
ENDBRANCH  25  26
ENDBRANCH  24  25
ENDBRANCH  23  24
ENDBRANCH  22  23
ENDBRANCH  21  22
ENDBRANCH  20  21
ENDBRANCH  19  20
ENDBRANCH  18  19
ENDBRANCH  17  18
ENDBRANCH  16  17
ENDBRANCH   1  16
TORSDOF 19
ENDMDL
MODEL 5
REMARK VINA RESULT:      -5.9      3.399      6.395
REMARK  Name = NuBBE_1088
REMARK  21 active torsions:
REMARK  status: ('A' for Active; 'I' for Inactive)
REMARK    1  A    between atoms: C_2  and  C_3
REMARK    2  A    between atoms: C_2  and  O_14
REMARK    3  A    between atoms: C_4  and  C_5
REMARK    4  A    between atoms: C_8  and  O_12
REMARK    5  A    between atoms: C_10  and  O_11
REMARK    6  A    between atoms: O_12  and  C_13
REMARK    7  A    between atoms: O_14  and  C_15
REMARK    8  A    between atoms: C_15  and  C_16
REMARK    9  A    between atoms: C_16  and  C_17
REMARK   10  A    between atoms: C_17  and  C_18
REMARK   11  A    between atoms: C_18  and  C_19
REMARK   12  A    between atoms: C_19  and  C_20
REMARK   13  A    between atoms: C_20  and  C_21
REMARK   14  A    between atoms: C_21  and  C_22
REMARK   15  A    between atoms: C_22  and  C_23
REMARK   16  A    between atoms: C_23  and  C_24
REMARK   17  A    between atoms: C_24  and  C_25
REMARK   18  A    between atoms: C_25  and  C_26
REMARK   19  A    between atoms: C_26  and  C_27
REMARK   20  A    between atoms: C_27  and  C_28
REMARK   21  A    between atoms: C_28  and  C_29
REMARK                            x       y       z     vdW  Elec       q    Type
REMARK                         _______ _______ _______ _____ _____    ______ ____
ROOT
ATOM      1  O   LIG A   1      -4.622  -1.953 131.030  0.00  0.00    -0.462 OA
ENDROOT
BRANCH   1   3
ATOM      2  O   LIG A   1      -4.892   0.126 132.094  0.00  0.00    -0.246 OA
ATOM      3  C   LIG A   1      -4.763  -0.635 131.050  0.00  0.00    +0.332 C 
BRANCH   3   4
ATOM      4  C   LIG A   1      -4.811  -0.102 129.666  0.00  0.00    +0.092 C 
ATOM      5  C   LIG A   1      -5.459   1.016 129.310  0.00  0.00    +0.018 C 
BRANCH   5   6
ATOM      6  C   LIG A   1      -5.608   1.569 127.946  0.00  0.00    +0.017 A 
ATOM      7  C   LIG A   1      -6.868   1.456 127.334  0.00  0.00    +0.015 A 
ATOM      8  C   LIG A   1      -7.075   1.898 126.028  0.00  0.00    +0.046 A 
ATOM      9  C   LIG A   1      -6.040   2.473 125.292  0.00  0.00    +0.124 A 
ATOM     10  C   LIG A   1      -4.782   2.607 125.881  0.00  0.00    +0.091 A 
ATOM     11  C   LIG A   1      -4.577   2.160 127.193  0.00  0.00    +0.127 A 
BRANCH   9  12
ATOM     12  O   LIG A   1      -6.179   2.914 124.000  0.00  0.00    -0.495 OA
ATOM     13  C   LIG A   1      -5.675   4.235 123.782  0.00  0.00    +0.277 C 
ENDBRANCH   9  12
BRANCH  11  14
ATOM     14  O   LIG A   1      -3.329   2.298 127.740  0.00  0.00    -0.506 OA
ATOM     15  H   LIG A   1      -3.368   2.868 128.521  0.00  0.00    +0.292 HD
ENDBRANCH  11  14
ENDBRANCH   5   6
ENDBRANCH   3   4
ENDBRANCH   1   3
BRANCH   1  16
ATOM     16  C   LIG A   1      -5.116  -2.932 131.994  0.00  0.00    +0.232 C 
BRANCH  16  17
ATOM     17  C   LIG A   1      -6.260  -3.822 131.456  0.00  0.00    +0.041 C 
BRANCH  17  18
ATOM     18  C   LIG A   1      -6.554  -4.069 129.956  0.00  0.00    +0.003 C 
BRANCH  18  19
ATOM     19  C   LIG A   1      -7.515  -3.077 129.291  0.00  0.00    +0.000 C 
BRANCH  19  20
ATOM     20  C   LIG A   1      -6.991  -2.494 127.958  0.00  0.00    -0.000 C 
BRANCH  20  21
ATOM     21  C   LIG A   1      -8.089  -1.939 127.029  0.00  0.00    -0.000 C 
BRANCH  21  22
ATOM     22  C   LIG A   1      -9.017  -2.980 126.381  0.00  0.00    -0.000 C 
BRANCH  22  23
ATOM     23  C   LIG A   1      -8.501  -3.739 125.171  0.00  0.00    -0.000 C 
BRANCH  23  24
ATOM     24  C   LIG A   1      -9.261  -3.413 123.935  0.00  0.00    -0.000 C 
BRANCH  24  25
ATOM     25  C   LIG A   1      -8.959  -1.996 123.472  0.00  0.00    -0.000 C 
BRANCH  25  26
ATOM     26  C   LIG A   1      -7.535  -1.609 122.941  0.00  0.00    -0.000 C 
BRANCH  26  27
ATOM     27  C   LIG A   1      -6.403  -1.165 123.964  0.00  0.00    -0.000 C 
BRANCH  27  28
ATOM     28  C   LIG A   1      -5.259  -2.161 124.342  0.00  0.00    -0.000 C 
BRANCH  28  29
ATOM     29  C   LIG A   1      -4.980  -3.176 123.239  0.00  0.00    -0.003 C 
ATOM     30  C   LIG A   1      -4.328  -4.343 123.901  0.00  0.00    +0.004 C 
ENDBRANCH  28  29
ENDBRANCH  27  28
ENDBRANCH  26  27
ENDBRANCH  25  26
ENDBRANCH  24  25
ENDBRANCH  23  24
ENDBRANCH  22  23
ENDBRANCH  21  22
ENDBRANCH  20  21
ENDBRANCH  19  20
ENDBRANCH  18  19
ENDBRANCH  17  18
ENDBRANCH  16  17
ENDBRANCH   1  16
TORSDOF 19
ENDMDL
MODEL 6
REMARK VINA RESULT:      -5.8      6.264      8.385
REMARK  Name = NuBBE_1088
REMARK  21 active torsions:
REMARK  status: ('A' for Active; 'I' for Inactive)
REMARK    1  A    between atoms: C_2  and  C_3
REMARK    2  A    between atoms: C_2  and  O_14
REMARK    3  A    between atoms: C_4  and  C_5
REMARK    4  A    between atoms: C_8  and  O_12
REMARK    5  A    between atoms: C_10  and  O_11
REMARK    6  A    between atoms: O_12  and  C_13
REMARK    7  A    between atoms: O_14  and  C_15
REMARK    8  A    between atoms: C_15  and  C_16
REMARK    9  A    between atoms: C_16  and  C_17
REMARK   10  A    between atoms: C_17  and  C_18
REMARK   11  A    between atoms: C_18  and  C_19
REMARK   12  A    between atoms: C_19  and  C_20
REMARK   13  A    between atoms: C_20  and  C_21
REMARK   14  A    between atoms: C_21  and  C_22
REMARK   15  A    between atoms: C_22  and  C_23
REMARK   16  A    between atoms: C_23  and  C_24
REMARK   17  A    between atoms: C_24  and  C_25
REMARK   18  A    between atoms: C_25  and  C_26
REMARK   19  A    between atoms: C_26  and  C_27
REMARK   20  A    between atoms: C_27  and  C_28
REMARK   21  A    between atoms: C_28  and  C_29
REMARK                            x       y       z     vdW  Elec       q    Type
REMARK                         _______ _______ _______ _____ _____    ______ ____
ROOT
ATOM      1  O   LIG A   1      -8.416   2.627 132.207  0.00  0.00    -0.462 OA
ENDROOT
BRANCH   1   3
ATOM      2  O   LIG A   1      -6.948   4.458 132.339  0.00  0.00    -0.246 OA
ATOM      3  C   LIG A   1      -8.054   3.882 131.979  0.00  0.00    +0.332 C 
BRANCH   3   4
ATOM      4  C   LIG A   1      -9.138   4.609 131.273  0.00  0.00    +0.092 C 
ATOM      5  C   LIG A   1      -9.238   5.944 131.219  0.00  0.00    +0.018 C 
BRANCH   5   6
ATOM      6  C   LIG A   1     -10.322   6.735 130.595  0.00  0.00    +0.017 A 
ATOM      7  C   LIG A   1      -9.992   7.518 129.476  0.00  0.00    +0.015 A 
ATOM      8  C   LIG A   1     -10.941   8.338 128.867  0.00  0.00    +0.046 A 
ATOM      9  C   LIG A   1     -12.249   8.400 129.345  0.00  0.00    +0.124 A 
ATOM     10  C   LIG A   1     -12.605   7.623 130.448  0.00  0.00    +0.091 A 
ATOM     11  C   LIG A   1     -11.648   6.802 131.059  0.00  0.00    +0.127 A 
BRANCH   9  12
ATOM     12  O   LIG A   1     -13.223   9.197 128.797  0.00  0.00    -0.495 OA
ATOM     13  C   LIG A   1     -13.398  10.444 129.473  0.00  0.00    +0.277 C 
ENDBRANCH   9  12
BRANCH  11  14
ATOM     14  O   LIG A   1     -12.026   6.058 132.145  0.00  0.00    -0.506 OA
ATOM     15  H   LIG A   1     -11.612   5.184 132.112  0.00  0.00    +0.292 HD
ENDBRANCH  11  14
ENDBRANCH   5   6
ENDBRANCH   3   4
ENDBRANCH   1   3
BRANCH   1  16
ATOM     16  C   LIG A   1      -9.302   1.781 131.415  0.00  0.00    +0.232 C 
BRANCH  16  17
ATOM     17  C   LIG A   1      -9.087   0.265 131.633  0.00  0.00    +0.041 C 
BRANCH  17  18
ATOM     18  C   LIG A   1      -7.711  -0.444 131.596  0.00  0.00    +0.003 C 
BRANCH  18  19
ATOM     19  C   LIG A   1      -7.689  -1.888 132.109  0.00  0.00    +0.000 C 
BRANCH  19  20
ATOM     20  C   LIG A   1      -7.069  -2.897 131.115  0.00  0.00    -0.000 C 
BRANCH  20  21
ATOM     21  C   LIG A   1      -7.943  -3.198 129.882  0.00  0.00    -0.000 C 
BRANCH  21  22
ATOM     22  C   LIG A   1      -7.386  -2.731 128.527  0.00  0.00    -0.000 C 
BRANCH  22  23
ATOM     23  C   LIG A   1      -7.864  -1.396 127.983  0.00  0.00    -0.000 C 
BRANCH  23  24
ATOM     24  C   LIG A   1      -8.240  -1.475 126.546  0.00  0.00    -0.000 C 
BRANCH  24  25
ATOM     25  C   LIG A   1      -8.668  -2.886 126.176  0.00  0.00    -0.000 C 
BRANCH  25  26
ATOM     26  C   LIG A   1      -8.945  -3.279 124.682  0.00  0.00    -0.000 C 
BRANCH  26  27
ATOM     27  C   LIG A   1      -7.920  -2.846 123.548  0.00  0.00    -0.000 C 
BRANCH  27  28
ATOM     28  C   LIG A   1      -6.489  -2.351 123.938  0.00  0.00    -0.000 C 
BRANCH  28  29
ATOM     29  C   LIG A   1      -5.550  -3.498 124.292  0.00  0.00    -0.003 C 
ATOM     30  C   LIG A   1      -4.483  -3.500 123.250  0.00  0.00    +0.004 C 
ENDBRANCH  28  29
ENDBRANCH  27  28
ENDBRANCH  26  27
ENDBRANCH  25  26
ENDBRANCH  24  25
ENDBRANCH  23  24
ENDBRANCH  22  23
ENDBRANCH  21  22
ENDBRANCH  20  21
ENDBRANCH  19  20
ENDBRANCH  18  19
ENDBRANCH  17  18
ENDBRANCH  16  17
ENDBRANCH   1  16
TORSDOF 19
ENDMDL
MODEL 7
REMARK VINA RESULT:      -5.8      6.229      7.987
REMARK  Name = NuBBE_1088
REMARK  21 active torsions:
REMARK  status: ('A' for Active; 'I' for Inactive)
REMARK    1  A    between atoms: C_2  and  C_3
REMARK    2  A    between atoms: C_2  and  O_14
REMARK    3  A    between atoms: C_4  and  C_5
REMARK    4  A    between atoms: C_8  and  O_12
REMARK    5  A    between atoms: C_10  and  O_11
REMARK    6  A    between atoms: O_12  and  C_13
REMARK    7  A    between atoms: O_14  and  C_15
REMARK    8  A    between atoms: C_15  and  C_16
REMARK    9  A    between atoms: C_16  and  C_17
REMARK   10  A    between atoms: C_17  and  C_18
REMARK   11  A    between atoms: C_18  and  C_19
REMARK   12  A    between atoms: C_19  and  C_20
REMARK   13  A    between atoms: C_20  and  C_21
REMARK   14  A    between atoms: C_21  and  C_22
REMARK   15  A    between atoms: C_22  and  C_23
REMARK   16  A    between atoms: C_23  and  C_24
REMARK   17  A    between atoms: C_24  and  C_25
REMARK   18  A    between atoms: C_25  and  C_26
REMARK   19  A    between atoms: C_26  and  C_27
REMARK   20  A    between atoms: C_27  and  C_28
REMARK   21  A    between atoms: C_28  and  C_29
REMARK                            x       y       z     vdW  Elec       q    Type
REMARK                         _______ _______ _______ _____ _____    ______ ____
ROOT
ATOM      1  O   LIG A   1      -9.435   2.922 129.326  0.00  0.00    -0.462 OA
ENDROOT
BRANCH   1   3
ATOM      2  O   LIG A   1     -10.203   2.730 131.539  0.00  0.00    -0.246 OA
ATOM      3  C   LIG A   1      -9.966   3.391 130.447  0.00  0.00    +0.332 C 
BRANCH   3   4
ATOM      4  C   LIG A   1     -10.326   4.821 130.287  0.00  0.00    +0.092 C 
ATOM      5  C   LIG A   1     -11.556   5.260 129.986  0.00  0.00    +0.018 C 
BRANCH   5   6
ATOM      6  C   LIG A   1     -11.973   6.658 129.745  0.00  0.00    +0.017 A 
ATOM      7  C   LIG A   1     -12.458   7.389 130.842  0.00  0.00    +0.015 A 
ATOM      8  C   LIG A   1     -12.927   8.693 130.688  0.00  0.00    +0.046 A 
ATOM      9  C   LIG A   1     -12.921   9.315 129.440  0.00  0.00    +0.124 A 
ATOM     10  C   LIG A   1     -12.433   8.615 128.336  0.00  0.00    +0.091 A 
ATOM     11  C   LIG A   1     -11.965   7.303 128.494  0.00  0.00    +0.127 A 
BRANCH   9  12
ATOM     12  O   LIG A   1     -13.380  10.589 129.222  0.00  0.00    -0.495 OA
ATOM     13  C   LIG A   1     -13.545  11.357 130.418  0.00  0.00    +0.277 C 
ENDBRANCH   9  12
BRANCH  11  14
ATOM     14  O   LIG A   1     -11.500   6.640 127.391  0.00  0.00    -0.506 OA
ATOM     15  H   LIG A   1     -11.452   5.690 127.567  0.00  0.00    +0.292 HD
ENDBRANCH  11  14
ENDBRANCH   5   6
ENDBRANCH   3   4
ENDBRANCH   1   3
BRANCH   1  16
ATOM     16  C   LIG A   1      -8.099   3.159 128.788  0.00  0.00    +0.232 C 
BRANCH  16  17
ATOM     17  C   LIG A   1      -6.977   2.398 129.531  0.00  0.00    +0.041 C 
BRANCH  17  18
ATOM     18  C   LIG A   1      -5.851   1.592 128.838  0.00  0.00    +0.003 C 
BRANCH  18  19
ATOM     19  C   LIG A   1      -6.311   0.459 127.914  0.00  0.00    +0.000 C 
BRANCH  19  20
ATOM     20  C   LIG A   1      -5.918  -0.953 128.407  0.00  0.00    -0.000 C 
BRANCH  20  21
ATOM     21  C   LIG A   1      -6.567  -1.367 129.742  0.00  0.00    -0.000 C 
BRANCH  21  22
ATOM     22  C   LIG A   1      -7.868  -2.181 129.638  0.00  0.00    -0.000 C 
BRANCH  22  23
ATOM     23  C   LIG A   1      -7.797  -3.558 129.003  0.00  0.00    -0.000 C 
BRANCH  23  24
ATOM     24  C   LIG A   1      -8.923  -3.804 128.062  0.00  0.00    -0.000 C 
BRANCH  24  25
ATOM     25  C   LIG A   1      -8.490  -3.555 126.625  0.00  0.00    -0.000 C 
BRANCH  25  26
ATOM     26  C   LIG A   1      -9.530  -3.118 125.535  0.00  0.00    -0.000 C 
BRANCH  26  27
ATOM     27  C   LIG A   1      -9.044  -2.831 124.049  0.00  0.00    -0.000 C 
BRANCH  27  28
ATOM     28  C   LIG A   1      -7.521  -2.884 123.703  0.00  0.00    -0.000 C 
BRANCH  28  29
ATOM     29  C   LIG A   1      -6.803  -1.578 124.022  0.00  0.00    -0.003 C 
ATOM     30  C   LIG A   1      -5.567  -1.954 124.768  0.00  0.00    +0.004 C 
ENDBRANCH  28  29
ENDBRANCH  27  28
ENDBRANCH  26  27
ENDBRANCH  25  26
ENDBRANCH  24  25
ENDBRANCH  23  24
ENDBRANCH  22  23
ENDBRANCH  21  22
ENDBRANCH  20  21
ENDBRANCH  19  20
ENDBRANCH  18  19
ENDBRANCH  17  18
ENDBRANCH  16  17
ENDBRANCH   1  16
TORSDOF 19
ENDMDL
MODEL 8
REMARK VINA RESULT:      -5.8      6.116      8.607
REMARK  Name = NuBBE_1088
REMARK  21 active torsions:
REMARK  status: ('A' for Active; 'I' for Inactive)
REMARK    1  A    between atoms: C_2  and  C_3
REMARK    2  A    between atoms: C_2  and  O_14
REMARK    3  A    between atoms: C_4  and  C_5
REMARK    4  A    between atoms: C_8  and  O_12
REMARK    5  A    between atoms: C_10  and  O_11
REMARK    6  A    between atoms: O_12  and  C_13
REMARK    7  A    between atoms: O_14  and  C_15
REMARK    8  A    between atoms: C_15  and  C_16
REMARK    9  A    between atoms: C_16  and  C_17
REMARK   10  A    between atoms: C_17  and  C_18
REMARK   11  A    between atoms: C_18  and  C_19
REMARK   12  A    between atoms: C_19  and  C_20
REMARK   13  A    between atoms: C_20  and  C_21
REMARK   14  A    between atoms: C_21  and  C_22
REMARK   15  A    between atoms: C_22  and  C_23
REMARK   16  A    between atoms: C_23  and  C_24
REMARK   17  A    between atoms: C_24  and  C_25
REMARK   18  A    between atoms: C_25  and  C_26
REMARK   19  A    between atoms: C_26  and  C_27
REMARK   20  A    between atoms: C_27  and  C_28
REMARK   21  A    between atoms: C_28  and  C_29
REMARK                            x       y       z     vdW  Elec       q    Type
REMARK                         _______ _______ _______ _____ _____    ______ ____
ROOT
ATOM      1  O   LIG A   1      -8.897   2.923 129.419  0.00  0.00    -0.462 OA
ENDROOT
BRANCH   1   3
ATOM      2  O   LIG A   1      -7.027   4.190 130.068  0.00  0.00    -0.246 OA
ATOM      3  C   LIG A   1      -8.238   4.056 129.621  0.00  0.00    +0.332 C 
BRANCH   3   4
ATOM      4  C   LIG A   1      -9.107   5.219 129.312  0.00  0.00    +0.092 C 
ATOM      5  C   LIG A   1     -10.026   5.717 130.151  0.00  0.00    +0.018 C 
BRANCH   5   6
ATOM      6  C   LIG A   1     -10.970   6.824 129.888  0.00  0.00    +0.017 A 
ATOM      7  C   LIG A   1     -10.719   7.641 128.772  0.00  0.00    +0.015 A 
ATOM      8  C   LIG A   1     -11.527   8.741 128.489  0.00  0.00    +0.046 A 
ATOM      9  C   LIG A   1     -12.615   9.060 129.300  0.00  0.00    +0.124 A 
ATOM     10  C   LIG A   1     -12.893   8.259 130.408  0.00  0.00    +0.091 A 
ATOM     11  C   LIG A   1     -12.077   7.155 130.691  0.00  0.00    +0.127 A 
BRANCH   9  12
ATOM     12  O   LIG A   1     -13.438  10.136 129.081  0.00  0.00    -0.495 OA
ATOM     13  C   LIG A   1     -13.479  11.065 130.168  0.00  0.00    +0.277 C 
ENDBRANCH   9  12
BRANCH  11  14
ATOM     14  O   LIG A   1     -12.371   6.393 131.790  0.00  0.00    -0.506 OA
ATOM     15  H   LIG A   1     -12.229   6.905 132.599  0.00  0.00    +0.292 HD
ENDBRANCH  11  14
ENDBRANCH   5   6
ENDBRANCH   3   4
ENDBRANCH   1   3
BRANCH   1  16
ATOM     16  C   LIG A   1      -8.370   1.633 128.987  0.00  0.00    +0.232 C 
BRANCH  16  17
ATOM     17  C   LIG A   1      -8.327   1.452 127.452  0.00  0.00    +0.041 C 
BRANCH  17  18
ATOM     18  C   LIG A   1      -7.127   0.866 126.667  0.00  0.00    +0.003 C 
BRANCH  18  19
ATOM     19  C   LIG A   1      -6.797  -0.603 126.950  0.00  0.00    +0.000 C 
BRANCH  19  20
ATOM     20  C   LIG A   1      -7.970  -1.574 126.680  0.00  0.00    -0.000 C 
BRANCH  20  21
ATOM     21  C   LIG A   1      -7.939  -2.243 125.293  0.00  0.00    -0.000 C 
BRANCH  21  22
ATOM     22  C   LIG A   1      -8.906  -1.671 124.243  0.00  0.00    -0.000 C 
BRANCH  22  23
ATOM     23  C   LIG A   1      -8.436  -0.492 123.410  0.00  0.00    -0.000 C 
BRANCH  23  24
ATOM     24  C   LIG A   1      -9.366   0.667 123.497  0.00  0.00    -0.000 C 
BRANCH  24  25
ATOM     25  C   LIG A   1      -8.645   1.964 123.164  0.00  0.00    -0.000 C 
BRANCH  25  26
ATOM     26  C   LIG A   1      -7.085   2.001 123.003  0.00  0.00    -0.000 C 
BRANCH  26  27
ATOM     27  C   LIG A   1      -6.376   3.319 122.469  0.00  0.00    -0.000 C 
BRANCH  27  28
ATOM     28  C   LIG A   1      -5.608   3.293 121.108  0.00  0.00    -0.000 C 
BRANCH  28  29
ATOM     29  C   LIG A   1      -6.155   4.307 120.109  0.00  0.00    -0.003 C 
ATOM     30  C   LIG A   1      -7.628   4.079 120.048  0.00  0.00    +0.004 C 
ENDBRANCH  28  29
ENDBRANCH  27  28
ENDBRANCH  26  27
ENDBRANCH  25  26
ENDBRANCH  24  25
ENDBRANCH  23  24
ENDBRANCH  22  23
ENDBRANCH  21  22
ENDBRANCH  20  21
ENDBRANCH  19  20
ENDBRANCH  18  19
ENDBRANCH  17  18
ENDBRANCH  16  17
ENDBRANCH   1  16
TORSDOF 19
ENDMDL
MODEL 9
REMARK VINA RESULT:      -5.8      5.385      7.871
REMARK  Name = NuBBE_1088
REMARK  21 active torsions:
REMARK  status: ('A' for Active; 'I' for Inactive)
REMARK    1  A    between atoms: C_2  and  C_3
REMARK    2  A    between atoms: C_2  and  O_14
REMARK    3  A    between atoms: C_4  and  C_5
REMARK    4  A    between atoms: C_8  and  O_12
REMARK    5  A    between atoms: C_10  and  O_11
REMARK    6  A    between atoms: O_12  and  C_13
REMARK    7  A    between atoms: O_14  and  C_15
REMARK    8  A    between atoms: C_15  and  C_16
REMARK    9  A    between atoms: C_16  and  C_17
REMARK   10  A    between atoms: C_17  and  C_18
REMARK   11  A    between atoms: C_18  and  C_19
REMARK   12  A    between atoms: C_19  and  C_20
REMARK   13  A    between atoms: C_20  and  C_21
REMARK   14  A    between atoms: C_21  and  C_22
REMARK   15  A    between atoms: C_22  and  C_23
REMARK   16  A    between atoms: C_23  and  C_24
REMARK   17  A    between atoms: C_24  and  C_25
REMARK   18  A    between atoms: C_25  and  C_26
REMARK   19  A    between atoms: C_26  and  C_27
REMARK   20  A    between atoms: C_27  and  C_28
REMARK   21  A    between atoms: C_28  and  C_29
REMARK                            x       y       z     vdW  Elec       q    Type
REMARK                         _______ _______ _______ _____ _____    ______ ____
ROOT
ATOM      1  O   LIG A   1      -7.852   1.095 131.461  0.00  0.00    -0.462 OA
ENDROOT
BRANCH   1   3
ATOM      2  O   LIG A   1      -6.738   2.828 132.594  0.00  0.00    -0.246 OA
ATOM      3  C   LIG A   1      -7.646   2.363 131.790  0.00  0.00    +0.332 C 
BRANCH   3   4
ATOM      4  C   LIG A   1      -8.657   3.234 131.142  0.00  0.00    +0.092 C 
ATOM      5  C   LIG A   1      -8.630   4.573 131.173  0.00  0.00    +0.018 C 
BRANCH   5   6
ATOM      6  C   LIG A   1      -9.635   5.502 130.612  0.00  0.00    +0.017 A 
ATOM      7  C   LIG A   1     -10.932   5.006 130.402  0.00  0.00    +0.015 A 
ATOM      8  C   LIG A   1     -11.921   5.798 129.821  0.00  0.00    +0.046 A 
ATOM      9  C   LIG A   1     -11.655   7.112 129.438  0.00  0.00    +0.124 A 
ATOM     10  C   LIG A   1     -10.377   7.634 129.647  0.00  0.00    +0.091 A 
ATOM     11  C   LIG A   1      -9.385   6.833 130.229  0.00  0.00    +0.127 A 
BRANCH   9  12
ATOM     12  O   LIG A   1     -12.581   7.936 128.851  0.00  0.00    -0.495 OA
ATOM     13  C   LIG A   1     -13.096   7.439 127.613  0.00  0.00    +0.277 C 
ENDBRANCH   9  12
BRANCH  11  14
ATOM     14  O   LIG A   1      -8.139   7.370 130.412  0.00  0.00    -0.506 OA
ATOM     15  H   LIG A   1      -8.098   7.835 131.260  0.00  0.00    +0.292 HD
ENDBRANCH  11  14
ENDBRANCH   5   6
ENDBRANCH   3   4
ENDBRANCH   1   3
BRANCH   1  16
ATOM     16  C   LIG A   1      -8.088   0.530 130.136  0.00  0.00    +0.232 C 
BRANCH  16  17
ATOM     17  C   LIG A   1      -7.325  -0.788 129.869  0.00  0.00    +0.041 C 
BRANCH  17  18
ATOM     18  C   LIG A   1      -7.997  -2.166 129.648  0.00  0.00    +0.003 C 
BRANCH  18  19
ATOM     19  C   LIG A   1      -7.588  -2.912 128.373  0.00  0.00    +0.000 C 
BRANCH  19  20
ATOM     20  C   LIG A   1      -8.736  -3.718 127.722  0.00  0.00    -0.000 C 
BRANCH  20  21
ATOM     21  C   LIG A   1      -9.305  -3.093 126.433  0.00  0.00    -0.000 C 
BRANCH  21  22
ATOM     22  C   LIG A   1      -8.753  -3.650 125.110  0.00  0.00    -0.000 C 
BRANCH  22  23
ATOM     23  C   LIG A   1      -9.346  -3.127 123.814  0.00  0.00    -0.000 C 
BRANCH  23  24
ATOM     24  C   LIG A   1      -8.318  -2.514 122.931  0.00  0.00    -0.000 C 
BRANCH  24  25
ATOM     25  C   LIG A   1      -6.958  -2.499 123.613  0.00  0.00    -0.000 C 
BRANCH  25  26
ATOM     26  C   LIG A   1      -6.235  -1.145 123.937  0.00  0.00    -0.000 C 
BRANCH  26  27
ATOM     27  C   LIG A   1      -7.052   0.052 124.588  0.00  0.00    -0.000 C 
BRANCH  27  28
ATOM     28  C   LIG A   1      -7.314   0.070 126.128  0.00  0.00    -0.000 C 
BRANCH  28  29
ATOM     29  C   LIG A   1      -8.736   0.499 126.475  0.00  0.00    -0.003 C 
ATOM     30  C   LIG A   1      -9.506   0.459 125.197  0.00  0.00    +0.004 C 
ENDBRANCH  28  29
ENDBRANCH  27  28
ENDBRANCH  26  27
ENDBRANCH  25  26
ENDBRANCH  24  25
ENDBRANCH  23  24
ENDBRANCH  22  23
ENDBRANCH  21  22
ENDBRANCH  20  21
ENDBRANCH  19  20
ENDBRANCH  18  19
ENDBRANCH  17  18
ENDBRANCH  16  17
ENDBRANCH   1  16
TORSDOF 19
ENDMDL
