MODEL 1
REMARK VINA RESULT:      -7.2      0.000      0.000
REMARK  Name = NuBBE_2439
REMARK  7 active torsions:
REMARK  status: ('A' for Active; 'I' for Inactive)
REMARK    1  A    between atoms: O_1  and  C_2
REMARK    2  A    between atoms: C_6  and  C_10
REMARK    3  A    between atoms: C_7  and  O_8
REMARK    4  A    between atoms: O_8  and  C_9
REMARK    5  A    between atoms: C_10  and  C_11
REMARK    6  A    between atoms: C_12  and  C_13
REMARK    7  A    between atoms: C_12  and  C_14
REMARK                            x       y       z     vdW  Elec       q    Type
REMARK                         _______ _______ _______ _____ _____    ______ ____
ROOT
ATOM      1  C   LIG A   1     -10.704   4.990 130.400  0.00  0.00    +0.203 A 
ATOM      2  C   LIG A   1     -11.108   6.104 129.659  0.00  0.00    +0.184 A 
ATOM      3  C   LIG A   1     -10.347   7.265 129.604  0.00  0.00    +0.022 A 
ATOM      4  C   LIG A   1      -9.140   7.306 130.301  0.00  0.00    +0.019 A 
ATOM      5  C   LIG A   1      -8.704   6.196 131.058  0.00  0.00    +0.002 A 
ATOM      6  C   LIG A   1      -9.504   5.031 131.122  0.00  0.00    +0.169 A 
ATOM      7  C   LIG A   1     -10.839   8.394 128.831  0.00  0.00    +0.019 A 
ATOM      8  C   LIG A   1     -12.007   8.295 128.189  0.00  0.00    +0.092 A 
ATOM      9  C   LIG A   1     -12.825   7.070 128.217  0.00  0.00    +0.337 A 
ATOM     10  O   LIG A   1     -13.884   7.005 127.612  0.00  0.00    -0.245 OA
ATOM     11  O   LIG A   1     -12.332   6.005 128.960  0.00  0.00    -0.418 OA
ENDROOT
BRANCH   1  12
ATOM     12  O   LIG A   1     -11.498   3.875 130.371  0.00  0.00    -0.501 OA
ATOM     13  H   LIG A   1     -11.576   3.599 129.439  0.00  0.00    +0.292 HD
ENDBRANCH   1  12
BRANCH   6  14
ATOM     14  O   LIG A   1      -8.986   4.000 131.863  0.00  0.00    -0.491 OA
ATOM     15  C   LIG A   1      -8.336   2.957 131.145  0.00  0.00    +0.277 C 
ENDBRANCH   6  14
BRANCH   5  16
ATOM     16  C   LIG A   1      -7.392   6.309 131.814  0.00  0.00    +0.066 C 
BRANCH  16  17
ATOM     17  C   LIG A   1      -6.306   6.978 131.009  0.00  0.00    -0.023 C 
ATOM     18  C   LIG A   1      -4.985   7.048 131.270  0.00  0.00    -0.079 C 
ATOM     19  C   LIG A   1      -4.291   6.414 132.446  0.00  0.00    +0.038 C 
ATOM     20  C   LIG A   1      -4.060   7.817 130.360  0.00  0.00    +0.038 C 
ENDBRANCH  16  17
ENDBRANCH   5  16
TORSDOF 4
ENDMDL
MODEL 2
REMARK VINA RESULT:      -7.1      8.008      8.298
REMARK  Name = NuBBE_2439
REMARK  7 active torsions:
REMARK  status: ('A' for Active; 'I' for Inactive)
REMARK    1  A    between atoms: O_1  and  C_2
REMARK    2  A    between atoms: C_6  and  C_10
REMARK    3  A    between atoms: C_7  and  O_8
REMARK    4  A    between atoms: O_8  and  C_9
REMARK    5  A    between atoms: C_10  and  C_11
REMARK    6  A    between atoms: C_12  and  C_13
REMARK    7  A    between atoms: C_12  and  C_14
REMARK                            x       y       z     vdW  Elec       q    Type
REMARK                         _______ _______ _______ _____ _____    ______ ____
ROOT
ATOM      1  C   LIG A   1      -7.817   3.003 123.147  0.00  0.00    +0.203 A 
ATOM      2  C   LIG A   1      -7.001   3.585 122.175  0.00  0.00    +0.184 A 
ATOM      3  C   LIG A   1      -5.731   4.064 122.472  0.00  0.00    +0.022 A 
ATOM      4  C   LIG A   1      -5.262   3.945 123.780  0.00  0.00    +0.019 A 
ATOM      5  C   LIG A   1      -6.064   3.360 124.786  0.00  0.00    +0.002 A 
ATOM      6  C   LIG A   1      -7.364   2.900 124.469  0.00  0.00    +0.169 A 
ATOM      7  C   LIG A   1      -4.943   4.678 121.416  0.00  0.00    +0.019 A 
ATOM      8  C   LIG A   1      -5.451   4.768 120.182  0.00  0.00    +0.092 A 
ATOM      9  C   LIG A   1      -6.787   4.253 119.835  0.00  0.00    +0.337 A 
ATOM     10  O   LIG A   1      -7.220   4.340 118.697  0.00  0.00    -0.245 OA
ATOM     11  O   LIG A   1      -7.518   3.669 120.862  0.00  0.00    -0.418 OA
ENDROOT
BRANCH   1  12
ATOM     12  O   LIG A   1      -9.041   2.527 122.759  0.00  0.00    -0.501 OA
ATOM     13  H   LIG A   1      -9.688   3.245 122.892  0.00  0.00    +0.292 HD
ENDBRANCH   1  12
BRANCH   6  14
ATOM     14  O   LIG A   1      -8.057   2.329 125.506  0.00  0.00    -0.491 OA
ATOM     15  C   LIG A   1      -8.060   0.907 125.568  0.00  0.00    +0.277 C 
ENDBRANCH   6  14
BRANCH   5  16
ATOM     16  C   LIG A   1      -5.507   3.279 126.196  0.00  0.00    +0.066 C 
BRANCH  16  17
ATOM     17  C   LIG A   1      -4.056   2.871 126.231  0.00  0.00    -0.023 C 
ATOM     18  C   LIG A   1      -3.011   3.523 126.780  0.00  0.00    -0.079 C 
ATOM     19  C   LIG A   1      -3.088   4.824 127.532  0.00  0.00    +0.038 C 
ATOM     20  C   LIG A   1      -1.612   2.971 126.663  0.00  0.00    +0.038 C 
ENDBRANCH  16  17
ENDBRANCH   5  16
TORSDOF 4
ENDMDL
MODEL 3
REMARK VINA RESULT:      -7.1      8.066      9.564
REMARK  Name = NuBBE_2439
REMARK  7 active torsions:
REMARK  status: ('A' for Active; 'I' for Inactive)
REMARK    1  A    between atoms: O_1  and  C_2
REMARK    2  A    between atoms: C_6  and  C_10
REMARK    3  A    between atoms: C_7  and  O_8
REMARK    4  A    between atoms: O_8  and  C_9
REMARK    5  A    between atoms: C_10  and  C_11
REMARK    6  A    between atoms: C_12  and  C_13
REMARK    7  A    between atoms: C_12  and  C_14
REMARK                            x       y       z     vdW  Elec       q    Type
REMARK                         _______ _______ _______ _____ _____    ______ ____
ROOT
ATOM      1  C   LIG A   1      -9.121   1.148 125.592  0.00  0.00    +0.203 A 
ATOM      2  C   LIG A   1      -9.086  -0.170 125.131  0.00  0.00    +0.184 A 
ATOM      3  C   LIG A   1      -8.905  -0.474 123.788  0.00  0.00    +0.022 A 
ATOM      4  C   LIG A   1      -8.743   0.573 122.882  0.00  0.00    +0.019 A 
ATOM      5  C   LIG A   1      -8.773   1.917 123.317  0.00  0.00    +0.002 A 
ATOM      6  C   LIG A   1      -8.982   2.208 124.686  0.00  0.00    +0.169 A 
ATOM      7  C   LIG A   1      -8.900  -1.869 123.375  0.00  0.00    +0.019 A 
ATOM      8  C   LIG A   1      -9.066  -2.828 124.291  0.00  0.00    +0.092 A 
ATOM      9  C   LIG A   1      -9.243  -2.534 125.724  0.00  0.00    +0.337 A 
ATOM     10  O   LIG A   1      -9.382  -3.432 126.539  0.00  0.00    -0.245 OA
ATOM     11  O   LIG A   1      -9.241  -1.195 126.093  0.00  0.00    -0.418 OA
ENDROOT
BRANCH   1  12
ATOM     12  O   LIG A   1      -9.269   1.357 126.937  0.00  0.00    -0.501 OA
ATOM     13  H   LIG A   1     -10.126   0.970 127.198  0.00  0.00    +0.292 HD
ENDBRANCH   1  12
BRANCH   6  14
ATOM     14  O   LIG A   1      -8.974   3.539 125.014  0.00  0.00    -0.491 OA
ATOM     15  C   LIG A   1      -7.775   4.051 125.584  0.00  0.00    +0.277 C 
ENDBRANCH   6  14
BRANCH   5  16
ATOM     16  C   LIG A   1      -8.613   3.015 122.280  0.00  0.00    +0.066 C 
BRANCH  16  17
ATOM     17  C   LIG A   1      -7.170   3.334 121.982  0.00  0.00    -0.023 C 
ATOM     18  C   LIG A   1      -6.631   3.814 120.842  0.00  0.00    -0.079 C 
ATOM     19  C   LIG A   1      -7.397   4.178 119.599  0.00  0.00    +0.038 C 
ATOM     20  C   LIG A   1      -5.142   4.020 120.722  0.00  0.00    +0.038 C 
ENDBRANCH  16  17
ENDBRANCH   5  16
TORSDOF 4
ENDMDL
MODEL 4
REMARK VINA RESULT:      -7.0      8.918      9.771
REMARK  Name = NuBBE_2439
REMARK  7 active torsions:
REMARK  status: ('A' for Active; 'I' for Inactive)
REMARK    1  A    between atoms: O_1  and  C_2
REMARK    2  A    between atoms: C_6  and  C_10
REMARK    3  A    between atoms: C_7  and  O_8
REMARK    4  A    between atoms: O_8  and  C_9
REMARK    5  A    between atoms: C_10  and  C_11
REMARK    6  A    between atoms: C_12  and  C_13
REMARK    7  A    between atoms: C_12  and  C_14
REMARK                            x       y       z     vdW  Elec       q    Type
REMARK                         _______ _______ _______ _____ _____    ______ ____
ROOT
ATOM      1  C   LIG A   1      -8.495   3.257 121.349  0.00  0.00    +0.203 A 
ATOM      2  C   LIG A   1      -7.272   3.842 121.008  0.00  0.00    +0.184 A 
ATOM      3  C   LIG A   1      -6.180   3.812 121.866  0.00  0.00    +0.022 A 
ATOM      4  C   LIG A   1      -6.313   3.167 123.095  0.00  0.00    +0.019 A 
ATOM      5  C   LIG A   1      -7.536   2.565 123.467  0.00  0.00    +0.002 A 
ATOM      6  C   LIG A   1      -8.645   2.626 122.590  0.00  0.00    +0.169 A 
ATOM      7  C   LIG A   1      -4.944   4.460 121.457  0.00  0.00    +0.019 A 
ATOM      8  C   LIG A   1      -4.881   5.067 120.268  0.00  0.00    +0.092 A 
ATOM      9  C   LIG A   1      -6.019   5.099 119.332  0.00  0.00    +0.337 A 
ATOM     10  O   LIG A   1      -5.928   5.653 118.248  0.00  0.00    -0.245 OA
ATOM     11  O   LIG A   1      -7.186   4.471 119.745  0.00  0.00    -0.418 OA
ENDROOT
BRANCH   1  12
ATOM     12  O   LIG A   1      -9.509   3.303 120.429  0.00  0.00    -0.501 OA
ATOM     13  H   LIG A   1      -9.435   4.154 119.959  0.00  0.00    +0.292 HD
ENDBRANCH   1  12
BRANCH   6  14
ATOM     14  O   LIG A   1      -9.780   1.995 123.031  0.00  0.00    -0.491 OA
ATOM     15  C   LIG A   1     -10.044   0.704 122.495  0.00  0.00    +0.277 C 
ENDBRANCH   6  14
BRANCH   5  16
ATOM     16  C   LIG A   1      -7.626   1.897 124.828  0.00  0.00    +0.066 C 
BRANCH  16  17
ATOM     17  C   LIG A   1      -7.103   0.483 124.823  0.00  0.00    -0.023 C 
ATOM     18  C   LIG A   1      -6.005  -0.011 125.432  0.00  0.00    -0.079 C 
ATOM     19  C   LIG A   1      -5.062   0.773 126.305  0.00  0.00    +0.038 C 
ATOM     20  C   LIG A   1      -5.615  -1.458 125.261  0.00  0.00    +0.038 C 
ENDBRANCH  16  17
ENDBRANCH   5  16
TORSDOF 4
ENDMDL
MODEL 5
REMARK VINA RESULT:      -6.9      1.799      2.467
REMARK  Name = NuBBE_2439
REMARK  7 active torsions:
REMARK  status: ('A' for Active; 'I' for Inactive)
REMARK    1  A    between atoms: O_1  and  C_2
REMARK    2  A    between atoms: C_6  and  C_10
REMARK    3  A    between atoms: C_7  and  O_8
REMARK    4  A    between atoms: O_8  and  C_9
REMARK    5  A    between atoms: C_10  and  C_11
REMARK    6  A    between atoms: C_12  and  C_13
REMARK    7  A    between atoms: C_12  and  C_14
REMARK                            x       y       z     vdW  Elec       q    Type
REMARK                         _______ _______ _______ _____ _____    ______ ____
ROOT
ATOM      1  C   LIG A   1      -9.318   5.475 132.770  0.00  0.00    +0.203 A 
ATOM      2  C   LIG A   1      -9.967   6.193 131.763  0.00  0.00    +0.184 A 
ATOM      3  C   LIG A   1      -9.264   6.918 130.808  0.00  0.00    +0.022 A 
ATOM      4  C   LIG A   1      -7.871   6.912 130.858  0.00  0.00    +0.019 A 
ATOM      5  C   LIG A   1      -7.185   6.194 131.863  0.00  0.00    +0.002 A 
ATOM      6  C   LIG A   1      -7.919   5.481 132.841  0.00  0.00    +0.169 A 
ATOM      7  C   LIG A   1     -10.004   7.661 129.801  0.00  0.00    +0.019 A 
ATOM      8  C   LIG A   1     -11.340   7.631 129.810  0.00  0.00    +0.092 A 
ATOM      9  C   LIG A   1     -12.110   6.857 130.799  0.00  0.00    +0.337 A 
ATOM     10  O   LIG A   1     -13.331   6.842 130.776  0.00  0.00    -0.245 OA
ATOM     11  O   LIG A   1     -11.380   6.155 131.749  0.00  0.00    -0.418 OA
ENDROOT
BRANCH   1  12
ATOM     12  O   LIG A   1     -10.087   4.760 133.649  0.00  0.00    -0.501 OA
ATOM     13  H   LIG A   1     -10.184   5.301 134.455  0.00  0.00    +0.292 HD
ENDBRANCH   1  12
BRANCH   6  14
ATOM     14  O   LIG A   1      -7.165   4.799 133.762  0.00  0.00    -0.491 OA
ATOM     15  C   LIG A   1      -7.111   5.345 135.075  0.00  0.00    +0.277 C 
ENDBRANCH   6  14
BRANCH   5  16
ATOM     16  C   LIG A   1      -5.668   6.244 131.879  0.00  0.00    +0.066 C 
BRANCH  16  17
ATOM     17  C   LIG A   1      -5.090   6.905 130.653  0.00  0.00    -0.023 C 
ATOM     18  C   LIG A   1      -4.003   7.697 130.556  0.00  0.00    -0.079 C 
ATOM     19  C   LIG A   1      -3.086   8.066 131.690  0.00  0.00    +0.038 C 
ATOM     20  C   LIG A   1      -3.613   8.312 129.234  0.00  0.00    +0.038 C 
ENDBRANCH  16  17
ENDBRANCH   5  16
TORSDOF 4
ENDMDL
MODEL 6
REMARK VINA RESULT:      -6.7      8.562      9.691
REMARK  Name = NuBBE_2439
REMARK  7 active torsions:
REMARK  status: ('A' for Active; 'I' for Inactive)
REMARK    1  A    between atoms: O_1  and  C_2
REMARK    2  A    between atoms: C_6  and  C_10
REMARK    3  A    between atoms: C_7  and  O_8
REMARK    4  A    between atoms: O_8  and  C_9
REMARK    5  A    between atoms: C_10  and  C_11
REMARK    6  A    between atoms: C_12  and  C_13
REMARK    7  A    between atoms: C_12  and  C_14
REMARK                            x       y       z     vdW  Elec       q    Type
REMARK                         _______ _______ _______ _____ _____    ______ ____
ROOT
ATOM      1  C   LIG A   1      -5.801   3.693 124.513  0.00  0.00    +0.203 A 
ATOM      2  C   LIG A   1      -5.704   3.844 123.127  0.00  0.00    +0.184 A 
ATOM      3  C   LIG A   1      -6.222   2.902 122.248  0.00  0.00    +0.022 A 
ATOM      4  C   LIG A   1      -6.867   1.782 122.772  0.00  0.00    +0.019 A 
ATOM      5  C   LIG A   1      -6.982   1.601 124.168  0.00  0.00    +0.002 A 
ATOM      6  C   LIG A   1      -6.426   2.560 125.049  0.00  0.00    +0.169 A 
ATOM      7  C   LIG A   1      -6.067   3.113 120.817  0.00  0.00    +0.019 A 
ATOM      8  C   LIG A   1      -5.433   4.204 120.377  0.00  0.00    +0.092 A 
ATOM      9  C   LIG A   1      -4.890   5.227 121.287  0.00  0.00    +0.337 A 
ATOM     10  O   LIG A   1      -4.325   6.219 120.855  0.00  0.00    -0.245 OA
ATOM     11  O   LIG A   1      -5.053   5.004 122.648  0.00  0.00    -0.418 OA
ENDROOT
BRANCH   1  12
ATOM     12  O   LIG A   1      -5.293   4.686 125.307  0.00  0.00    -0.501 OA
ATOM     13  H   LIG A   1      -4.616   5.156 124.785  0.00  0.00    +0.292 HD
ENDBRANCH   1  12
BRANCH   6  14
ATOM     14  O   LIG A   1      -6.608   2.307 126.385  0.00  0.00    -0.491 OA
ATOM     15  C   LIG A   1      -7.655   3.019 127.035  0.00  0.00    +0.277 C 
ENDBRANCH   6  14
BRANCH   5  16
ATOM     16  C   LIG A   1      -7.675   0.351 124.679  0.00  0.00    +0.066 C 
BRANCH  16  17
ATOM     17  C   LIG A   1      -6.724  -0.799 124.899  0.00  0.00    -0.023 C 
ATOM     18  C   LIG A   1      -6.326  -1.743 124.021  0.00  0.00    -0.079 C 
ATOM     19  C   LIG A   1      -6.738  -1.822 122.576  0.00  0.00    +0.038 C 
ATOM     20  C   LIG A   1      -5.400  -2.853 124.451  0.00  0.00    +0.038 C 
ENDBRANCH  16  17
ENDBRANCH   5  16
TORSDOF 4
ENDMDL
MODEL 7
REMARK VINA RESULT:      -6.7      3.030      4.047
REMARK  Name = NuBBE_2439
REMARK  7 active torsions:
REMARK  status: ('A' for Active; 'I' for Inactive)
REMARK    1  A    between atoms: O_1  and  C_2
REMARK    2  A    between atoms: C_6  and  C_10
REMARK    3  A    between atoms: C_7  and  O_8
REMARK    4  A    between atoms: O_8  and  C_9
REMARK    5  A    between atoms: C_10  and  C_11
REMARK    6  A    between atoms: C_12  and  C_13
REMARK    7  A    between atoms: C_12  and  C_14
REMARK                            x       y       z     vdW  Elec       q    Type
REMARK                         _______ _______ _______ _____ _____    ______ ____
ROOT
ATOM      1  C   LIG A   1      -7.496   6.821 131.201  0.00  0.00    +0.203 A 
ATOM      2  C   LIG A   1      -8.822   6.990 130.793  0.00  0.00    +0.184 A 
ATOM      3  C   LIG A   1      -9.884   6.451 131.507  0.00  0.00    +0.022 A 
ATOM      4  C   LIG A   1      -9.611   5.730 132.669  0.00  0.00    +0.019 A 
ATOM      5  C   LIG A   1      -8.281   5.542 133.107  0.00  0.00    +0.002 A 
ATOM      6  C   LIG A   1      -7.210   6.079 132.354  0.00  0.00    +0.169 A 
ATOM      7  C   LIG A   1     -11.238   6.648 131.014  0.00  0.00    +0.019 A 
ATOM      8  C   LIG A   1     -11.435   7.344 129.890  0.00  0.00    +0.092 A 
ATOM      9  C   LIG A   1     -10.328   7.942 129.123  0.00  0.00    +0.337 A 
ATOM     10  O   LIG A   1     -10.540   8.581 128.105  0.00  0.00    -0.245 OA
ATOM     11  O   LIG A   1      -9.046   7.741 129.616  0.00  0.00    -0.418 OA
ENDROOT
BRANCH   1  12
ATOM     12  O   LIG A   1      -6.513   7.416 130.456  0.00  0.00    -0.501 OA
ATOM     13  H   LIG A   1      -6.837   7.472 129.538  0.00  0.00    +0.292 HD
ENDBRANCH   1  12
BRANCH   6  14
ATOM     14  O   LIG A   1      -5.958   5.862 132.871  0.00  0.00    -0.491 OA
ATOM     15  C   LIG A   1      -5.177   4.848 132.250  0.00  0.00    +0.277 C 
ENDBRANCH   6  14
BRANCH   5  16
ATOM     16  C   LIG A   1      -8.045   4.729 134.368  0.00  0.00    +0.066 C 
BRANCH  16  17
ATOM     17  C   LIG A   1      -7.960   5.582 135.609  0.00  0.00    -0.023 C 
ATOM     18  C   LIG A   1      -6.923   5.732 136.459  0.00  0.00    -0.079 C 
ATOM     19  C   LIG A   1      -5.574   5.082 136.315  0.00  0.00    +0.038 C 
ATOM     20  C   LIG A   1      -7.053   6.599 137.686  0.00  0.00    +0.038 C 
ENDBRANCH  16  17
ENDBRANCH   5  16
TORSDOF 4
ENDMDL
MODEL 8
REMARK VINA RESULT:      -6.6      1.711      2.329
REMARK  Name = NuBBE_2439
REMARK  7 active torsions:
REMARK  status: ('A' for Active; 'I' for Inactive)
REMARK    1  A    between atoms: O_1  and  C_2
REMARK    2  A    between atoms: C_6  and  C_10
REMARK    3  A    between atoms: C_7  and  O_8
REMARK    4  A    between atoms: O_8  and  C_9
REMARK    5  A    between atoms: C_10  and  C_11
REMARK    6  A    between atoms: C_12  and  C_13
REMARK    7  A    between atoms: C_12  and  C_14
REMARK                            x       y       z     vdW  Elec       q    Type
REMARK                         _______ _______ _______ _____ _____    ______ ____
ROOT
ATOM      1  C   LIG A   1     -10.642   4.477 130.524  0.00  0.00    +0.203 A 
ATOM      2  C   LIG A   1     -11.058   5.679 129.946  0.00  0.00    +0.184 A 
ATOM      3  C   LIG A   1     -10.312   6.845 130.059  0.00  0.00    +0.022 A 
ATOM      4  C   LIG A   1      -9.108   6.803 130.761  0.00  0.00    +0.019 A 
ATOM      5  C   LIG A   1      -8.660   5.602 131.357  0.00  0.00    +0.002 A 
ATOM      6  C   LIG A   1      -9.446   4.430 131.251  0.00  0.00    +0.169 A 
ATOM      7  C   LIG A   1     -10.815   8.066 129.450  0.00  0.00    +0.019 A 
ATOM      8  C   LIG A   1     -11.979   8.045 128.794  0.00  0.00    +0.092 A 
ATOM      9  C   LIG A   1     -12.782   6.818 128.644  0.00  0.00    +0.337 A 
ATOM     10  O   LIG A   1     -13.837   6.826 128.030  0.00  0.00    -0.245 OA
ATOM     11  O   LIG A   1     -12.278   5.665 129.233  0.00  0.00    -0.418 OA
ENDROOT
BRANCH   1  12
ATOM     12  O   LIG A   1     -11.421   3.368 130.334  0.00  0.00    -0.501 OA
ATOM     13  H   LIG A   1     -11.236   3.033 129.437  0.00  0.00    +0.292 HD
ENDBRANCH   1  12
BRANCH   6  14
ATOM     14  O   LIG A   1      -8.917   3.311 131.843  0.00  0.00    -0.491 OA
ATOM     15  C   LIG A   1      -9.550   2.858 133.034  0.00  0.00    +0.277 C 
ENDBRANCH   6  14
BRANCH   5  16
ATOM     16  C   LIG A   1      -7.352   5.624 132.128  0.00  0.00    +0.066 C 
BRANCH  16  17
ATOM     17  C   LIG A   1      -7.535   5.973 133.583  0.00  0.00    -0.023 C 
ATOM     18  C   LIG A   1      -7.177   5.262 134.672  0.00  0.00    -0.079 C 
ATOM     19  C   LIG A   1      -6.458   3.940 134.656  0.00  0.00    +0.038 C 
ATOM     20  C   LIG A   1      -7.498   5.762 136.059  0.00  0.00    +0.038 C 
ENDBRANCH  16  17
ENDBRANCH   5  16
TORSDOF 4
ENDMDL
MODEL 9
REMARK VINA RESULT:      -6.5      7.130      9.165
REMARK  Name = NuBBE_2439
REMARK  7 active torsions:
REMARK  status: ('A' for Active; 'I' for Inactive)
REMARK    1  A    between atoms: O_1  and  C_2
REMARK    2  A    between atoms: C_6  and  C_10
REMARK    3  A    between atoms: C_7  and  O_8
REMARK    4  A    between atoms: O_8  and  C_9
REMARK    5  A    between atoms: C_10  and  C_11
REMARK    6  A    between atoms: C_12  and  C_13
REMARK    7  A    between atoms: C_12  and  C_14
REMARK                            x       y       z     vdW  Elec       q    Type
REMARK                         _______ _______ _______ _____ _____    ______ ____
ROOT
ATOM      1  C   LIG A   1      -7.481   3.502 125.148  0.00  0.00    +0.203 A 
ATOM      2  C   LIG A   1      -6.257   3.591 125.815  0.00  0.00    +0.184 A 
ATOM      3  C   LIG A   1      -5.442   2.482 126.005  0.00  0.00    +0.022 A 
ATOM      4  C   LIG A   1      -5.861   1.251 125.502  0.00  0.00    +0.019 A 
ATOM      5  C   LIG A   1      -7.093   1.129 124.822  0.00  0.00    +0.002 A 
ATOM      6  C   LIG A   1      -7.921   2.265 124.659  0.00  0.00    +0.169 A 
ATOM      7  C   LIG A   1      -4.190   2.642 126.727  0.00  0.00    +0.019 A 
ATOM      8  C   LIG A   1      -3.846   3.848 127.191  0.00  0.00    +0.092 A 
ATOM      9  C   LIG A   1      -4.683   5.044 126.988  0.00  0.00    +0.337 A 
ATOM     10  O   LIG A   1      -4.338   6.134 127.415  0.00  0.00    -0.245 OA
ATOM     11  O   LIG A   1      -5.872   4.864 126.294  0.00  0.00    -0.418 OA
ENDROOT
BRANCH   1  12
ATOM     12  O   LIG A   1      -8.205   4.651 124.975  0.00  0.00    -0.501 OA
ATOM     13  H   LIG A   1      -7.701   5.222 124.365  0.00  0.00    +0.292 HD
ENDBRANCH   1  12
BRANCH   6  14
ATOM     14  O   LIG A   1      -9.086   2.051 123.968  0.00  0.00    -0.491 OA
ATOM     15  C   LIG A   1      -9.079   2.379 122.583  0.00  0.00    +0.277 C 
ENDBRANCH   6  14
BRANCH   5  16
ATOM     16  C   LIG A   1      -7.506  -0.242 124.316  0.00  0.00    +0.066 C 
BRANCH  16  17
ATOM     17  C   LIG A   1      -6.330  -1.096 123.912  0.00  0.00    -0.023 C 
ATOM     18  C   LIG A   1      -6.219  -2.441 123.934  0.00  0.00    -0.079 C 
ATOM     19  C   LIG A   1      -7.301  -3.401 124.347  0.00  0.00    +0.038 C 
ATOM     20  C   LIG A   1      -4.928  -3.113 123.537  0.00  0.00    +0.038 C 
ENDBRANCH  16  17
ENDBRANCH   5  16
TORSDOF 4
ENDMDL
