MODEL 1
REMARK VINA RESULT:      -7.1      0.000      0.000
REMARK  Name = NuBBE_151
REMARK  6 active torsions:
REMARK  status: ('A' for Active; 'I' for Inactive)
REMARK    1  A    between atoms: C_2  and  O_3
REMARK    2  A    between atoms: C_2  and  C_5
REMARK    3  A    between atoms: O_3  and  C_4
REMARK    4  A    between atoms: C_7  and  O_8
REMARK    5  A    between atoms: C_11  and  C_12
REMARK    6  A    between atoms: C_11  and  C_13
REMARK                            x       y       z     vdW  Elec       q    Type
REMARK                         _______ _______ _______ _____ _____    ______ ____
ROOT
ATOM      1  C   LIG A   1      -8.856   6.558 131.417  0.00  0.00    +0.063 A 
ATOM      2  C   LIG A   1     -10.039   6.228 132.089  0.00  0.00    +0.064 A 
ATOM      3  C   LIG A   1     -11.268   6.558 131.514  0.00  0.00    +0.160 A 
ATOM      4  C   LIG A   1     -11.331   7.214 130.277  0.00  0.00    +0.170 A 
ATOM      5  O   LIG A   1     -12.572   7.490 129.774  0.00  0.00    -0.478 OA
ATOM      6  C   LIG A   1     -12.690   8.172 128.512  0.00  0.00    +0.124 C 
ATOM      7  C   LIG A   1     -13.515   7.255 127.602  0.00  0.00    +0.060 C 
ATOM      8  C   LIG A   1     -13.467   9.463 128.795  0.00  0.00    +0.060 C 
ATOM      9  C   LIG A   1     -11.391   8.517 127.820  0.00  0.00    +0.020 C 
ATOM     10  C   LIG A   1     -10.192   8.229 128.330  0.00  0.00    +0.011 C 
ATOM     11  C   LIG A   1     -10.151   7.549 129.613  0.00  0.00    +0.021 A 
ATOM     12  C   LIG A   1      -8.919   7.222 130.184  0.00  0.00    +0.026 A 
ENDROOT
BRANCH   1  14
ATOM     13  O   LIG A   1      -7.425   5.438 132.978  0.00  0.00    -0.245 OA
ATOM     14  C   LIG A   1      -7.549   6.185 132.026  0.00  0.00    +0.339 C 
BRANCH  14  15
ATOM     15  O   LIG A   1      -6.548   6.797 131.345  0.00  0.00    -0.464 OA
ATOM     16  C   LIG A   1      -5.228   6.525 131.810  0.00  0.00    +0.280 C 
ENDBRANCH  14  15
ENDBRANCH   1  14
BRANCH   3  17
ATOM     17  O   LIG A   1     -12.435   6.238 132.155  0.00  0.00    -0.503 OA
ATOM     18  H   LIG A   1     -12.460   5.285 132.332  0.00  0.00    +0.292 HD
ENDBRANCH   3  17
TORSDOF 3
ENDMDL
MODEL 2
REMARK VINA RESULT:      -6.9      2.345      5.842
REMARK  Name = NuBBE_151
REMARK  6 active torsions:
REMARK  status: ('A' for Active; 'I' for Inactive)
REMARK    1  A    between atoms: C_2  and  O_3
REMARK    2  A    between atoms: C_2  and  C_5
REMARK    3  A    between atoms: O_3  and  C_4
REMARK    4  A    between atoms: C_7  and  O_8
REMARK    5  A    between atoms: C_11  and  C_12
REMARK    6  A    between atoms: C_11  and  C_13
REMARK                            x       y       z     vdW  Elec       q    Type
REMARK                         _______ _______ _______ _____ _____    ______ ____
ROOT
ATOM      1  C   LIG A   1     -12.242   8.651 129.224  0.00  0.00    +0.063 A 
ATOM      2  C   LIG A   1     -11.572   8.279 128.052  0.00  0.00    +0.064 A 
ATOM      3  C   LIG A   1     -10.683   7.203 128.085  0.00  0.00    +0.160 A 
ATOM      4  C   LIG A   1     -10.453   6.494 129.271  0.00  0.00    +0.170 A 
ATOM      5  O   LIG A   1      -9.578   5.444 129.217  0.00  0.00    -0.478 OA
ATOM      6  C   LIG A   1      -9.299   4.691 130.412  0.00  0.00    +0.124 C 
ATOM      7  C   LIG A   1      -9.661   3.236 130.098  0.00  0.00    +0.060 C 
ATOM      8  C   LIG A   1      -7.791   4.814 130.653  0.00  0.00    +0.060 C 
ATOM      9  C   LIG A   1     -10.036   5.127 131.658  0.00  0.00    +0.020 C 
ATOM     10  C   LIG A   1     -10.891   6.152 131.681  0.00  0.00    +0.011 C 
ATOM     11  C   LIG A   1     -11.115   6.871 130.440  0.00  0.00    +0.021 A 
ATOM     12  C   LIG A   1     -12.005   7.947 130.414  0.00  0.00    +0.026 A 
ENDROOT
BRANCH   1  14
ATOM     13  O   LIG A   1     -13.887  10.068 128.212  0.00  0.00    -0.245 OA
ATOM     14  C   LIG A   1     -13.204   9.786 129.179  0.00  0.00    +0.339 C 
BRANCH  14  15
ATOM     15  O   LIG A   1     -13.197  10.426 130.375  0.00  0.00    -0.464 OA
ATOM     16  C   LIG A   1     -13.591  11.796 130.345  0.00  0.00    +0.280 C 
ENDBRANCH  14  15
ENDBRANCH   1  14
BRANCH   3  17
ATOM     17  O   LIG A   1     -10.023   6.822 126.946  0.00  0.00    -0.503 OA
ATOM     18  H   LIG A   1      -9.261   6.270 127.180  0.00  0.00    +0.292 HD
ENDBRANCH   3  17
TORSDOF 3
ENDMDL
MODEL 3
REMARK VINA RESULT:      -6.7      9.801     10.668
REMARK  Name = NuBBE_151
REMARK  6 active torsions:
REMARK  status: ('A' for Active; 'I' for Inactive)
REMARK    1  A    between atoms: C_2  and  O_3
REMARK    2  A    between atoms: C_2  and  C_5
REMARK    3  A    between atoms: O_3  and  C_4
REMARK    4  A    between atoms: C_7  and  O_8
REMARK    5  A    between atoms: C_11  and  C_12
REMARK    6  A    between atoms: C_11  and  C_13
REMARK                            x       y       z     vdW  Elec       q    Type
REMARK                         _______ _______ _______ _____ _____    ______ ____
ROOT
ATOM      1  C   LIG A   1      -7.448   2.314 123.144  0.00  0.00    +0.063 A 
ATOM      2  C   LIG A   1      -8.830   2.384 123.356  0.00  0.00    +0.064 A 
ATOM      3  C   LIG A   1      -9.526   1.229 123.721  0.00  0.00    +0.160 A 
ATOM      4  C   LIG A   1      -8.860   0.006 123.876  0.00  0.00    +0.170 A 
ATOM      5  O   LIG A   1      -9.610  -1.075 124.248  0.00  0.00    -0.478 OA
ATOM      6  C   LIG A   1      -8.975  -2.357 124.410  0.00  0.00    +0.124 C 
ATOM      7  C   LIG A   1      -9.259  -2.800 125.849  0.00  0.00    +0.060 C 
ATOM      8  C   LIG A   1      -9.669  -3.305 123.425  0.00  0.00    +0.060 C 
ATOM      9  C   LIG A   1      -7.483  -2.394 124.165  0.00  0.00    +0.020 C 
ATOM     10  C   LIG A   1      -6.774  -1.321 123.809  0.00  0.00    +0.011 C 
ATOM     11  C   LIG A   1      -7.485  -0.064 123.655  0.00  0.00    +0.021 A 
ATOM     12  C   LIG A   1      -6.783   1.088 123.290  0.00  0.00    +0.026 A 
ENDROOT
BRANCH   1  14
ATOM     13  O   LIG A   1      -6.084   4.238 123.561  0.00  0.00    -0.245 OA
ATOM     14  C   LIG A   1      -6.709   3.552 122.774  0.00  0.00    +0.339 C 
BRANCH  14  15
ATOM     15  O   LIG A   1      -6.839   3.770 121.441  0.00  0.00    -0.464 OA
ATOM     16  C   LIG A   1      -5.628   3.750 120.691  0.00  0.00    +0.280 C 
ENDBRANCH  14  15
ENDBRANCH   1  14
BRANCH   3  17
ATOM     17  O   LIG A   1     -10.877   1.281 123.938  0.00  0.00    -0.503 OA
ATOM     18  H   LIG A   1     -11.231   2.119 123.601  0.00  0.00    +0.292 HD
ENDBRANCH   3  17
TORSDOF 3
ENDMDL
MODEL 4
REMARK VINA RESULT:      -6.4      2.019      5.640
REMARK  Name = NuBBE_151
REMARK  6 active torsions:
REMARK  status: ('A' for Active; 'I' for Inactive)
REMARK    1  A    between atoms: C_2  and  O_3
REMARK    2  A    between atoms: C_2  and  C_5
REMARK    3  A    between atoms: O_3  and  C_4
REMARK    4  A    between atoms: C_7  and  O_8
REMARK    5  A    between atoms: C_11  and  C_12
REMARK    6  A    between atoms: C_11  and  C_13
REMARK                            x       y       z     vdW  Elec       q    Type
REMARK                         _______ _______ _______ _____ _____    ______ ____
ROOT
ATOM      1  C   LIG A   1     -10.717   7.187 129.549  0.00  0.00    +0.063 A 
ATOM      2  C   LIG A   1     -11.405   5.969 129.594  0.00  0.00    +0.064 A 
ATOM      3  C   LIG A   1     -10.885   4.916 130.351  0.00  0.00    +0.160 A 
ATOM      4  C   LIG A   1      -9.687   5.065 131.062  0.00  0.00    +0.170 A 
ATOM      5  O   LIG A   1      -9.252   3.993 131.790  0.00  0.00    -0.478 OA
ATOM      6  C   LIG A   1      -8.020   4.091 132.530  0.00  0.00    +0.124 C 
ATOM      7  C   LIG A   1      -8.371   3.796 133.992  0.00  0.00    +0.060 C 
ATOM      8  C   LIG A   1      -7.103   2.992 131.981  0.00  0.00    +0.060 C 
ATOM      9  C   LIG A   1      -7.303   5.419 132.451  0.00  0.00    +0.020 C 
ATOM     10  C   LIG A   1      -7.755   6.453 131.738  0.00  0.00    +0.011 C 
ATOM     11  C   LIG A   1      -8.999   6.277 131.009  0.00  0.00    +0.021 A 
ATOM     12  C   LIG A   1      -9.514   7.333 130.253  0.00  0.00    +0.026 A 
ENDROOT
BRANCH   1  14
ATOM     13  O   LIG A   1     -12.252   8.970 129.097  0.00  0.00    -0.245 OA
ATOM     14  C   LIG A   1     -11.287   8.312 128.757  0.00  0.00    +0.339 C 
BRANCH  14  15
ATOM     15  O   LIG A   1     -10.555   8.478 127.627  0.00  0.00    -0.464 OA
ATOM     16  C   LIG A   1     -10.981   7.720 126.497  0.00  0.00    +0.280 C 
ENDBRANCH  14  15
ENDBRANCH   1  14
BRANCH   3  17
ATOM     17  O   LIG A   1     -11.548   3.720 130.411  0.00  0.00    -0.503 OA
ATOM     18  H   LIG A   1     -12.194   3.668 129.689  0.00  0.00    +0.292 HD
ENDBRANCH   3  17
TORSDOF 3
ENDMDL
MODEL 5
REMARK VINA RESULT:      -6.3      1.686      6.056
REMARK  Name = NuBBE_151
REMARK  6 active torsions:
REMARK  status: ('A' for Active; 'I' for Inactive)
REMARK    1  A    between atoms: C_2  and  O_3
REMARK    2  A    between atoms: C_2  and  C_5
REMARK    3  A    between atoms: O_3  and  C_4
REMARK    4  A    between atoms: C_7  and  O_8
REMARK    5  A    between atoms: C_11  and  C_12
REMARK    6  A    between atoms: C_11  and  C_13
REMARK                            x       y       z     vdW  Elec       q    Type
REMARK                         _______ _______ _______ _____ _____    ______ ____
ROOT
ATOM      1  C   LIG A   1      -9.786   7.004 130.581  0.00  0.00    +0.063 A 
ATOM      2  C   LIG A   1     -10.333   6.215 131.600  0.00  0.00    +0.064 A 
ATOM      3  C   LIG A   1      -9.484   5.620 132.536  0.00  0.00    +0.160 A 
ATOM      4  C   LIG A   1      -8.097   5.802 132.467  0.00  0.00    +0.170 A 
ATOM      5  O   LIG A   1      -7.335   5.199 133.429  0.00  0.00    -0.478 OA
ATOM      6  C   LIG A   1      -5.904   5.346 133.397  0.00  0.00    +0.124 C 
ATOM      7  C   LIG A   1      -5.503   5.960 134.742  0.00  0.00    +0.060 C 
ATOM      8  C   LIG A   1      -5.330   3.929 133.278  0.00  0.00    +0.060 C 
ATOM      9  C   LIG A   1      -5.350   6.199 132.278  0.00  0.00    +0.020 C 
ATOM     10  C   LIG A   1      -6.117   6.784 131.356  0.00  0.00    +0.011 C 
ATOM     11  C   LIG A   1      -7.553   6.582 131.447  0.00  0.00    +0.021 A 
ATOM     12  C   LIG A   1      -8.397   7.179 130.507  0.00  0.00    +0.026 A 
ENDROOT
BRANCH   1  14
ATOM     13  O   LIG A   1     -11.827   8.025 129.853  0.00  0.00    -0.245 OA
ATOM     14  C   LIG A   1     -10.698   7.651 129.598  0.00  0.00    +0.339 C 
BRANCH  14  15
ATOM     15  O   LIG A   1     -10.062   7.761 128.404  0.00  0.00    -0.464 OA
ATOM     16  C   LIG A   1     -10.887   8.107 127.294  0.00  0.00    +0.280 C 
ENDBRANCH  14  15
ENDBRANCH   1  14
BRANCH   3  17
ATOM     17  O   LIG A   1     -10.003   4.850 133.542  0.00  0.00    -0.503 OA
ATOM     18  H   LIG A   1     -10.967   4.794 133.447  0.00  0.00    +0.292 HD
ENDBRANCH   3  17
TORSDOF 3
ENDMDL
MODEL 6
REMARK VINA RESULT:      -6.2      1.736      2.651
REMARK  Name = NuBBE_151
REMARK  6 active torsions:
REMARK  status: ('A' for Active; 'I' for Inactive)
REMARK    1  A    between atoms: C_2  and  O_3
REMARK    2  A    between atoms: C_2  and  C_5
REMARK    3  A    between atoms: O_3  and  C_4
REMARK    4  A    between atoms: C_7  and  O_8
REMARK    5  A    between atoms: C_11  and  C_12
REMARK    6  A    between atoms: C_11  and  C_13
REMARK                            x       y       z     vdW  Elec       q    Type
REMARK                         _______ _______ _______ _____ _____    ______ ____
ROOT
ATOM      1  C   LIG A   1      -9.233   5.277 132.103  0.00  0.00    +0.063 A 
ATOM      2  C   LIG A   1      -8.771   5.121 130.790  0.00  0.00    +0.064 A 
ATOM      3  C   LIG A   1      -9.513   5.658 129.736  0.00  0.00    +0.160 A 
ATOM      4  C   LIG A   1     -10.708   6.348 129.975  0.00  0.00    +0.170 A 
ATOM      5  O   LIG A   1     -11.368   6.857 128.890  0.00  0.00    -0.478 OA
ATOM      6  C   LIG A   1     -12.607   7.565 129.082  0.00  0.00    +0.124 C 
ATOM      7  C   LIG A   1     -12.404   8.959 128.479  0.00  0.00    +0.060 C 
ATOM      8  C   LIG A   1     -13.666   6.799 128.280  0.00  0.00    +0.060 C 
ATOM      9  C   LIG A   1     -13.076   7.706 130.512  0.00  0.00    +0.020 C 
ATOM     10  C   LIG A   1     -12.408   7.206 131.554  0.00  0.00    +0.011 C 
ATOM     11  C   LIG A   1     -11.171   6.495 131.282  0.00  0.00    +0.021 A 
ATOM     12  C   LIG A   1     -10.434   5.959 132.341  0.00  0.00    +0.026 A 
ENDROOT
BRANCH   1  14
ATOM     13  O   LIG A   1      -8.450   3.553 133.570  0.00  0.00    -0.245 OA
ATOM     14  C   LIG A   1      -8.428   4.718 133.224  0.00  0.00    +0.339 C 
BRANCH  14  15
ATOM     15  O   LIG A   1      -7.676   5.707 133.769  0.00  0.00    -0.464 OA
ATOM     16  C   LIG A   1      -6.271   5.607 133.550  0.00  0.00    +0.280 C 
ENDBRANCH  14  15
ENDBRANCH   1  14
BRANCH   3  17
ATOM     17  O   LIG A   1      -9.073   5.520 128.446  0.00  0.00    -0.503 OA
ATOM     18  H   LIG A   1      -9.489   6.193 127.885  0.00  0.00    +0.292 HD
ENDBRANCH   3  17
TORSDOF 3
ENDMDL
MODEL 7
REMARK VINA RESULT:      -6.1     10.411     12.037
REMARK  Name = NuBBE_151
REMARK  6 active torsions:
REMARK  status: ('A' for Active; 'I' for Inactive)
REMARK    1  A    between atoms: C_2  and  O_3
REMARK    2  A    between atoms: C_2  and  C_5
REMARK    3  A    between atoms: O_3  and  C_4
REMARK    4  A    between atoms: C_7  and  O_8
REMARK    5  A    between atoms: C_11  and  C_12
REMARK    6  A    between atoms: C_11  and  C_13
REMARK                            x       y       z     vdW  Elec       q    Type
REMARK                         _______ _______ _______ _____ _____    ______ ____
ROOT
ATOM      1  C   LIG A   1      -8.420  -2.463 124.822  0.00  0.00    +0.063 A 
ATOM      2  C   LIG A   1      -7.200  -1.776 124.845  0.00  0.00    +0.064 A 
ATOM      3  C   LIG A   1      -6.482  -1.695 126.040  0.00  0.00    +0.160 A 
ATOM      4  C   LIG A   1      -6.966  -2.291 127.212  0.00  0.00    +0.170 A 
ATOM      5  O   LIG A   1      -6.197  -2.180 128.337  0.00  0.00    -0.478 OA
ATOM      6  C   LIG A   1      -6.655  -2.766 129.570  0.00  0.00    +0.124 C 
ATOM      7  C   LIG A   1      -5.564  -3.746 130.013  0.00  0.00    +0.060 C 
ATOM      8  C   LIG A   1      -6.763  -1.615 130.576  0.00  0.00    +0.060 C 
ATOM      9  C   LIG A   1      -7.979  -3.493 129.507  0.00  0.00    +0.020 C 
ATOM     10  C   LIG A   1      -8.706  -3.594 128.392  0.00  0.00    +0.011 C 
ATOM     11  C   LIG A   1      -8.185  -2.969 127.189  0.00  0.00    +0.021 A 
ATOM     12  C   LIG A   1      -8.908  -3.052 125.997  0.00  0.00    +0.026 A 
ENDROOT
BRANCH   1  14
ATOM     13  O   LIG A   1      -9.987  -3.429 123.290  0.00  0.00    -0.245 OA
ATOM     14  C   LIG A   1      -9.171  -2.563 123.540  0.00  0.00    +0.339 C 
BRANCH  14  15
ATOM     15  O   LIG A   1      -8.806  -1.538 122.728  0.00  0.00    -0.464 OA
ATOM     16  C   LIG A   1      -9.772  -0.503 122.569  0.00  0.00    +0.280 C 
ENDBRANCH  14  15
ENDBRANCH   1  14
BRANCH   3  17
ATOM     17  O   LIG A   1      -5.285  -1.031 126.079  0.00  0.00    -0.503 OA
ATOM     18  H   LIG A   1      -4.762  -1.254 125.293  0.00  0.00    +0.292 HD
ENDBRANCH   3  17
TORSDOF 3
ENDMDL
MODEL 8
REMARK VINA RESULT:      -5.9      2.348      5.757
REMARK  Name = NuBBE_151
REMARK  6 active torsions:
REMARK  status: ('A' for Active; 'I' for Inactive)
REMARK    1  A    between atoms: C_2  and  O_3
REMARK    2  A    between atoms: C_2  and  C_5
REMARK    3  A    between atoms: O_3  and  C_4
REMARK    4  A    between atoms: C_7  and  O_8
REMARK    5  A    between atoms: C_11  and  C_12
REMARK    6  A    between atoms: C_11  and  C_13
REMARK                            x       y       z     vdW  Elec       q    Type
REMARK                         _______ _______ _______ _____ _____    ______ ____
ROOT
ATOM      1  C   LIG A   1     -10.763   7.178 129.490  0.00  0.00    +0.063 A 
ATOM      2  C   LIG A   1      -9.515   7.558 129.998  0.00  0.00    +0.064 A 
ATOM      3  C   LIG A   1      -8.744   6.622 130.690  0.00  0.00    +0.160 A 
ATOM      4  C   LIG A   1      -9.203   5.312 130.882  0.00  0.00    +0.170 A 
ATOM      5  O   LIG A   1      -8.382   4.451 131.557  0.00  0.00    -0.478 OA
ATOM      6  C   LIG A   1      -8.813   3.098 131.791  0.00  0.00    +0.124 C 
ATOM      7  C   LIG A   1      -7.748   2.193 131.163  0.00  0.00    +0.060 C 
ATOM      8  C   LIG A   1      -8.827   2.909 133.312  0.00  0.00    +0.060 C 
ATOM      9  C   LIG A   1     -10.168   2.727 131.234  0.00  0.00    +0.020 C 
ATOM     10  C   LIG A   1     -10.946   3.586 130.571  0.00  0.00    +0.011 C 
ATOM     11  C   LIG A   1     -10.450   4.938 130.383  0.00  0.00    +0.021 A 
ATOM     12  C   LIG A   1     -11.226   5.870 129.690  0.00  0.00    +0.026 A 
ENDROOT
BRANCH   1  14
ATOM     13  O   LIG A   1     -12.673   8.564 129.077  0.00  0.00    -0.245 OA
ATOM     14  C   LIG A   1     -11.572   8.175 128.736  0.00  0.00    +0.339 C 
BRANCH  14  15
ATOM     15  O   LIG A   1     -10.880   8.574 127.640  0.00  0.00    -0.464 OA
ATOM     16  C   LIG A   1     -10.958   7.707 126.511  0.00  0.00    +0.280 C 
ENDBRANCH  14  15
ENDBRANCH   1  14
BRANCH   3  17
ATOM     17  O   LIG A   1      -7.518   6.975 131.188  0.00  0.00    -0.503 OA
ATOM     18  H   LIG A   1      -7.429   7.941 131.182  0.00  0.00    +0.292 HD
ENDBRANCH   3  17
TORSDOF 3
ENDMDL
MODEL 9
REMARK VINA RESULT:      -5.9      1.816      6.369
REMARK  Name = NuBBE_151
REMARK  6 active torsions:
REMARK  status: ('A' for Active; 'I' for Inactive)
REMARK    1  A    between atoms: C_2  and  O_3
REMARK    2  A    between atoms: C_2  and  C_5
REMARK    3  A    between atoms: O_3  and  C_4
REMARK    4  A    between atoms: C_7  and  O_8
REMARK    5  A    between atoms: C_11  and  C_12
REMARK    6  A    between atoms: C_11  and  C_13
REMARK                            x       y       z     vdW  Elec       q    Type
REMARK                         _______ _______ _______ _____ _____    ______ ____
ROOT
ATOM      1  C   LIG A   1     -10.332   6.502 130.663  0.00  0.00    +0.063 A 
ATOM      2  C   LIG A   1      -9.121   7.116 130.324  0.00  0.00    +0.064 A 
ATOM      3  C   LIG A   1      -7.981   6.849 131.086  0.00  0.00    +0.160 A 
ATOM      4  C   LIG A   1      -8.036   5.979 132.182  0.00  0.00    +0.170 A 
ATOM      5  O   LIG A   1      -6.874   5.758 132.868  0.00  0.00    -0.478 OA
ATOM      6  C   LIG A   1      -6.880   4.881 134.010  0.00  0.00    +0.124 C 
ATOM      7  C   LIG A   1      -5.855   3.781 133.712  0.00  0.00    +0.060 C 
ATOM      8  C   LIG A   1      -6.410   5.724 135.200  0.00  0.00    +0.060 C 
ATOM      9  C   LIG A   1      -8.208   4.242 134.348  0.00  0.00    +0.020 C 
ATOM     10  C   LIG A   1      -9.326   4.469 133.656  0.00  0.00    +0.011 C 
ATOM     11  C   LIG A   1      -9.246   5.374 132.523  0.00  0.00    +0.021 A 
ATOM     12  C   LIG A   1     -10.389   5.637 131.765  0.00  0.00    +0.026 A 
ENDROOT
BRANCH   1  14
ATOM     13  O   LIG A   1     -12.189   5.918 129.266  0.00  0.00    -0.245 OA
ATOM     14  C   LIG A   1     -11.539   6.775 129.834  0.00  0.00    +0.339 C 
BRANCH  14  15
ATOM     15  O   LIG A   1     -11.788   8.108 129.834  0.00  0.00    -0.464 OA
ATOM     16  C   LIG A   1     -12.084   8.682 128.563  0.00  0.00    +0.280 C 
ENDBRANCH  14  15
ENDBRANCH   1  14
BRANCH   3  17
ATOM     17  O   LIG A   1      -6.786   7.437 130.765  0.00  0.00    -0.503 OA
ATOM     18  H   LIG A   1      -6.055   6.877 131.067  0.00  0.00    +0.292 HD
ENDBRANCH   3  17
TORSDOF 3
ENDMDL
