MODEL 1
REMARK VINA RESULT:      -7.9      0.000      0.000
REMARK  Name = NuBBE_2526
REMARK  7 active torsions:
REMARK  status: ('A' for Active; 'I' for Inactive)
REMARK    1  A    between atoms: C_1  and  C_2
REMARK    2  A    between atoms: C_8  and  C_11
REMARK    3  A    between atoms: C_14  and  O_17
REMARK    4  A    between atoms: O_17  and  C_18
REMARK    5  A    between atoms: C_19  and  O_24
REMARK    6  A    between atoms: C_20  and  C_23
REMARK    7  A    between atoms: C_21  and  O_22
REMARK                            x       y       z     vdW  Elec       q    Type
REMARK                         _______ _______ _______ _____ _____    ______ ____
ROOT
ATOM      1  C   UNL A   1      -8.635  -2.163 122.592  0.00  0.00    +0.051 C 
ATOM      2  C   UNL A   1      -8.408  -1.694 124.007  0.00  0.00    +0.034 A 
ATOM      3  C   UNL A   1      -8.084  -0.362 124.300  0.00  0.00    +0.142 A 
ATOM      4  C   UNL A   1      -7.864   0.016 125.630  0.00  0.00    +0.101 A 
ATOM      5  C   UNL A   1      -7.427   1.399 125.902  0.00  0.00    +0.174 C 
ATOM      6  O   UNL A   1      -7.323   1.803 127.057  0.00  0.00    -0.292 OA
ATOM      7  C   UNL A   1      -7.048   2.222 124.715  0.00  0.00    +0.129 C 
ATOM      8  C   UNL A   1      -8.042   1.901 123.611  0.00  0.00    +0.211 C 
ATOM      9  O   UNL A   1      -7.956   0.514 123.246  0.00  0.00    -0.483 OA
ATOM     10  C   UNL A   1      -7.994  -0.912 126.674  0.00  0.00    +0.137 A 
ATOM     11  C   UNL A   1      -8.315  -2.250 126.407  0.00  0.00    +0.034 A 
ATOM     12  C   UNL A   1      -8.519  -2.619 125.067  0.00  0.00    +0.130 A 
ATOM     13  C   UNL A   1      -8.411  -3.255 127.524  0.00  0.00    +0.051 C 
ENDROOT
BRANCH   8  14
ATOM     14  C   UNL A   1      -7.747   2.793 122.413  0.00  0.00    -0.007 A 
ATOM     15  C   UNL A   1      -8.761   3.229 121.550  0.00  0.00    +0.011 A 
ATOM     16  C   UNL A   1      -8.445   3.934 120.383  0.00  0.00    +0.046 A 
ATOM     17  C   UNL A   1      -7.117   4.226 120.064  0.00  0.00    +0.120 A 
ATOM     18  C   UNL A   1      -6.103   3.811 120.924  0.00  0.00    +0.046 A 
ATOM     19  C   UNL A   1      -6.416   3.101 122.091  0.00  0.00    +0.011 A 
BRANCH  17  20
ATOM     20  O   UNL A   1      -6.935   4.850 118.862  0.00  0.00    -0.495 OA
ATOM     21  C   UNL A   1      -5.769   5.655 118.732  0.00  0.00    +0.277 C 
ENDBRANCH  17  20
ENDBRANCH   8  14
BRANCH  12  22
ATOM     22  O   UNL A   1      -8.831  -3.909 124.722  0.00  0.00    -0.506 OA
ATOM     23  H   UNL A   1      -9.616  -4.206 125.207  0.00  0.00    +0.292 HD
ENDBRANCH  12  22
BRANCH  10  24
ATOM     24  O   UNL A   1      -7.792  -0.551 127.984  0.00  0.00    -0.506 OA
ATOM     25  H   UNL A   1      -8.659  -0.552 128.450  0.00  0.00    +0.292 HD
ENDBRANCH  10  24
TORSDOF 4
ENDMDL
MODEL 2
REMARK VINA RESULT:      -7.4      9.744     10.687
REMARK  Name = NuBBE_2526
REMARK  7 active torsions:
REMARK  status: ('A' for Active; 'I' for Inactive)
REMARK    1  A    between atoms: C_1  and  C_2
REMARK    2  A    between atoms: C_8  and  C_11
REMARK    3  A    between atoms: C_14  and  O_17
REMARK    4  A    between atoms: O_17  and  C_18
REMARK    5  A    between atoms: C_19  and  O_24
REMARK    6  A    between atoms: C_20  and  C_23
REMARK    7  A    between atoms: C_21  and  O_22
REMARK                            x       y       z     vdW  Elec       q    Type
REMARK                         _______ _______ _______ _____ _____    ______ ____
ROOT
ATOM      1  C   UNL A   1      -5.441   7.483 130.658  0.00  0.00    +0.051 C 
ATOM      2  C   UNL A   1      -5.811   6.488 131.727  0.00  0.00    +0.034 A 
ATOM      3  C   UNL A   1      -7.144   6.136 131.980  0.00  0.00    +0.142 A 
ATOM      4  C   UNL A   1      -7.434   5.221 132.999  0.00  0.00    +0.101 A 
ATOM      5  C   UNL A   1      -8.849   4.944 133.310  0.00  0.00    +0.174 C 
ATOM      6  O   UNL A   1      -9.149   4.073 134.123  0.00  0.00    -0.292 OA
ATOM      7  C   UNL A   1      -9.860   5.826 132.654  0.00  0.00    +0.129 C 
ATOM      8  C   UNL A   1      -9.387   6.066 131.229  0.00  0.00    +0.211 C 
ATOM      9  O   UNL A   1      -8.122   6.747 131.228  0.00  0.00    -0.483 OA
ATOM     10  C   UNL A   1      -6.407   4.629 133.750  0.00  0.00    +0.137 A 
ATOM     11  C   UNL A   1      -5.066   4.965 133.518  0.00  0.00    +0.034 A 
ATOM     12  C   UNL A   1      -4.791   5.895 132.502  0.00  0.00    +0.130 A 
ATOM     13  C   UNL A   1      -3.968   4.363 134.354  0.00  0.00    +0.051 C 
ENDROOT
BRANCH   8  14
ATOM     14  C   UNL A   1     -10.441   6.884 130.495  0.00  0.00    -0.007 A 
ATOM     15  C   UNL A   1     -10.135   7.619 129.343  0.00  0.00    +0.011 A 
ATOM     16  C   UNL A   1     -11.088   8.468 128.768  0.00  0.00    +0.046 A 
ATOM     17  C   UNL A   1     -12.363   8.588 129.326  0.00  0.00    +0.120 A 
ATOM     18  C   UNL A   1     -12.682   7.850 130.463  0.00  0.00    +0.046 A 
ATOM     19  C   UNL A   1     -11.729   7.003 131.043  0.00  0.00    +0.011 A 
BRANCH  17  20
ATOM     20  O   UNL A   1     -13.175   9.506 128.719  0.00  0.00    -0.495 OA
ATOM     21  C   UNL A   1     -13.518  10.657 129.482  0.00  0.00    +0.277 C 
ENDBRANCH  17  20
ENDBRANCH   8  14
BRANCH  12  22
ATOM     22  O   UNL A   1      -3.505   6.281 132.217  0.00  0.00    -0.506 OA
ATOM     23  H   UNL A   1      -3.099   5.660 131.594  0.00  0.00    +0.292 HD
ENDBRANCH  12  22
BRANCH  10  24
ATOM     24  O   UNL A   1      -6.677   3.721 134.744  0.00  0.00    -0.506 OA
ATOM     25  H   UNL A   1      -7.230   2.997 134.370  0.00  0.00    +0.292 HD
ENDBRANCH  10  24
TORSDOF 4
ENDMDL
MODEL 3
REMARK VINA RESULT:      -7.3      8.785      9.639
REMARK  Name = NuBBE_2526
REMARK  7 active torsions:
REMARK  status: ('A' for Active; 'I' for Inactive)
REMARK    1  A    between atoms: C_1  and  C_2
REMARK    2  A    between atoms: C_8  and  C_11
REMARK    3  A    between atoms: C_14  and  O_17
REMARK    4  A    between atoms: O_17  and  C_18
REMARK    5  A    between atoms: C_19  and  O_24
REMARK    6  A    between atoms: C_20  and  C_23
REMARK    7  A    between atoms: C_21  and  O_22
REMARK                            x       y       z     vdW  Elec       q    Type
REMARK                         _______ _______ _______ _____ _____    ______ ____
ROOT
ATOM      1  C   UNL A   1     -10.020   1.933 131.857  0.00  0.00    +0.051 C 
ATOM      2  C   UNL A   1      -8.706   2.591 132.189  0.00  0.00    +0.034 A 
ATOM      3  C   UNL A   1      -8.478   3.952 131.942  0.00  0.00    +0.142 A 
ATOM      4  C   UNL A   1      -7.231   4.509 132.250  0.00  0.00    +0.101 A 
ATOM      5  C   UNL A   1      -6.984   5.918 131.889  0.00  0.00    +0.174 C 
ATOM      6  O   UNL A   1      -5.945   6.476 132.233  0.00  0.00    -0.292 OA
ATOM      7  C   UNL A   1      -8.012   6.574 131.027  0.00  0.00    +0.129 C 
ATOM      8  C   UNL A   1      -9.372   6.101 131.514  0.00  0.00    +0.211 C 
ATOM      9  O   UNL A   1      -9.493   4.677 131.360  0.00  0.00    -0.483 OA
ATOM     10  C   UNL A   1      -6.218   3.731 132.832  0.00  0.00    +0.137 A 
ATOM     11  C   UNL A   1      -6.420   2.368 133.088  0.00  0.00    +0.034 A 
ATOM     12  C   UNL A   1      -7.672   1.819 132.759  0.00  0.00    +0.130 A 
ATOM     13  C   UNL A   1      -5.319   1.524 133.671  0.00  0.00    +0.051 C 
ENDROOT
BRANCH   8  14
ATOM     14  C   UNL A   1     -10.453   6.823 130.722  0.00  0.00    -0.007 A 
ATOM     15  C   UNL A   1     -10.153   7.575 129.579  0.00  0.00    +0.011 A 
ATOM     16  C   UNL A   1     -11.144   8.337 128.950  0.00  0.00    +0.046 A 
ATOM     17  C   UNL A   1     -12.451   8.355 129.445  0.00  0.00    +0.120 A 
ATOM     18  C   UNL A   1     -12.763   7.598 130.572  0.00  0.00    +0.046 A 
ATOM     19  C   UNL A   1     -11.772   6.838 131.206  0.00  0.00    +0.011 A 
BRANCH  17  20
ATOM     20  O   UNL A   1     -13.305   9.197 128.789  0.00  0.00    -0.495 OA
ATOM     21  C   UNL A   1     -13.513  10.477 129.377  0.00  0.00    +0.277 C 
ENDBRANCH  17  20
ENDBRANCH   8  14
BRANCH  12  22
ATOM     22  O   UNL A   1      -7.947   0.492 132.972  0.00  0.00    -0.506 OA
ATOM     23  H   UNL A   1      -7.353  -0.063 132.444  0.00  0.00    +0.292 HD
ENDBRANCH  12  22
BRANCH  10  24
ATOM     24  O   UNL A   1      -4.995   4.268 133.151  0.00  0.00    -0.506 OA
ATOM     25  H   UNL A   1      -4.739   3.960 134.050  0.00  0.00    +0.292 HD
ENDBRANCH  10  24
TORSDOF 4
ENDMDL
MODEL 4
REMARK VINA RESULT:      -7.2      3.153      4.979
REMARK  Name = NuBBE_2526
REMARK  7 active torsions:
REMARK  status: ('A' for Active; 'I' for Inactive)
REMARK    1  A    between atoms: C_1  and  C_2
REMARK    2  A    between atoms: C_8  and  C_11
REMARK    3  A    between atoms: C_14  and  O_17
REMARK    4  A    between atoms: O_17  and  C_18
REMARK    5  A    between atoms: C_19  and  O_24
REMARK    6  A    between atoms: C_20  and  C_23
REMARK    7  A    between atoms: C_21  and  O_22
REMARK                            x       y       z     vdW  Elec       q    Type
REMARK                         _______ _______ _______ _____ _____    ______ ____
ROOT
ATOM      1  C   UNL A   1      -5.578  -2.278 125.761  0.00  0.00    +0.051 C 
ATOM      2  C   UNL A   1      -6.760  -1.745 124.992  0.00  0.00    +0.034 A 
ATOM      3  C   UNL A   1      -7.005  -0.370 124.873  0.00  0.00    +0.142 A 
ATOM      4  C   UNL A   1      -8.129   0.070 124.165  0.00  0.00    +0.101 A 
ATOM      5  C   UNL A   1      -8.417   1.517 124.139  0.00  0.00    +0.174 C 
ATOM      6  O   UNL A   1      -9.331   1.957 123.445  0.00  0.00    -0.292 OA
ATOM      7  C   UNL A   1      -7.604   2.375 125.051  0.00  0.00    +0.129 C 
ATOM      8  C   UNL A   1      -6.180   1.843 125.015  0.00  0.00    +0.211 C 
ATOM      9  O   UNL A   1      -6.136   0.492 125.502  0.00  0.00    -0.483 OA
ATOM     10  C   UNL A   1      -8.996  -0.843 123.547  0.00  0.00    +0.137 A 
ATOM     11  C   UNL A   1      -8.775  -2.223 123.653  0.00  0.00    +0.034 A 
ATOM     12  C   UNL A   1      -7.651  -2.652 124.379  0.00  0.00    +0.130 A 
ATOM     13  C   UNL A   1      -9.730  -3.205 123.028  0.00  0.00    +0.051 C 
ENDROOT
BRANCH   8  14
ATOM     14  C   UNL A   1      -5.298   2.752 125.859  0.00  0.00    -0.007 A 
ATOM     15  C   UNL A   1      -5.592   4.109 126.038  0.00  0.00    +0.011 A 
ATOM     16  C   UNL A   1      -4.694   4.949 126.706  0.00  0.00    +0.046 A 
ATOM     17  C   UNL A   1      -3.493   4.447 127.214  0.00  0.00    +0.120 A 
ATOM     18  C   UNL A   1      -3.198   3.095 127.055  0.00  0.00    +0.046 A 
ATOM     19  C   UNL A   1      -4.094   2.253 126.383  0.00  0.00    +0.011 A 
BRANCH  17  20
ATOM     20  O   UNL A   1      -2.668   5.382 127.775  0.00  0.00    -0.495 OA
ATOM     21  C   UNL A   1      -3.254   6.638 128.096  0.00  0.00    +0.277 C 
ENDBRANCH  17  20
ENDBRANCH   8  14
BRANCH  12  22
ATOM     22  O   UNL A   1      -7.368  -3.985 124.534  0.00  0.00    -0.506 OA
ATOM     23  H   UNL A   1      -6.411  -4.133 124.486  0.00  0.00    +0.292 HD
ENDBRANCH  12  22
BRANCH  10  24
ATOM     24  O   UNL A   1     -10.095  -0.424 122.839  0.00  0.00    -0.506 OA
ATOM     25  H   UNL A   1      -9.843  -0.322 121.894  0.00  0.00    +0.292 HD
ENDBRANCH  10  24
TORSDOF 4
ENDMDL
MODEL 5
REMARK VINA RESULT:      -7.2      1.642      2.025
REMARK  Name = NuBBE_2526
REMARK  7 active torsions:
REMARK  status: ('A' for Active; 'I' for Inactive)
REMARK    1  A    between atoms: C_1  and  C_2
REMARK    2  A    between atoms: C_8  and  C_11
REMARK    3  A    between atoms: C_14  and  O_17
REMARK    4  A    between atoms: O_17  and  C_18
REMARK    5  A    between atoms: C_19  and  O_24
REMARK    6  A    between atoms: C_20  and  C_23
REMARK    7  A    between atoms: C_21  and  O_22
REMARK                            x       y       z     vdW  Elec       q    Type
REMARK                         _______ _______ _______ _____ _____    ______ ____
ROOT
ATOM      1  C   UNL A   1      -6.150  -1.522 124.096  0.00  0.00    +0.051 C 
ATOM      2  C   UNL A   1      -6.670  -0.690 125.240  0.00  0.00    +0.034 A 
ATOM      3  C   UNL A   1      -7.117   0.626 125.054  0.00  0.00    +0.142 A 
ATOM      4  C   UNL A   1      -7.571   1.362 126.154  0.00  0.00    +0.101 A 
ATOM      5  C   UNL A   1      -7.942   2.775 125.947  0.00  0.00    +0.174 C 
ATOM      6  O   UNL A   1      -8.442   3.427 126.861  0.00  0.00    -0.292 OA
ATOM      7  C   UNL A   1      -7.598   3.366 124.620  0.00  0.00    +0.129 C 
ATOM      8  C   UNL A   1      -7.882   2.303 123.570  0.00  0.00    +0.211 C 
ATOM      9  O   UNL A   1      -7.049   1.152 123.783  0.00  0.00    -0.483 OA
ATOM     10  C   UNL A   1      -7.614   0.791 127.435  0.00  0.00    +0.137 A 
ATOM     11  C   UNL A   1      -7.171  -0.522 127.649  0.00  0.00    +0.034 A 
ATOM     12  C   UNL A   1      -6.704  -1.244 126.537  0.00  0.00    +0.130 A 
ATOM     13  C   UNL A   1      -7.175  -1.119 129.031  0.00  0.00    +0.051 C 
ENDROOT
BRANCH   8  14
ATOM     14  C   UNL A   1      -7.635   2.900 122.192  0.00  0.00    -0.007 A 
ATOM     15  C   UNL A   1      -6.342   3.153 121.717  0.00  0.00    +0.011 A 
ATOM     16  C   UNL A   1      -6.149   3.825 120.505  0.00  0.00    +0.046 A 
ATOM     17  C   UNL A   1      -7.240   4.247 119.743  0.00  0.00    +0.120 A 
ATOM     18  C   UNL A   1      -8.531   3.988 120.199  0.00  0.00    +0.046 A 
ATOM     19  C   UNL A   1      -8.727   3.318 121.413  0.00  0.00    +0.011 A 
BRANCH  17  20
ATOM     20  O   UNL A   1      -6.921   4.960 118.621  0.00  0.00    -0.495 OA
ATOM     21  C   UNL A   1      -5.770   5.793 118.702  0.00  0.00    +0.277 C 
ENDBRANCH  17  20
ENDBRANCH   8  14
BRANCH  12  22
ATOM     22  O   UNL A   1      -6.248  -2.531 126.664  0.00  0.00    -0.506 OA
ATOM     23  H   UNL A   1      -6.476  -2.884 127.537  0.00  0.00    +0.292 HD
ENDBRANCH  12  22
BRANCH  10  24
ATOM     24  O   UNL A   1      -8.068   1.498 128.521  0.00  0.00    -0.506 OA
ATOM     25  H   UNL A   1      -7.527   2.314 128.617  0.00  0.00    +0.292 HD
ENDBRANCH  10  24
TORSDOF 4
ENDMDL
MODEL 6
REMARK VINA RESULT:      -7.1      3.151      5.220
REMARK  Name = NuBBE_2526
REMARK  7 active torsions:
REMARK  status: ('A' for Active; 'I' for Inactive)
REMARK    1  A    between atoms: C_1  and  C_2
REMARK    2  A    between atoms: C_8  and  C_11
REMARK    3  A    between atoms: C_14  and  O_17
REMARK    4  A    between atoms: O_17  and  C_18
REMARK    5  A    between atoms: C_19  and  O_24
REMARK    6  A    between atoms: C_20  and  C_23
REMARK    7  A    between atoms: C_21  and  O_22
REMARK                            x       y       z     vdW  Elec       q    Type
REMARK                         _______ _______ _______ _____ _____    ______ ____
ROOT
ATOM      1  C   UNL A   1      -8.858   1.825 123.176  0.00  0.00    +0.051 C 
ATOM      2  C   UNL A   1      -8.467   0.463 123.689  0.00  0.00    +0.034 A 
ATOM      3  C   UNL A   1      -7.406   0.289 124.589  0.00  0.00    +0.142 A 
ATOM      4  C   UNL A   1      -7.072  -1.001 125.018  0.00  0.00    +0.101 A 
ATOM      5  C   UNL A   1      -5.890  -1.166 125.886  0.00  0.00    +0.174 C 
ATOM      6  O   UNL A   1      -5.621  -2.263 126.370  0.00  0.00    -0.292 OA
ATOM      7  C   UNL A   1      -5.018   0.034 126.059  0.00  0.00    +0.129 C 
ATOM      8  C   UNL A   1      -5.936   1.240 126.181  0.00  0.00    +0.211 C 
ATOM      9  O   UNL A   1      -6.707   1.408 124.979  0.00  0.00    -0.483 OA
ATOM     10  C   UNL A   1      -7.804  -2.117 124.587  0.00  0.00    +0.137 A 
ATOM     11  C   UNL A   1      -8.869  -1.970 123.687  0.00  0.00    +0.034 A 
ATOM     12  C   UNL A   1      -9.184  -0.672 123.252  0.00  0.00    +0.130 A 
ATOM     13  C   UNL A   1      -9.626  -3.173 123.189  0.00  0.00    +0.051 C 
ENDROOT
BRANCH   8  14
ATOM     14  C   UNL A   1      -5.089   2.474 126.456  0.00  0.00    -0.007 A 
ATOM     15  C   UNL A   1      -3.694   2.403 126.562  0.00  0.00    +0.011 A 
ATOM     16  C   UNL A   1      -2.953   3.525 126.948  0.00  0.00    +0.046 A 
ATOM     17  C   UNL A   1      -3.589   4.738 127.224  0.00  0.00    +0.120 A 
ATOM     18  C   UNL A   1      -4.974   4.823 127.107  0.00  0.00    +0.046 A 
ATOM     19  C   UNL A   1      -5.719   3.700 126.724  0.00  0.00    +0.011 A 
BRANCH  17  20
ATOM     20  O   UNL A   1      -2.764   5.735 127.666  0.00  0.00    -0.495 OA
ATOM     21  C   UNL A   1      -3.394   6.874 128.242  0.00  0.00    +0.277 C 
ENDBRANCH  17  20
ENDBRANCH   8  14
BRANCH  12  22
ATOM     22  O   UNL A   1     -10.207  -0.444 122.367  0.00  0.00    -0.506 OA
ATOM     23  H   UNL A   1     -11.058  -0.669 122.773  0.00  0.00    +0.292 HD
ENDBRANCH  12  22
BRANCH  10  24
ATOM     24  O   UNL A   1      -7.495  -3.386 125.011  0.00  0.00    -0.506 OA
ATOM     25  H   UNL A   1      -7.818  -3.499 125.933  0.00  0.00    +0.292 HD
ENDBRANCH  10  24
TORSDOF 4
ENDMDL
MODEL 7
REMARK VINA RESULT:      -7.0      6.416     10.309
REMARK  Name = NuBBE_2526
REMARK  7 active torsions:
REMARK  status: ('A' for Active; 'I' for Inactive)
REMARK    1  A    between atoms: C_1  and  C_2
REMARK    2  A    between atoms: C_8  and  C_11
REMARK    3  A    between atoms: C_14  and  O_17
REMARK    4  A    between atoms: O_17  and  C_18
REMARK    5  A    between atoms: C_19  and  O_24
REMARK    6  A    between atoms: C_20  and  C_23
REMARK    7  A    between atoms: C_21  and  O_22
REMARK                            x       y       z     vdW  Elec       q    Type
REMARK                         _______ _______ _______ _____ _____    ______ ____
ROOT
ATOM      1  C   UNL A   1      -9.200   3.688 133.762  0.00  0.00    +0.051 C 
ATOM      2  C   UNL A   1      -9.163   4.087 132.309  0.00  0.00    +0.034 A 
ATOM      3  C   UNL A   1      -8.839   3.171 131.299  0.00  0.00    +0.142 A 
ATOM      4  C   UNL A   1      -8.800   3.599 129.967  0.00  0.00    +0.101 A 
ATOM      5  C   UNL A   1      -8.360   2.640 128.935  0.00  0.00    +0.174 C 
ATOM      6  O   UNL A   1      -8.409   2.940 127.745  0.00  0.00    -0.292 OA
ATOM      7  C   UNL A   1      -7.786   1.352 129.426  0.00  0.00    +0.129 C 
ATOM      8  C   UNL A   1      -8.621   0.915 130.619  0.00  0.00    +0.211 C 
ATOM      9  O   UNL A   1      -8.531   1.883 131.676  0.00  0.00    -0.483 OA
ATOM     10  C   UNL A   1      -9.111   4.924 129.626  0.00  0.00    +0.137 A 
ATOM     11  C   UNL A   1      -9.436   5.860 130.617  0.00  0.00    +0.034 A 
ATOM     12  C   UNL A   1      -9.457   5.420 131.951  0.00  0.00    +0.130 A 
ATOM     13  C   UNL A   1      -9.726   7.293 130.255  0.00  0.00    +0.051 C 
ENDROOT
BRANCH   8  14
ATOM     14  C   UNL A   1      -8.127  -0.446 131.089  0.00  0.00    -0.007 A 
ATOM     15  C   UNL A   1      -7.805  -0.692 132.430  0.00  0.00    +0.011 A 
ATOM     16  C   UNL A   1      -7.226  -1.908 132.810  0.00  0.00    +0.046 A 
ATOM     17  C   UNL A   1      -6.968  -2.901 131.863  0.00  0.00    +0.120 A 
ATOM     18  C   UNL A   1      -7.298  -2.672 130.529  0.00  0.00    +0.046 A 
ATOM     19  C   UNL A   1      -7.874  -1.454 130.145  0.00  0.00    +0.011 A 
BRANCH  17  20
ATOM     20  O   UNL A   1      -6.330  -4.009 132.347  0.00  0.00    -0.495 OA
ATOM     21  C   UNL A   1      -5.560  -4.758 131.414  0.00  0.00    +0.277 C 
ENDBRANCH  17  20
ENDBRANCH   8  14
BRANCH  12  22
ATOM     22  O   UNL A   1      -9.760   6.276 132.980  0.00  0.00    -0.506 OA
ATOM     23  H   UNL A   1     -10.414   5.872 133.571  0.00  0.00    +0.292 HD
ENDBRANCH  12  22
BRANCH  10  24
ATOM     24  O   UNL A   1      -9.088   5.354 128.322  0.00  0.00    -0.506 OA
ATOM     25  H   UNL A   1      -8.688   4.649 127.763  0.00  0.00    +0.292 HD
ENDBRANCH  10  24
TORSDOF 4
ENDMDL
MODEL 8
REMARK VINA RESULT:      -6.9      2.870      8.397
REMARK  Name = NuBBE_2526
REMARK  7 active torsions:
REMARK  status: ('A' for Active; 'I' for Inactive)
REMARK    1  A    between atoms: C_1  and  C_2
REMARK    2  A    between atoms: C_8  and  C_11
REMARK    3  A    between atoms: C_14  and  O_17
REMARK    4  A    between atoms: O_17  and  C_18
REMARK    5  A    between atoms: C_19  and  O_24
REMARK    6  A    between atoms: C_20  and  C_23
REMARK    7  A    between atoms: C_21  and  O_22
REMARK                            x       y       z     vdW  Elec       q    Type
REMARK                         _______ _______ _______ _____ _____    ______ ____
ROOT
ATOM      1  C   UNL A   1      -5.257   1.779 126.088  0.00  0.00    +0.051 C 
ATOM      2  C   UNL A   1      -6.505   1.245 125.433  0.00  0.00    +0.034 A 
ATOM      3  C   UNL A   1      -7.081   0.028 125.823  0.00  0.00    +0.142 A 
ATOM      4  C   UNL A   1      -8.229  -0.432 125.167  0.00  0.00    +0.101 A 
ATOM      5  C   UNL A   1      -8.756  -1.762 125.528  0.00  0.00    +0.174 C 
ATOM      6  O   UNL A   1      -9.818  -2.160 125.055  0.00  0.00    -0.292 OA
ATOM      7  C   UNL A   1      -7.895  -2.602 126.413  0.00  0.00    +0.129 C 
ATOM      8  C   UNL A   1      -7.283  -1.676 127.452  0.00  0.00    +0.211 C 
ATOM      9  O   UNL A   1      -6.455  -0.688 126.818  0.00  0.00    -0.483 OA
ATOM     10  C   UNL A   1      -8.829   0.323 124.149  0.00  0.00    +0.137 A 
ATOM     11  C   UNL A   1      -8.273   1.543 123.740  0.00  0.00    +0.034 A 
ATOM     12  C   UNL A   1      -7.112   1.986 124.397  0.00  0.00    +0.130 A 
ATOM     13  C   UNL A   1      -8.892   2.332 122.617  0.00  0.00    +0.051 C 
ENDROOT
BRANCH   8  14
ATOM     14  C   UNL A   1      -6.472  -2.511 128.434  0.00  0.00    -0.007 A 
ATOM     15  C   UNL A   1      -7.084  -3.254 129.452  0.00  0.00    +0.011 A 
ATOM     16  C   UNL A   1      -6.309  -3.902 130.421  0.00  0.00    +0.046 A 
ATOM     17  C   UNL A   1      -4.915  -3.829 130.384  0.00  0.00    +0.120 A 
ATOM     18  C   UNL A   1      -4.297  -3.106 129.366  0.00  0.00    +0.046 A 
ATOM     19  C   UNL A   1      -5.070  -2.452 128.398  0.00  0.00    +0.011 A 
BRANCH  17  20
ATOM     20  O   UNL A   1      -4.277  -4.439 131.428  0.00  0.00    -0.495 OA
ATOM     21  C   UNL A   1      -5.102  -5.096 132.383  0.00  0.00    +0.277 C 
ENDBRANCH  17  20
ENDBRANCH   8  14
BRANCH  12  22
ATOM     22  O   UNL A   1      -6.503   3.166 124.051  0.00  0.00    -0.506 OA
ATOM     23  H   UNL A   1      -6.443   3.242 123.087  0.00  0.00    +0.292 HD
ENDBRANCH  12  22
BRANCH  10  24
ATOM     24  O   UNL A   1      -9.963  -0.110 123.507  0.00  0.00    -0.506 OA
ATOM     25  H   UNL A   1     -10.434   0.670 123.136  0.00  0.00    +0.292 HD
ENDBRANCH  10  24
TORSDOF 4
ENDMDL
MODEL 9
REMARK VINA RESULT:      -6.8      7.478      9.429
REMARK  Name = NuBBE_2526
REMARK  7 active torsions:
REMARK  status: ('A' for Active; 'I' for Inactive)
REMARK    1  A    between atoms: C_1  and  C_2
REMARK    2  A    between atoms: C_8  and  C_11
REMARK    3  A    between atoms: C_14  and  O_17
REMARK    4  A    between atoms: O_17  and  C_18
REMARK    5  A    between atoms: C_19  and  O_24
REMARK    6  A    between atoms: C_20  and  C_23
REMARK    7  A    between atoms: C_21  and  O_22
REMARK                            x       y       z     vdW  Elec       q    Type
REMARK                         _______ _______ _______ _____ _____    ______ ____
ROOT
ATOM      1  C   UNL A   1      -6.791   4.253 128.652  0.00  0.00    +0.051 C 
ATOM      2  C   UNL A   1      -6.973   3.751 130.062  0.00  0.00    +0.034 A 
ATOM      3  C   UNL A   1      -8.024   4.196 130.875  0.00  0.00    +0.142 A 
ATOM      4  C   UNL A   1      -8.135   3.712 132.184  0.00  0.00    +0.101 A 
ATOM      5  C   UNL A   1      -9.190   4.271 133.051  0.00  0.00    +0.174 C 
ATOM      6  O   UNL A   1      -9.389   3.804 134.169  0.00  0.00    -0.292 OA
ATOM      7  C   UNL A   1      -9.920   5.464 132.526  0.00  0.00    +0.129 C 
ATOM      8  C   UNL A   1     -10.145   5.234 131.040  0.00  0.00    +0.211 C 
ATOM      9  O   UNL A   1      -8.887   5.133 130.352  0.00  0.00    -0.483 OA
ATOM     10  C   UNL A   1      -7.227   2.766 132.682  0.00  0.00    +0.137 A 
ATOM     11  C   UNL A   1      -6.166   2.306 131.890  0.00  0.00    +0.034 A 
ATOM     12  C   UNL A   1      -6.059   2.811 130.583  0.00  0.00    +0.130 A 
ATOM     13  C   UNL A   1      -5.165   1.324 132.439  0.00  0.00    +0.051 C 
ENDROOT
BRANCH   8  14
ATOM     14  C   UNL A   1     -10.972   6.386 130.487  0.00  0.00    -0.007 A 
ATOM     15  C   UNL A   1     -10.582   7.092 129.342  0.00  0.00    +0.011 A 
ATOM     16  C   UNL A   1     -11.287   8.229 128.934  0.00  0.00    +0.046 A 
ATOM     17  C   UNL A   1     -12.397   8.676 129.655  0.00  0.00    +0.120 A 
ATOM     18  C   UNL A   1     -12.802   7.972 130.787  0.00  0.00    +0.046 A 
ATOM     19  C   UNL A   1     -12.095   6.835 131.200  0.00  0.00    +0.011 A 
BRANCH  17  20
ATOM     20  O   UNL A   1     -12.951   9.840 129.201  0.00  0.00    -0.495 OA
ATOM     21  C   UNL A   1     -13.402  10.759 130.189  0.00  0.00    +0.277 C 
ENDBRANCH  17  20
ENDBRANCH   8  14
BRANCH  12  22
ATOM     22  O   UNL A   1      -5.045   2.416 129.746  0.00  0.00    -0.506 OA
ATOM     23  H   UNL A   1      -4.947   3.048 129.018  0.00  0.00    +0.292 HD
ENDBRANCH  12  22
BRANCH  10  24
ATOM     24  O   UNL A   1      -7.331   2.274 133.960  0.00  0.00    -0.506 OA
ATOM     25  H   UNL A   1      -8.162   1.752 134.031  0.00  0.00    +0.292 HD
ENDBRANCH  10  24
TORSDOF 4
ENDMDL
