MODEL 1
REMARK VINA RESULT:      -7.2      0.000      0.000
REMARK  Name = NuBBE_1909
REMARK  5 active torsions:
REMARK  status: ('A' for Active; 'I' for Inactive)
REMARK    1  A    between atoms: C_1  and  O_2
REMARK    2  A    between atoms: O_2  and  C_3
REMARK    3  A    between atoms: C_16  and  O_17
REMARK    4  A    between atoms: O_17  and  C_18
REMARK    5  A    between atoms: C_19  and  O_20
REMARK                            x       y       z     vdW  Elec       q    Type
REMARK                         _______ _______ _______ _____ _____    ______ ____
ROOT
ATOM      1  C   LIG A   1      -7.231   6.629 131.394  0.00  0.00    +0.208 A 
ATOM      2  C   LIG A   1      -8.580   6.791 131.038  0.00  0.00    +0.184 A 
ATOM      3  C   LIG A   1      -9.583   6.323 131.887  0.00  0.00    +0.072 A 
ATOM      4  C   LIG A   1     -10.990   6.496 131.496  0.00  0.00    +0.200 A 
ATOM      5  C   LIG A   1     -11.246   7.192 130.231  0.00  0.00    +0.065 A 
ATOM      6  C   LIG A   1     -12.553   7.432 129.799  0.00  0.00    +0.015 A 
ATOM      7  C   LIG A   1     -12.767   8.102 128.596  0.00  0.00    +0.001 A 
ATOM      8  C   LIG A   1     -11.679   8.524 127.830  0.00  0.00    +0.004 A 
ATOM      9  C   LIG A   1     -10.375   8.279 128.267  0.00  0.00    +0.047 A 
ATOM     10  C   LIG A   1     -10.156   7.611 129.473  0.00  0.00    +0.139 A 
ATOM     11  O   LIG A   1      -8.848   7.413 129.837  0.00  0.00    -0.451 OA
ATOM     12  O   LIG A   1     -11.902   6.083 132.198  0.00  0.00    -0.286 OA
ATOM     13  C   LIG A   1      -9.278   5.704 133.103  0.00  0.00    +0.065 A 
ATOM     14  C   LIG A   1      -7.947   5.558 133.480  0.00  0.00    +0.166 A 
ATOM     15  C   LIG A   1      -6.931   6.020 132.622  0.00  0.00    +0.205 A 
ENDROOT
BRANCH   1  17
ATOM     16  C   LIG A   1      -5.320   6.265 130.022  0.00  0.00    +0.277 C 
ATOM     17  O   LIG A   1      -6.322   7.150 130.508  0.00  0.00    -0.488 OA
ENDBRANCH   1  17
BRANCH  14  18
ATOM     18  O   LIG A   1      -7.510   4.999 134.656  0.00  0.00    -0.491 OA
ATOM     19  C   LIG A   1      -7.682   5.784 135.833  0.00  0.00    +0.277 C 
ENDBRANCH  14  18
BRANCH  15  20
ATOM     20  O   LIG A   1      -5.634   5.878 133.051  0.00  0.00    -0.501 OA
ATOM     21  H   LIG A   1      -5.685   5.338 133.864  0.00  0.00    +0.292 HD
ENDBRANCH  15  20
TORSDOF 3
ENDMDL
MODEL 2
REMARK VINA RESULT:      -7.1      7.908      9.604
REMARK  Name = NuBBE_1909
REMARK  5 active torsions:
REMARK  status: ('A' for Active; 'I' for Inactive)
REMARK    1  A    between atoms: C_1  and  O_2
REMARK    2  A    between atoms: O_2  and  C_3
REMARK    3  A    between atoms: C_16  and  O_17
REMARK    4  A    between atoms: O_17  and  C_18
REMARK    5  A    between atoms: C_19  and  O_20
REMARK                            x       y       z     vdW  Elec       q    Type
REMARK                         _______ _______ _______ _____ _____    ______ ____
ROOT
ATOM      1  C   LIG A   1      -8.135   2.925 124.806  0.00  0.00    +0.208 A 
ATOM      2  C   LIG A   1      -7.654   3.327 123.549  0.00  0.00    +0.184 A 
ATOM      3  C   LIG A   1      -6.304   3.643 123.391  0.00  0.00    +0.072 A 
ATOM      4  C   LIG A   1      -5.819   4.068 122.070  0.00  0.00    +0.200 A 
ATOM      5  C   LIG A   1      -6.801   4.099 120.981  0.00  0.00    +0.065 A 
ATOM      6  C   LIG A   1      -6.419   4.456 119.685  0.00  0.00    +0.015 A 
ATOM      7  C   LIG A   1      -7.371   4.470 118.667  0.00  0.00    +0.001 A 
ATOM      8  C   LIG A   1      -8.696   4.132 118.949  0.00  0.00    +0.004 A 
ATOM      9  C   LIG A   1      -9.071   3.778 120.247  0.00  0.00    +0.047 A 
ATOM     10  C   LIG A   1      -8.120   3.760 121.269  0.00  0.00    +0.139 A 
ATOM     11  O   LIG A   1      -8.564   3.397 122.515  0.00  0.00    -0.451 OA
ATOM     12  O   LIG A   1      -4.649   4.376 121.889  0.00  0.00    -0.286 OA
ATOM     13  C   LIG A   1      -5.406   3.554 124.459  0.00  0.00    +0.065 A 
ATOM     14  C   LIG A   1      -5.863   3.134 125.702  0.00  0.00    +0.166 A 
ATOM     15  C   LIG A   1      -7.226   2.824 125.870  0.00  0.00    +0.205 A 
ENDROOT
BRANCH   1  17
ATOM     16  C   LIG A   1      -9.802   1.226 124.776  0.00  0.00    +0.277 C 
ATOM     17  O   LIG A   1      -9.469   2.607 124.851  0.00  0.00    -0.488 OA
ENDBRANCH   1  17
BRANCH  14  18
ATOM     18  O   LIG A   1      -5.086   2.974 126.824  0.00  0.00    -0.491 OA
ATOM     19  C   LIG A   1      -3.782   2.437 126.619  0.00  0.00    +0.277 C 
ENDBRANCH  14  18
BRANCH  15  20
ATOM     20  O   LIG A   1      -7.623   2.387 127.110  0.00  0.00    -0.501 OA
ATOM     21  H   LIG A   1      -8.525   2.742 127.236  0.00  0.00    +0.292 HD
ENDBRANCH  15  20
TORSDOF 3
ENDMDL
MODEL 3
REMARK VINA RESULT:      -7.0      8.106      9.638
REMARK  Name = NuBBE_1909
REMARK  5 active torsions:
REMARK  status: ('A' for Active; 'I' for Inactive)
REMARK    1  A    between atoms: C_1  and  O_2
REMARK    2  A    between atoms: O_2  and  C_3
REMARK    3  A    between atoms: C_16  and  O_17
REMARK    4  A    between atoms: O_17  and  C_18
REMARK    5  A    between atoms: C_19  and  O_20
REMARK                            x       y       z     vdW  Elec       q    Type
REMARK                         _______ _______ _______ _____ _____    ______ ____
ROOT
ATOM      1  C   LIG A   1      -9.211   1.599 123.924  0.00  0.00    +0.208 A 
ATOM      2  C   LIG A   1      -8.107   2.367 123.519  0.00  0.00    +0.184 A 
ATOM      3  C   LIG A   1      -7.106   2.682 124.439  0.00  0.00    +0.072 A 
ATOM      4  C   LIG A   1      -5.960   3.492 123.999  0.00  0.00    +0.200 A 
ATOM      5  C   LIG A   1      -5.934   3.893 122.589  0.00  0.00    +0.065 A 
ATOM      6  C   LIG A   1      -4.865   4.634 122.077  0.00  0.00    +0.015 A 
ATOM      7  C   LIG A   1      -4.862   4.996 120.730  0.00  0.00    +0.001 A 
ATOM      8  C   LIG A   1      -5.924   4.620 119.906  0.00  0.00    +0.004 A 
ATOM      9  C   LIG A   1      -6.990   3.882 120.426  0.00  0.00    +0.047 A 
ATOM     10  C   LIG A   1      -6.996   3.515 121.772  0.00  0.00    +0.139 A 
ATOM     11  O   LIG A   1      -8.074   2.786 122.206  0.00  0.00    -0.451 OA
ATOM     12  O   LIG A   1      -5.070   3.811 124.774  0.00  0.00    -0.286 OA
ATOM     13  C   LIG A   1      -7.166   2.235 125.762  0.00  0.00    +0.065 A 
ATOM     14  C   LIG A   1      -8.240   1.453 126.170  0.00  0.00    +0.166 A 
ATOM     15  C   LIG A   1      -9.258   1.141 125.250  0.00  0.00    +0.205 A 
ENDROOT
BRANCH   1  17
ATOM     16  C   LIG A   1     -10.101   0.001 122.401  0.00  0.00    +0.277 C 
ATOM     17  O   LIG A   1     -10.125   1.317 122.940  0.00  0.00    -0.488 OA
ENDBRANCH   1  17
BRANCH  14  18
ATOM     18  O   LIG A   1      -8.407   0.924 127.427  0.00  0.00    -0.491 OA
ATOM     19  C   LIG A   1      -8.584   1.859 128.489  0.00  0.00    +0.277 C 
ENDBRANCH  14  18
BRANCH  15  20
ATOM     20  O   LIG A   1     -10.284   0.343 125.694  0.00  0.00    -0.501 OA
ATOM     21  H   LIG A   1     -10.700  -0.021 124.888  0.00  0.00    +0.292 HD
ENDBRANCH  15  20
TORSDOF 3
ENDMDL
MODEL 4
REMARK VINA RESULT:      -6.9      8.241      9.242
REMARK  Name = NuBBE_1909
REMARK  5 active torsions:
REMARK  status: ('A' for Active; 'I' for Inactive)
REMARK    1  A    between atoms: C_1  and  O_2
REMARK    2  A    between atoms: O_2  and  C_3
REMARK    3  A    between atoms: C_16  and  O_17
REMARK    4  A    between atoms: O_17  and  C_18
REMARK    5  A    between atoms: C_19  and  O_20
REMARK                            x       y       z     vdW  Elec       q    Type
REMARK                         _______ _______ _______ _____ _____    ______ ____
ROOT
ATOM      1  C   LIG A   1      -8.398   2.908 124.328  0.00  0.00    +0.208 A 
ATOM      2  C   LIG A   1      -8.449   1.555 124.702  0.00  0.00    +0.184 A 
ATOM      3  C   LIG A   1      -8.187   1.190 126.024  0.00  0.00    +0.072 A 
ATOM      4  C   LIG A   1      -8.238  -0.231 126.396  0.00  0.00    +0.200 A 
ATOM      5  C   LIG A   1      -8.600  -1.181 125.340  0.00  0.00    +0.065 A 
ATOM      6  C   LIG A   1      -8.707  -2.548 125.614  0.00  0.00    +0.015 A 
ATOM      7  C   LIG A   1      -9.060  -3.428 124.592  0.00  0.00    +0.001 A 
ATOM      8  C   LIG A   1      -9.298  -2.942 123.306  0.00  0.00    +0.004 A 
ATOM      9  C   LIG A   1      -9.187  -1.575 123.039  0.00  0.00    +0.047 A 
ATOM     10  C   LIG A   1      -8.837  -0.690 124.059  0.00  0.00    +0.139 A 
ATOM     11  O   LIG A   1      -8.754   0.637 123.720  0.00  0.00    -0.451 OA
ATOM     12  O   LIG A   1      -7.995  -0.600 127.537  0.00  0.00    -0.286 OA
ATOM     13  C   LIG A   1      -7.889   2.147 126.997  0.00  0.00    +0.065 A 
ATOM     14  C   LIG A   1      -7.860   3.492 126.647  0.00  0.00    +0.166 A 
ATOM     15  C   LIG A   1      -8.113   3.865 125.313  0.00  0.00    +0.205 A 
ENDROOT
BRANCH   1  17
ATOM     16  C   LIG A   1      -7.605   3.283 122.115  0.00  0.00    +0.277 C 
ATOM     17  O   LIG A   1      -8.701   3.167 123.014  0.00  0.00    -0.488 OA
ENDBRANCH   1  17
BRANCH  14  18
ATOM     18  O   LIG A   1      -7.612   4.534 127.507  0.00  0.00    -0.491 OA
ATOM     19  C   LIG A   1      -8.160   4.418 128.818  0.00  0.00    +0.277 C 
ENDBRANCH  14  18
BRANCH  15  20
ATOM     20  O   LIG A   1      -8.100   5.208 125.023  0.00  0.00    -0.501 OA
ATOM     21  H   LIG A   1      -8.899   5.366 124.484  0.00  0.00    +0.292 HD
ENDBRANCH  15  20
TORSDOF 3
ENDMDL
MODEL 5
REMARK VINA RESULT:      -6.7      8.583     10.164
REMARK  Name = NuBBE_1909
REMARK  5 active torsions:
REMARK  status: ('A' for Active; 'I' for Inactive)
REMARK    1  A    between atoms: C_1  and  O_2
REMARK    2  A    between atoms: O_2  and  C_3
REMARK    3  A    between atoms: C_16  and  O_17
REMARK    4  A    between atoms: O_17  and  C_18
REMARK    5  A    between atoms: C_19  and  O_20
REMARK                            x       y       z     vdW  Elec       q    Type
REMARK                         _______ _______ _______ _____ _____    ______ ____
ROOT
ATOM      1  C   LIG A   1      -7.007   2.776 123.612  0.00  0.00    +0.208 A 
ATOM      2  C   LIG A   1      -7.086   1.428 124.000  0.00  0.00    +0.184 A 
ATOM      3  C   LIG A   1      -6.318   0.967 125.070  0.00  0.00    +0.072 A 
ATOM      4  C   LIG A   1      -6.409  -0.448 125.457  0.00  0.00    +0.200 A 
ATOM      5  C   LIG A   1      -7.343  -1.286 124.699  0.00  0.00    +0.065 A 
ATOM      6  C   LIG A   1      -7.520  -2.634 125.023  0.00  0.00    +0.015 A 
ATOM      7  C   LIG A   1      -8.420  -3.405 124.289  0.00  0.00    +0.001 A 
ATOM      8  C   LIG A   1      -9.134  -2.829 123.238  0.00  0.00    +0.004 A 
ATOM      9  C   LIG A   1      -8.951  -1.482 122.918  0.00  0.00    +0.047 A 
ATOM     10  C   LIG A   1      -8.053  -0.705 123.652  0.00  0.00    +0.139 A 
ATOM     11  O   LIG A   1      -7.933   0.611 123.281  0.00  0.00    -0.451 OA
ATOM     12  O   LIG A   1      -5.738  -0.902 126.374  0.00  0.00    -0.286 OA
ATOM     13  C   LIG A   1      -5.475   1.824 125.783  0.00  0.00    +0.065 A 
ATOM     14  C   LIG A   1      -5.405   3.166 125.426  0.00  0.00    +0.166 A 
ATOM     15  C   LIG A   1      -6.170   3.634 124.341  0.00  0.00    +0.205 A 
ENDROOT
BRANCH   1  17
ATOM     16  C   LIG A   1      -7.186   3.512 121.355  0.00  0.00    +0.277 C 
ATOM     17  O   LIG A   1      -7.824   3.137 122.570  0.00  0.00    -0.488 OA
ENDBRANCH   1  17
BRANCH  14  18
ATOM     18  O   LIG A   1      -4.645   4.119 126.059  0.00  0.00    -0.491 OA
ATOM     19  C   LIG A   1      -3.295   3.763 126.347  0.00  0.00    +0.277 C 
ENDBRANCH  14  18
BRANCH  15  20
ATOM     20  O   LIG A   1      -6.088   4.973 124.046  0.00  0.00    -0.501 OA
ATOM     21  H   LIG A   1      -5.147   5.208 124.160  0.00  0.00    +0.292 HD
ENDBRANCH  15  20
TORSDOF 3
ENDMDL
MODEL 6
REMARK VINA RESULT:      -6.7      2.331      2.445
REMARK  Name = NuBBE_1909
REMARK  5 active torsions:
REMARK  status: ('A' for Active; 'I' for Inactive)
REMARK    1  A    between atoms: C_1  and  O_2
REMARK    2  A    between atoms: O_2  and  C_3
REMARK    3  A    between atoms: C_16  and  O_17
REMARK    4  A    between atoms: O_17  and  C_18
REMARK    5  A    between atoms: C_19  and  O_20
REMARK                            x       y       z     vdW  Elec       q    Type
REMARK                         _______ _______ _______ _____ _____    ______ ____
ROOT
ATOM      1  C   LIG A   1      -7.852   4.594 129.262  0.00  0.00    +0.208 A 
ATOM      2  C   LIG A   1      -8.939   5.422 129.587  0.00  0.00    +0.184 A 
ATOM      3  C   LIG A   1      -9.350   5.540 130.916  0.00  0.00    +0.072 A 
ATOM      4  C   LIG A   1     -10.493   6.407 131.236  0.00  0.00    +0.200 A 
ATOM      5  C   LIG A   1     -11.114   7.127 130.120  0.00  0.00    +0.065 A 
ATOM      6  C   LIG A   1     -12.184   8.000 130.339  0.00  0.00    +0.015 A 
ATOM      7  C   LIG A   1     -12.750   8.677 129.260  0.00  0.00    +0.001 A 
ATOM      8  C   LIG A   1     -12.250   8.477 127.972  0.00  0.00    +0.004 A 
ATOM      9  C   LIG A   1     -11.183   7.601 127.761  0.00  0.00    +0.047 A 
ATOM     10  C   LIG A   1     -10.610   6.923 128.838  0.00  0.00    +0.139 A 
ATOM     11  O   LIG A   1      -9.562   6.085 128.551  0.00  0.00    -0.451 OA
ATOM     12  O   LIG A   1     -10.903   6.524 132.383  0.00  0.00    -0.286 OA
ATOM     13  C   LIG A   1      -8.692   4.860 131.944  0.00  0.00    +0.065 A 
ATOM     14  C   LIG A   1      -7.599   4.056 131.640  0.00  0.00    +0.166 A 
ATOM     15  C   LIG A   1      -7.186   3.926 130.301  0.00  0.00    +0.205 A 
ENDROOT
BRANCH   1  17
ATOM     16  C   LIG A   1      -7.754   3.359 127.230  0.00  0.00    +0.277 C 
ATOM     17  O   LIG A   1      -7.507   4.570 127.934  0.00  0.00    -0.488 OA
ENDBRANCH   1  17
BRANCH  14  18
ATOM     18  O   LIG A   1      -6.845   3.360 132.554  0.00  0.00    -0.491 OA
ATOM     19  C   LIG A   1      -7.564   2.560 133.489  0.00  0.00    +0.277 C 
ENDBRANCH  14  18
BRANCH  15  20
ATOM     20  O   LIG A   1      -6.085   3.142 130.056  0.00  0.00    -0.501 OA
ATOM     21  H   LIG A   1      -5.764   2.860 130.934  0.00  0.00    +0.292 HD
ENDBRANCH  15  20
TORSDOF 3
ENDMDL
MODEL 7
REMARK VINA RESULT:      -6.6      8.502     10.139
REMARK  Name = NuBBE_1909
REMARK  5 active torsions:
REMARK  status: ('A' for Active; 'I' for Inactive)
REMARK    1  A    between atoms: C_1  and  O_2
REMARK    2  A    between atoms: O_2  and  C_3
REMARK    3  A    between atoms: C_16  and  O_17
REMARK    4  A    between atoms: O_17  and  C_18
REMARK    5  A    between atoms: C_19  and  O_20
REMARK                            x       y       z     vdW  Elec       q    Type
REMARK                         _______ _______ _______ _____ _____    ______ ____
ROOT
ATOM      1  C   LIG A   1      -7.991   2.398 125.731  0.00  0.00    +0.208 A 
ATOM      2  C   LIG A   1      -8.269   1.021 125.727  0.00  0.00    +0.184 A 
ATOM      3  C   LIG A   1      -8.790   0.421 124.580  0.00  0.00    +0.072 A 
ATOM      4  C   LIG A   1      -9.080  -1.020 124.597  0.00  0.00    +0.200 A 
ATOM      5  C   LIG A   1      -8.766  -1.747 125.831  0.00  0.00    +0.065 A 
ATOM      6  C   LIG A   1      -8.977  -3.125 125.923  0.00  0.00    +0.015 A 
ATOM      7  C   LIG A   1      -8.662  -3.792 127.106  0.00  0.00    +0.001 A 
ATOM      8  C   LIG A   1      -8.144  -3.080 128.189  0.00  0.00    +0.004 A 
ATOM      9  C   LIG A   1      -7.938  -1.702 128.091  0.00  0.00    +0.047 A 
ATOM     10  C   LIG A   1      -8.249  -1.031 126.907  0.00  0.00    +0.139 A 
ATOM     11  O   LIG A   1      -8.013   0.321 126.887  0.00  0.00    -0.451 OA
ATOM     12  O   LIG A   1      -9.558  -1.585 123.623  0.00  0.00    -0.286 OA
ATOM     13  C   LIG A   1      -9.030   1.158 123.418  0.00  0.00    +0.065 A 
ATOM     14  C   LIG A   1      -8.736   2.517 123.398  0.00  0.00    +0.166 A 
ATOM     15  C   LIG A   1      -8.221   3.130 124.556  0.00  0.00    +0.205 A 
ENDROOT
BRANCH   1  17
ATOM     16  C   LIG A   1      -6.042   3.065 126.924  0.00  0.00    +0.277 C 
ATOM     17  O   LIG A   1      -7.453   2.887 126.895  0.00  0.00    -0.488 OA
ENDBRANCH   1  17
BRANCH  14  18
ATOM     18  O   LIG A   1      -8.894   3.350 122.317  0.00  0.00    -0.491 OA
ATOM     19  C   LIG A   1      -7.831   3.364 121.368  0.00  0.00    +0.277 C 
ENDBRANCH  14  18
BRANCH  15  20
ATOM     20  O   LIG A   1      -7.921   4.469 124.478  0.00  0.00    -0.501 OA
ATOM     21  H   LIG A   1      -8.570   4.846 123.853  0.00  0.00    +0.292 HD
ENDBRANCH  15  20
TORSDOF 3
ENDMDL
MODEL 8
REMARK VINA RESULT:      -6.5      2.301      6.574
REMARK  Name = NuBBE_1909
REMARK  5 active torsions:
REMARK  status: ('A' for Active; 'I' for Inactive)
REMARK    1  A    between atoms: C_1  and  O_2
REMARK    2  A    between atoms: O_2  and  C_3
REMARK    3  A    between atoms: C_16  and  O_17
REMARK    4  A    between atoms: O_17  and  C_18
REMARK    5  A    between atoms: C_19  and  O_20
REMARK                            x       y       z     vdW  Elec       q    Type
REMARK                         _______ _______ _______ _____ _____    ______ ____
ROOT
ATOM      1  C   LIG A   1      -7.451   4.897 133.102  0.00  0.00    +0.208 A 
ATOM      2  C   LIG A   1      -6.291   5.433 132.519  0.00  0.00    +0.184 A 
ATOM      3  C   LIG A   1      -6.398   6.430 131.548  0.00  0.00    +0.072 A 
ATOM      4  C   LIG A   1      -5.174   6.975 130.944  0.00  0.00    +0.200 A 
ATOM      5  C   LIG A   1      -3.898   6.445 131.438  0.00  0.00    +0.065 A 
ATOM      6  C   LIG A   1      -2.684   6.932 130.945  0.00  0.00    +0.015 A 
ATOM      7  C   LIG A   1      -1.486   6.416 131.437  0.00  0.00    +0.001 A 
ATOM      8  C   LIG A   1      -1.507   5.417 132.412  0.00  0.00    +0.004 A 
ATOM      9  C   LIG A   1      -2.725   4.934 132.898  0.00  0.00    +0.047 A 
ATOM     10  C   LIG A   1      -3.926   5.450 132.410  0.00  0.00    +0.139 A 
ATOM     11  O   LIG A   1      -5.079   4.929 132.941  0.00  0.00    -0.451 OA
ATOM     12  O   LIG A   1      -5.220   7.833 130.075  0.00  0.00    -0.286 OA
ATOM     13  C   LIG A   1      -7.643   6.925 131.148  0.00  0.00    +0.065 A 
ATOM     14  C   LIG A   1      -8.798   6.421 131.734  0.00  0.00    +0.166 A 
ATOM     15  C   LIG A   1      -8.697   5.408 132.706  0.00  0.00    +0.205 A 
ENDROOT
BRANCH   1  17
ATOM     16  C   LIG A   1      -7.405   2.587 133.676  0.00  0.00    +0.277 C 
ATOM     17  O   LIG A   1      -7.239   3.945 134.067  0.00  0.00    -0.488 OA
ENDBRANCH   1  17
BRANCH  14  18
ATOM     18  O   LIG A   1     -10.078   6.839 131.457  0.00  0.00    -0.491 OA
ATOM     19  C   LIG A   1     -10.469   6.816 130.087  0.00  0.00    +0.277 C 
ENDBRANCH  14  18
BRANCH  15  20
ATOM     20  O   LIG A   1      -9.865   4.964 133.276  0.00  0.00    -0.501 OA
ATOM     21  H   LIG A   1     -10.199   4.268 132.677  0.00  0.00    +0.292 HD
ENDBRANCH  15  20
TORSDOF 3
ENDMDL
MODEL 9
REMARK VINA RESULT:      -6.3      2.484      2.656
REMARK  Name = NuBBE_1909
REMARK  5 active torsions:
REMARK  status: ('A' for Active; 'I' for Inactive)
REMARK    1  A    between atoms: C_1  and  O_2
REMARK    2  A    between atoms: O_2  and  C_3
REMARK    3  A    between atoms: C_16  and  O_17
REMARK    4  A    between atoms: O_17  and  C_18
REMARK    5  A    between atoms: C_19  and  O_20
REMARK                            x       y       z     vdW  Elec       q    Type
REMARK                         _______ _______ _______ _____ _____    ______ ____
ROOT
ATOM      1  C   LIG A   1      -7.336   5.088 130.308  0.00  0.00    +0.208 A 
ATOM      2  C   LIG A   1      -8.682   5.387 130.040  0.00  0.00    +0.184 A 
ATOM      3  C   LIG A   1      -9.668   4.431 130.284  0.00  0.00    +0.072 A 
ATOM      4  C   LIG A   1     -11.071   4.760 129.992  0.00  0.00    +0.200 A 
ATOM      5  C   LIG A   1     -11.345   6.108 129.483  0.00  0.00    +0.065 A 
ATOM      6  C   LIG A   1     -12.653   6.517 129.213  0.00  0.00    +0.015 A 
ATOM      7  C   LIG A   1     -12.885   7.807 128.737  0.00  0.00    +0.001 A 
ATOM      8  C   LIG A   1     -11.813   8.676 128.532  0.00  0.00    +0.004 A 
ATOM      9  C   LIG A   1     -10.508   8.259 128.803  0.00  0.00    +0.047 A 
ATOM     10  C   LIG A   1     -10.271   6.970 129.282  0.00  0.00    +0.139 A 
ATOM     11  O   LIG A   1      -8.963   6.637 129.529  0.00  0.00    -0.451 OA
ATOM     12  O   LIG A   1     -11.967   3.946 130.169  0.00  0.00    -0.286 OA
ATOM     13  C   LIG A   1      -9.350   3.175 130.810  0.00  0.00    +0.065 A 
ATOM     14  C   LIG A   1      -8.025   2.874 131.103  0.00  0.00    +0.166 A 
ATOM     15  C   LIG A   1      -7.025   3.831 130.849  0.00  0.00    +0.205 A 
ENDROOT
BRANCH   1  17
ATOM     16  C   LIG A   1      -6.022   6.868 131.185  0.00  0.00    +0.277 C 
ATOM     17  O   LIG A   1      -6.447   6.104 130.063  0.00  0.00    -0.488 OA
ENDBRANCH   1  17
BRANCH  14  18
ATOM     18  O   LIG A   1      -7.579   1.694 131.649  0.00  0.00    -0.491 OA
ATOM     19  C   LIG A   1      -8.524   0.629 131.712  0.00  0.00    +0.277 C 
ENDBRANCH  14  18
BRANCH  15  20
ATOM     20  O   LIG A   1      -5.735   3.496 131.182  0.00  0.00    -0.501 OA
ATOM     21  H   LIG A   1      -5.544   2.672 130.692  0.00  0.00    +0.292 HD
ENDBRANCH  15  20
TORSDOF 3
ENDMDL
