MODEL 1
REMARK VINA RESULT:      -7.2      0.000      0.000
REMARK  Name = NuBBE_2415
REMARK  6 active torsions:
REMARK  status: ('A' for Active; 'I' for Inactive)
REMARK    1  A    between atoms: O_1  and  C_2
REMARK    2  A    between atoms: O_1  and  C_3
REMARK    3  A    between atoms: C_7  and  C_11
REMARK    4  A    between atoms: C_15  and  O_19
REMARK    5  A    between atoms: O_19  and  C_20
REMARK    6  A    between atoms: C_23  and  O_24
REMARK                            x       y       z     vdW  Elec       q    Type
REMARK                         _______ _______ _______ _____ _____    ______ ____
ROOT
ATOM      1  C   LIG A   1     -11.088   7.871 128.695  0.00  0.00    +0.204 A 
ATOM      2  C   LIG A   1     -10.626   6.632 129.182  0.00  0.00    +0.169 A 
ATOM      3  C   LIG A   1     -11.204   6.044 130.318  0.00  0.00    -0.001 A 
ATOM      4  C   LIG A   1     -10.707   4.738 130.871  0.00  0.00    +0.050 C 
ATOM      5  C   LIG A   1      -9.722   4.046 129.921  0.00  0.00    +0.065 C 
ATOM      6  C   LIG A   1      -8.833   5.109 129.270  0.00  0.00    +0.238 C 
ATOM      7  O   LIG A   1      -9.611   6.017 128.485  0.00  0.00    -0.487 OA
ATOM      8  C   LIG A   1     -12.240   6.710 130.983  0.00  0.00    +0.011 A 
ATOM      9  C   LIG A   1     -12.703   7.937 130.513  0.00  0.00    +0.050 A 
ATOM     10  C   LIG A   1     -12.134   8.512 129.373  0.00  0.00    +0.162 A 
ENDROOT
BRANCH   5  11
ATOM     11  C   LIG A   1      -8.933   2.946 130.605  0.00  0.00    +0.010 C 
ATOM     12  C   LIG A   1      -8.632   2.979 131.907  0.00  0.00    +0.062 C 
ATOM     13  C   LIG A   1      -7.854   1.918 132.589  0.00  0.00    +0.221 C 
ATOM     14  O   LIG A   1      -7.659   2.018 133.794  0.00  0.00    -0.284 OA
ATOM     15  C   LIG A   1      -7.356   0.783 131.751  0.00  0.00    +0.170 C 
ATOM     16  C   LIG A   1      -7.676   0.747 130.455  0.00  0.00    +0.100 C 
ATOM     17  C   LIG A   1      -8.481   1.783 129.794  0.00  0.00    +0.186 C 
ATOM     18  O   LIG A   1      -8.755   1.667 128.606  0.00  0.00    -0.287 OA
BRANCH  15  19
ATOM     19  O   LIG A   1      -6.621  -0.277 132.266  0.00  0.00    -0.491 OA
ATOM     20  C   LIG A   1      -7.368  -1.408 132.700  0.00  0.00    +0.277 C 
ENDBRANCH  15  19
ENDBRANCH   5  11
BRANCH   1  21
ATOM     21  O   LIG A   1     -10.483   8.318 127.547  0.00  0.00    -0.488 OA
ATOM     22  C   LIG A   1     -11.008   7.831 126.319  0.00  0.00    +0.277 C 
ENDBRANCH   1  21
BRANCH  10  23
ATOM     23  O   LIG A   1     -12.644   9.701 128.929  0.00  0.00    -0.503 OA
ATOM     24  H   LIG A   1     -12.990  10.202 129.685  0.00  0.00    +0.292 HD
ENDBRANCH  10  23
TORSDOF 4
ENDMDL
MODEL 2
REMARK VINA RESULT:      -7.2      2.607      3.237
REMARK  Name = NuBBE_2415
REMARK  6 active torsions:
REMARK  status: ('A' for Active; 'I' for Inactive)
REMARK    1  A    between atoms: O_1  and  C_2
REMARK    2  A    between atoms: O_1  and  C_3
REMARK    3  A    between atoms: C_7  and  C_11
REMARK    4  A    between atoms: C_15  and  O_19
REMARK    5  A    between atoms: O_19  and  C_20
REMARK    6  A    between atoms: C_23  and  O_24
REMARK                            x       y       z     vdW  Elec       q    Type
REMARK                         _______ _______ _______ _____ _____    ______ ____
ROOT
ATOM      1  C   LIG A   1     -11.145   8.054 129.086  0.00  0.00    +0.204 A 
ATOM      2  C   LIG A   1     -10.438   7.296 130.041  0.00  0.00    +0.169 A 
ATOM      3  C   LIG A   1     -11.080   6.801 131.186  0.00  0.00    -0.001 A 
ATOM      4  C   LIG A   1     -10.338   6.016 132.231  0.00  0.00    +0.050 C 
ATOM      5  C   LIG A   1      -8.930   5.624 131.767  0.00  0.00    +0.065 C 
ATOM      6  C   LIG A   1      -8.334   6.782 130.963  0.00  0.00    +0.238 C 
ATOM      7  O   LIG A   1      -9.108   7.044 129.790  0.00  0.00    -0.487 OA
ATOM      8  C   LIG A   1     -12.436   7.080 131.386  0.00  0.00    +0.011 A 
ATOM      9  C   LIG A   1     -13.146   7.831 130.451  0.00  0.00    +0.050 A 
ATOM     10  C   LIG A   1     -12.505   8.311 129.305  0.00  0.00    +0.162 A 
ENDROOT
BRANCH   5  11
ATOM     11  C   LIG A   1      -8.045   5.177 132.915  0.00  0.00    +0.010 C 
ATOM     12  C   LIG A   1      -8.157   5.681 134.148  0.00  0.00    +0.062 C 
ATOM     13  C   LIG A   1      -7.294   5.262 135.278  0.00  0.00    +0.221 C 
ATOM     14  O   LIG A   1      -7.495   5.755 136.381  0.00  0.00    -0.284 OA
ATOM     15  C   LIG A   1      -6.226   4.253 134.993  0.00  0.00    +0.170 C 
ATOM     16  C   LIG A   1      -6.133   3.741 133.764  0.00  0.00    +0.100 C 
ATOM     17  C   LIG A   1      -7.017   4.132 132.658  0.00  0.00    +0.186 C 
ATOM     18  O   LIG A   1      -6.886   3.597 131.563  0.00  0.00    -0.287 OA
BRANCH  15  19
ATOM     19  O   LIG A   1      -5.355   3.774 135.963  0.00  0.00    -0.491 OA
ATOM     20  C   LIG A   1      -4.009   3.569 135.551  0.00  0.00    +0.277 C 
ENDBRANCH  15  19
ENDBRANCH   5  11
BRANCH   1  21
ATOM     21  O   LIG A   1     -10.423   8.436 127.982  0.00  0.00    -0.488 OA
ATOM     22  C   LIG A   1     -10.679   7.727 126.777  0.00  0.00    +0.277 C 
ENDBRANCH   1  21
BRANCH  10  23
ATOM     23  O   LIG A   1     -13.249   9.014 128.398  0.00  0.00    -0.503 OA
ATOM     24  H   LIG A   1     -13.074   9.963 128.510  0.00  0.00    +0.292 HD
ENDBRANCH  10  23
TORSDOF 4
ENDMDL
MODEL 3
REMARK VINA RESULT:      -7.1      7.242      8.868
REMARK  Name = NuBBE_2415
REMARK  6 active torsions:
REMARK  status: ('A' for Active; 'I' for Inactive)
REMARK    1  A    between atoms: O_1  and  C_2
REMARK    2  A    between atoms: O_1  and  C_3
REMARK    3  A    between atoms: C_7  and  C_11
REMARK    4  A    between atoms: C_15  and  O_19
REMARK    5  A    between atoms: O_19  and  C_20
REMARK    6  A    between atoms: C_23  and  O_24
REMARK                            x       y       z     vdW  Elec       q    Type
REMARK                         _______ _______ _______ _____ _____    ______ ____
ROOT
ATOM      1  C   LIG A   1      -6.982  -2.306 124.569  0.00  0.00    +0.204 A 
ATOM      2  C   LIG A   1      -7.060  -2.441 125.969  0.00  0.00    +0.169 A 
ATOM      3  C   LIG A   1      -8.254  -2.841 126.588  0.00  0.00    -0.001 A 
ATOM      4  C   LIG A   1      -8.368  -2.963 128.081  0.00  0.00    +0.050 C 
ATOM      5  C   LIG A   1      -7.003  -2.860 128.775  0.00  0.00    +0.065 C 
ATOM      6  C   LIG A   1      -6.159  -1.809 128.050  0.00  0.00    +0.238 C 
ATOM      7  O   LIG A   1      -5.917  -2.192 126.694  0.00  0.00    -0.487 OA
ATOM      8  C   LIG A   1      -9.385  -3.090 125.801  0.00  0.00    +0.011 A 
ATOM      9  C   LIG A   1      -9.321  -2.957 124.416  0.00  0.00    +0.050 A 
ATOM     10  C   LIG A   1      -8.125  -2.572 123.802  0.00  0.00    +0.162 A 
ENDROOT
BRANCH   5  11
ATOM     11  C   LIG A   1      -7.128  -2.601 130.263  0.00  0.00    +0.010 C 
ATOM     12  C   LIG A   1      -7.764  -1.533 130.758  0.00  0.00    +0.062 C 
ATOM     13  C   LIG A   1      -7.886  -1.261 132.209  0.00  0.00    +0.221 C 
ATOM     14  O   LIG A   1      -8.518  -0.275 132.568  0.00  0.00    -0.284 OA
ATOM     15  C   LIG A   1      -7.225  -2.220 133.149  0.00  0.00    +0.170 C 
ATOM     16  C   LIG A   1      -6.609  -3.293 132.649  0.00  0.00    +0.100 C 
ATOM     17  C   LIG A   1      -6.525  -3.578 131.210  0.00  0.00    +0.186 C 
ATOM     18  O   LIG A   1      -5.964  -4.598 130.829  0.00  0.00    -0.287 OA
BRANCH  15  19
ATOM     19  O   LIG A   1      -7.269  -2.083 134.530  0.00  0.00    -0.491 OA
ATOM     20  C   LIG A   1      -7.806  -3.184 135.254  0.00  0.00    +0.277 C 
ENDBRANCH  15  19
ENDBRANCH   5  11
BRANCH   1  21
ATOM     21  O   LIG A   1      -5.747  -1.963 124.076  0.00  0.00    -0.488 OA
ATOM     22  C   LIG A   1      -4.944  -3.024 123.574  0.00  0.00    +0.277 C 
ENDBRANCH   1  21
BRANCH  10  23
ATOM     23  O   LIG A   1      -8.100  -2.486 122.437  0.00  0.00    -0.503 OA
ATOM     24  H   LIG A   1      -7.511  -1.760 122.174  0.00  0.00    +0.292 HD
ENDBRANCH  10  23
TORSDOF 4
ENDMDL
MODEL 4
REMARK VINA RESULT:      -6.9      6.011      8.203
REMARK  Name = NuBBE_2415
REMARK  6 active torsions:
REMARK  status: ('A' for Active; 'I' for Inactive)
REMARK    1  A    between atoms: O_1  and  C_2
REMARK    2  A    between atoms: O_1  and  C_3
REMARK    3  A    between atoms: C_7  and  C_11
REMARK    4  A    between atoms: C_15  and  O_19
REMARK    5  A    between atoms: O_19  and  C_20
REMARK    6  A    between atoms: C_23  and  O_24
REMARK                            x       y       z     vdW  Elec       q    Type
REMARK                         _______ _______ _______ _____ _____    ______ ____
ROOT
ATOM      1  C   LIG A   1      -8.225  -0.916 126.360  0.00  0.00    +0.204 A 
ATOM      2  C   LIG A   1      -7.853  -1.562 127.556  0.00  0.00    +0.169 A 
ATOM      3  C   LIG A   1      -8.250  -2.883 127.813  0.00  0.00    -0.001 A 
ATOM      4  C   LIG A   1      -7.889  -3.581 129.095  0.00  0.00    +0.050 C 
ATOM      5  C   LIG A   1      -6.860  -2.790 129.913  0.00  0.00    +0.065 C 
ATOM      6  C   LIG A   1      -7.177  -1.298 129.795  0.00  0.00    +0.238 C 
ATOM      7  O   LIG A   1      -7.069  -0.856 128.439  0.00  0.00    -0.487 OA
ATOM      8  C   LIG A   1      -9.040  -3.557 126.875  0.00  0.00    +0.011 A 
ATOM      9  C   LIG A   1      -9.417  -2.928 125.691  0.00  0.00    +0.050 A 
ATOM     10  C   LIG A   1      -9.008  -1.617 125.432  0.00  0.00    +0.162 A 
ENDROOT
BRANCH   5  11
ATOM     11  C   LIG A   1      -6.771  -3.269 131.349  0.00  0.00    +0.010 C 
ATOM     12  C   LIG A   1      -7.509  -2.743 132.331  0.00  0.00    +0.062 C 
ATOM     13  C   LIG A   1      -7.427  -3.193 133.740  0.00  0.00    +0.221 C 
ATOM     14  O   LIG A   1      -8.170  -2.674 134.564  0.00  0.00    -0.284 OA
ATOM     15  C   LIG A   1      -6.433  -4.263 134.065  0.00  0.00    +0.170 C 
ATOM     16  C   LIG A   1      -5.712  -4.797 133.076  0.00  0.00    +0.100 C 
ATOM     17  C   LIG A   1      -5.827  -4.373 131.674  0.00  0.00    +0.186 C 
ATOM     18  O   LIG A   1      -5.149  -4.929 130.819  0.00  0.00    -0.287 OA
BRANCH  15  19
ATOM     19  O   LIG A   1      -6.259  -4.777 135.344  0.00  0.00    -0.491 OA
ATOM     20  C   LIG A   1      -6.895  -6.021 135.612  0.00  0.00    +0.277 C 
ENDBRANCH  15  19
ENDBRANCH   5  11
BRANCH   1  21
ATOM     21  O   LIG A   1      -7.731   0.355 126.196  0.00  0.00    -0.488 OA
ATOM     22  C   LIG A   1      -8.626   1.426 126.469  0.00  0.00    +0.277 C 
ENDBRANCH   1  21
BRANCH  10  23
ATOM     23  O   LIG A   1      -9.373  -1.051 124.241  0.00  0.00    -0.503 OA
ATOM     24  H   LIG A   1      -8.814  -0.276 124.072  0.00  0.00    +0.292 HD
ENDBRANCH  10  23
TORSDOF 4
ENDMDL
MODEL 5
REMARK VINA RESULT:      -6.7      1.440      2.139
REMARK  Name = NuBBE_2415
REMARK  6 active torsions:
REMARK  status: ('A' for Active; 'I' for Inactive)
REMARK    1  A    between atoms: O_1  and  C_2
REMARK    2  A    between atoms: O_1  and  C_3
REMARK    3  A    between atoms: C_7  and  C_11
REMARK    4  A    between atoms: C_15  and  O_19
REMARK    5  A    between atoms: O_19  and  C_20
REMARK    6  A    between atoms: C_23  and  O_24
REMARK                            x       y       z     vdW  Elec       q    Type
REMARK                         _______ _______ _______ _____ _____    ______ ____
ROOT
ATOM      1  C   LIG A   1     -11.128   8.018 128.787  0.00  0.00    +0.204 A 
ATOM      2  C   LIG A   1     -10.636   6.910 129.504  0.00  0.00    +0.169 A 
ATOM      3  C   LIG A   1     -11.255   6.487 130.690  0.00  0.00    -0.001 A 
ATOM      4  C   LIG A   1     -10.729   5.326 131.486  0.00  0.00    +0.050 C 
ATOM      5  C   LIG A   1      -9.650   4.546 130.724  0.00  0.00    +0.065 C 
ATOM      6  C   LIG A   1      -8.777   5.537 129.951  0.00  0.00    +0.238 C 
ATOM      7  O   LIG A   1      -9.547   6.251 128.980  0.00  0.00    -0.487 OA
ATOM      8  C   LIG A   1     -12.365   7.190 131.172  0.00  0.00    +0.011 A 
ATOM      9  C   LIG A   1     -12.860   8.289 130.473  0.00  0.00    +0.050 A 
ATOM     10  C   LIG A   1     -12.248   8.699 129.285  0.00  0.00    +0.162 A 
ENDROOT
BRANCH   5  11
ATOM     11  C   LIG A   1      -8.851   3.628 131.629  0.00  0.00    +0.010 C 
ATOM     12  C   LIG A   1      -9.002   2.300 131.621  0.00  0.00    +0.062 C 
ATOM     13  C   LIG A   1      -8.237   1.390 132.506  0.00  0.00    +0.221 C 
ATOM     14  O   LIG A   1      -8.418   0.183 132.400  0.00  0.00    -0.284 OA
ATOM     15  C   LIG A   1      -7.283   2.013 133.476  0.00  0.00    +0.170 C 
ATOM     16  C   LIG A   1      -7.125   3.338 133.466  0.00  0.00    +0.100 C 
ATOM     17  C   LIG A   1      -7.858   4.231 132.559  0.00  0.00    +0.186 C 
ATOM     18  O   LIG A   1      -7.639   5.436 132.592  0.00  0.00    -0.287 OA
BRANCH  15  19
ATOM     19  O   LIG A   1      -6.503   1.274 134.356  0.00  0.00    -0.491 OA
ATOM     20  C   LIG A   1      -5.408   1.960 134.952  0.00  0.00    +0.277 C 
ENDBRANCH  15  19
ENDBRANCH   5  11
BRANCH   1  21
ATOM     21  O   LIG A   1     -10.474   8.302 127.613  0.00  0.00    -0.488 OA
ATOM     22  C   LIG A   1     -11.029   7.754 126.425  0.00  0.00    +0.277 C 
ENDBRANCH   1  21
BRANCH  10  23
ATOM     23  O   LIG A   1     -12.788   9.763 128.616  0.00  0.00    -0.503 OA
ATOM     24  H   LIG A   1     -12.632  10.573 129.127  0.00  0.00    +0.292 HD
ENDBRANCH  10  23
TORSDOF 4
ENDMDL
MODEL 6
REMARK VINA RESULT:      -6.7      5.661      7.687
REMARK  Name = NuBBE_2415
REMARK  6 active torsions:
REMARK  status: ('A' for Active; 'I' for Inactive)
REMARK    1  A    between atoms: O_1  and  C_2
REMARK    2  A    between atoms: O_1  and  C_3
REMARK    3  A    between atoms: C_7  and  C_11
REMARK    4  A    between atoms: C_15  and  O_19
REMARK    5  A    between atoms: O_19  and  C_20
REMARK    6  A    between atoms: C_23  and  O_24
REMARK                            x       y       z     vdW  Elec       q    Type
REMARK                         _______ _______ _______ _____ _____    ______ ____
ROOT
ATOM      1  C   LIG A   1      -4.179   4.867 128.084  0.00  0.00    +0.204 A 
ATOM      2  C   LIG A   1      -4.899   3.699 127.764  0.00  0.00    +0.169 A 
ATOM      3  C   LIG A   1      -4.278   2.628 127.103  0.00  0.00    -0.001 A 
ATOM      4  C   LIG A   1      -5.034   1.386 126.727  0.00  0.00    +0.050 C 
ATOM      5  C   LIG A   1      -6.427   1.341 127.368  0.00  0.00    +0.065 C 
ATOM      6  C   LIG A   1      -7.018   2.753 127.366  0.00  0.00    +0.238 C 
ATOM      7  O   LIG A   1      -6.220   3.644 128.149  0.00  0.00    -0.487 OA
ATOM      8  C   LIG A   1      -2.929   2.734 126.743  0.00  0.00    +0.011 A 
ATOM      9  C   LIG A   1      -2.208   3.885 127.051  0.00  0.00    +0.050 A 
ATOM     10  C   LIG A   1      -2.827   4.944 127.722  0.00  0.00    +0.162 A 
ENDROOT
BRANCH   5  11
ATOM     11  C   LIG A   1      -7.332   0.315 126.716  0.00  0.00    +0.010 C 
ATOM     12  C   LIG A   1      -8.173   0.624 125.723  0.00  0.00    +0.062 C 
ATOM     13  C   LIG A   1      -9.071  -0.365 125.081  0.00  0.00    +0.221 C 
ATOM     14  O   LIG A   1      -9.781   0.005 124.154  0.00  0.00    -0.284 OA
ATOM     15  C   LIG A   1      -9.048  -1.764 125.613  0.00  0.00    +0.170 C 
ATOM     16  C   LIG A   1      -8.193  -2.069 126.592  0.00  0.00    +0.100 C 
ATOM     17  C   LIG A   1      -7.278  -1.093 127.196  0.00  0.00    +0.186 C 
ATOM     18  O   LIG A   1      -6.503  -1.455 128.074  0.00  0.00    -0.287 OA
BRANCH  15  19
ATOM     19  O   LIG A   1      -9.836  -2.785 125.098  0.00  0.00    -0.491 OA
ATOM     20  C   LIG A   1      -9.377  -3.385 123.891  0.00  0.00    +0.277 C 
ENDBRANCH  15  19
ENDBRANCH   5  11
BRANCH   1  21
ATOM     21  O   LIG A   1      -4.879   5.822 128.779  0.00  0.00    -0.488 OA
ATOM     22  C   LIG A   1      -4.663   5.874 130.183  0.00  0.00    +0.277 C 
ENDBRANCH   1  21
BRANCH  10  23
ATOM     23  O   LIG A   1      -2.070   6.040 128.033  0.00  0.00    -0.503 OA
ATOM     24  H   LIG A   1      -2.133   6.686 127.310  0.00  0.00    +0.292 HD
ENDBRANCH  10  23
TORSDOF 4
ENDMDL
MODEL 7
REMARK VINA RESULT:      -6.6      7.642     10.266
REMARK  Name = NuBBE_2415
REMARK  6 active torsions:
REMARK  status: ('A' for Active; 'I' for Inactive)
REMARK    1  A    between atoms: O_1  and  C_2
REMARK    2  A    between atoms: O_1  and  C_3
REMARK    3  A    between atoms: C_7  and  C_11
REMARK    4  A    between atoms: C_15  and  O_19
REMARK    5  A    between atoms: O_19  and  C_20
REMARK    6  A    between atoms: C_23  and  O_24
REMARK                            x       y       z     vdW  Elec       q    Type
REMARK                         _______ _______ _______ _____ _____    ______ ____
ROOT
ATOM      1  C   LIG A   1      -6.305  -2.433 133.678  0.00  0.00    +0.204 A 
ATOM      2  C   LIG A   1      -6.636  -2.614 132.321  0.00  0.00    +0.169 A 
ATOM      3  C   LIG A   1      -6.213  -3.756 131.623  0.00  0.00    -0.001 A 
ATOM      4  C   LIG A   1      -6.530  -3.955 130.167  0.00  0.00    +0.050 C 
ATOM      5  C   LIG A   1      -7.548  -2.930 129.653  0.00  0.00    +0.065 C 
ATOM      6  C   LIG A   1      -7.257  -1.575 130.302  0.00  0.00    +0.238 C 
ATOM      7  O   LIG A   1      -7.407  -1.643 131.722  0.00  0.00    -0.487 OA
ATOM      8  C   LIG A   1      -5.438  -4.715 132.284  0.00  0.00    +0.011 A 
ATOM      9  C   LIG A   1      -5.102  -4.546 133.625  0.00  0.00    +0.050 A 
ATOM     10  C   LIG A   1      -5.537  -3.414 134.320  0.00  0.00    +0.162 A 
ENDROOT
BRANCH   5  11
ATOM     11  C   LIG A   1      -7.592  -2.868 128.138  0.00  0.00    +0.010 C 
ATOM     12  C   LIG A   1      -6.670  -2.224 127.416  0.00  0.00    +0.062 C 
ATOM     13  C   LIG A   1      -6.704  -2.146 125.937  0.00  0.00    +0.221 C 
ATOM     14  O   LIG A   1      -5.794  -1.563 125.360  0.00  0.00    -0.284 OA
ATOM     15  C   LIG A   1      -7.859  -2.794 125.239  0.00  0.00    +0.170 C 
ATOM     16  C   LIG A   1      -8.766  -3.451 125.965  0.00  0.00    +0.100 C 
ATOM     17  C   LIG A   1      -8.705  -3.558 127.429  0.00  0.00    +0.186 C 
ATOM     18  O   LIG A   1      -9.561  -4.201 128.023  0.00  0.00    -0.287 OA
BRANCH  15  19
ATOM     19  O   LIG A   1      -8.007  -2.798 123.858  0.00  0.00    -0.491 OA
ATOM     20  C   LIG A   1      -9.320  -3.049 123.369  0.00  0.00    +0.277 C 
ENDBRANCH  15  19
ENDBRANCH   5  11
BRANCH   1  21
ATOM     21  O   LIG A   1      -6.822  -1.305 134.267  0.00  0.00    -0.488 OA
ATOM     22  C   LIG A   1      -5.940  -0.199 134.409  0.00  0.00    +0.277 C 
ENDBRANCH   1  21
BRANCH  10  23
ATOM     23  O   LIG A   1      -5.211  -3.306 135.644  0.00  0.00    -0.503 OA
ATOM     24  H   LIG A   1      -5.441  -4.133 136.097  0.00  0.00    +0.292 HD
ENDBRANCH  10  23
TORSDOF 4
ENDMDL
MODEL 8
REMARK VINA RESULT:      -6.6      5.963      8.962
REMARK  Name = NuBBE_2415
REMARK  6 active torsions:
REMARK  status: ('A' for Active; 'I' for Inactive)
REMARK    1  A    between atoms: O_1  and  C_2
REMARK    2  A    between atoms: O_1  and  C_3
REMARK    3  A    between atoms: C_7  and  C_11
REMARK    4  A    between atoms: C_15  and  O_19
REMARK    5  A    between atoms: O_19  and  C_20
REMARK    6  A    between atoms: C_23  and  O_24
REMARK                            x       y       z     vdW  Elec       q    Type
REMARK                         _______ _______ _______ _____ _____    ______ ____
ROOT
ATOM      1  C   LIG A   1      -8.696  -1.612 125.279  0.00  0.00    +0.204 A 
ATOM      2  C   LIG A   1      -7.882  -0.498 125.560  0.00  0.00    +0.169 A 
ATOM      3  C   LIG A   1      -7.251   0.212 124.528  0.00  0.00    -0.001 A 
ATOM      4  C   LIG A   1      -6.356   1.387 124.808  0.00  0.00    +0.050 C 
ATOM      5  C   LIG A   1      -6.440   1.840 126.271  0.00  0.00    +0.065 C 
ATOM      6  C   LIG A   1      -6.559   0.604 127.166  0.00  0.00    +0.238 C 
ATOM      7  O   LIG A   1      -7.757  -0.123 126.879  0.00  0.00    -0.487 OA
ATOM      8  C   LIG A   1      -7.421  -0.207 123.204  0.00  0.00    +0.011 A 
ATOM      9  C   LIG A   1      -8.221  -1.310 122.912  0.00  0.00    +0.050 A 
ATOM     10  C   LIG A   1      -8.859  -2.006 123.943  0.00  0.00    +0.162 A 
ENDROOT
BRANCH   5  11
ATOM     11  C   LIG A   1      -5.292   2.750 126.662  0.00  0.00    +0.010 C 
ATOM     12  C   LIG A   1      -4.010   2.397 126.516  0.00  0.00    +0.062 C 
ATOM     13  C   LIG A   1      -2.878   3.271 126.902  0.00  0.00    +0.221 C 
ATOM     14  O   LIG A   1      -1.737   2.874 126.697  0.00  0.00    -0.284 OA
ATOM     15  C   LIG A   1      -3.206   4.593 127.520  0.00  0.00    +0.170 C 
ATOM     16  C   LIG A   1      -4.488   4.947 127.646  0.00  0.00    +0.100 C 
ATOM     17  C   LIG A   1      -5.606   4.092 127.225  0.00  0.00    +0.186 C 
ATOM     18  O   LIG A   1      -6.755   4.498 127.349  0.00  0.00    -0.287 OA
BRANCH  15  19
ATOM     19  O   LIG A   1      -2.240   5.506 127.921  0.00  0.00    -0.491 OA
ATOM     20  C   LIG A   1      -2.694   6.831 128.176  0.00  0.00    +0.277 C 
ENDBRANCH  15  19
ENDBRANCH   5  11
BRANCH   1  21
ATOM     21  O   LIG A   1      -9.304  -2.191 126.365  0.00  0.00    -0.488 OA
ATOM     22  C   LIG A   1      -8.707  -3.377 126.873  0.00  0.00    +0.277 C 
ENDBRANCH   1  21
BRANCH  10  23
ATOM     23  O   LIG A   1      -9.661  -3.062 123.607  0.00  0.00    -0.503 OA
ATOM     24  H   LIG A   1     -10.211  -3.300 124.370  0.00  0.00    +0.292 HD
ENDBRANCH  10  23
TORSDOF 4
ENDMDL
MODEL 9
REMARK VINA RESULT:      -6.5      2.774      7.692
REMARK  Name = NuBBE_2415
REMARK  6 active torsions:
REMARK  status: ('A' for Active; 'I' for Inactive)
REMARK    1  A    between atoms: O_1  and  C_2
REMARK    2  A    between atoms: O_1  and  C_3
REMARK    3  A    between atoms: C_7  and  C_11
REMARK    4  A    between atoms: C_15  and  O_19
REMARK    5  A    between atoms: O_19  and  C_20
REMARK    6  A    between atoms: C_23  and  O_24
REMARK                            x       y       z     vdW  Elec       q    Type
REMARK                         _______ _______ _______ _____ _____    ______ ____
ROOT
ATOM      1  C   LIG A   1      -5.993   3.467 134.120  0.00  0.00    +0.204 A 
ATOM      2  C   LIG A   1      -6.951   4.205 133.397  0.00  0.00    +0.169 A 
ATOM      3  C   LIG A   1      -7.641   5.270 133.996  0.00  0.00    -0.001 A 
ATOM      4  C   LIG A   1      -8.687   6.052 133.252  0.00  0.00    +0.050 C 
ATOM      5  C   LIG A   1      -8.701   5.718 131.755  0.00  0.00    +0.065 C 
ATOM      6  C   LIG A   1      -8.447   4.219 131.580  0.00  0.00    +0.238 C 
ATOM      7  O   LIG A   1      -7.159   3.855 132.082  0.00  0.00    -0.487 OA
ATOM      8  C   LIG A   1      -7.383   5.589 135.334  0.00  0.00    +0.011 A 
ATOM      9  C   LIG A   1      -6.441   4.865 136.060  0.00  0.00    +0.050 A 
ATOM     10  C   LIG A   1      -5.746   3.813 135.456  0.00  0.00    +0.162 A 
ENDROOT
BRANCH   5  11
ATOM     11  C   LIG A   1      -9.967   6.193 131.067  0.00  0.00    +0.010 C 
ATOM     12  C   LIG A   1     -11.086   6.481 131.739  0.00  0.00    +0.062 C 
ATOM     13  C   LIG A   1     -12.334   6.936 131.082  0.00  0.00    +0.221 C 
ATOM     14  O   LIG A   1     -13.298   7.211 131.785  0.00  0.00    -0.284 OA
ATOM     15  C   LIG A   1     -12.330   7.034 129.589  0.00  0.00    +0.170 C 
ATOM     16  C   LIG A   1     -11.204   6.762 128.926  0.00  0.00    +0.100 C 
ATOM     17  C   LIG A   1      -9.959   6.349 129.587  0.00  0.00    +0.186 C 
ATOM     18  O   LIG A   1      -8.958   6.142 128.912  0.00  0.00    -0.287 OA
BRANCH  15  19
ATOM     19  O   LIG A   1     -13.431   7.451 128.852  0.00  0.00    -0.491 OA
ATOM     20  C   LIG A   1     -13.393   8.790 128.370  0.00  0.00    +0.277 C 
ENDBRANCH  15  19
ENDBRANCH   5  11
BRANCH   1  21
ATOM     21  O   LIG A   1      -5.345   2.485 133.412  0.00  0.00    -0.488 OA
ATOM     22  C   LIG A   1      -4.023   2.780 132.978  0.00  0.00    +0.277 C 
ENDBRANCH   1  21
BRANCH  10  23
ATOM     23  O   LIG A   1      -4.806   3.152 136.198  0.00  0.00    -0.503 OA
ATOM     24  H   LIG A   1      -4.551   3.704 136.955  0.00  0.00    +0.292 HD
ENDBRANCH  10  23
TORSDOF 4
ENDMDL
