MODEL 1
REMARK VINA RESULT:      -4.1      0.000      0.000
REMARK  Name = NuBBE_2125
REMARK  5 active torsions:
REMARK  status: ('A' for Active; 'I' for Inactive)
REMARK    1  A    between atoms: C_2  and  C_3
REMARK    2  A    between atoms: C_3  and  C_4
REMARK    3  A    between atoms: C_4  and  C_5
REMARK    4  A    between atoms: C_5  and  C_6
REMARK    5  A    between atoms: C_6  and  C_7
REMARK                            x       y       z     vdW  Elec       q    Type
REMARK                         _______ _______ _______ _____ _____    ______ ____
ROOT
ATOM      1  C   LIG A   1      -6.743  -2.247 123.691  0.00  0.00    +0.004 C 
ENDROOT
BRANCH   1   2
ATOM      2  C   LIG A   1      -5.414  -2.729 123.099  0.00  0.00    +0.026 C 
BRANCH   2   4
ATOM      3  C   LIG A   1      -4.239  -4.925 123.435  0.00  0.00    +0.004 C 
ATOM      4  C   LIG A   1      -4.797  -3.813 123.936  0.00  0.00    -0.035 C 
ENDBRANCH   2   4
ENDBRANCH   1   2
BRANCH   1   5
ATOM      5  C   LIG A   1      -7.224  -3.171 124.814  0.00  0.00    +0.000 C 
BRANCH   5   6
ATOM      6  C   LIG A   1      -8.626  -3.720 124.535  0.00  0.00    -0.003 C 
ATOM      7  C   LIG A   1      -9.271  -3.037 123.338  0.00  0.00    +0.004 C 
ENDBRANCH   5   6
ENDBRANCH   1   5
TORSDOF 4
ENDMDL
MODEL 2
REMARK VINA RESULT:      -3.9     13.213     14.508
REMARK  Name = NuBBE_2125
REMARK  5 active torsions:
REMARK  status: ('A' for Active; 'I' for Inactive)
REMARK    1  A    between atoms: C_2  and  C_3
REMARK    2  A    between atoms: C_3  and  C_4
REMARK    3  A    between atoms: C_4  and  C_5
REMARK    4  A    between atoms: C_5  and  C_6
REMARK    5  A    between atoms: C_6  and  C_7
REMARK                            x       y       z     vdW  Elec       q    Type
REMARK                         _______ _______ _______ _____ _____    ______ ____
ROOT
ATOM      1  C   LIG A   1     -11.732   7.687 129.220  0.00  0.00    +0.004 C 
ENDROOT
BRANCH   1   2
ATOM      2  C   LIG A   1     -12.643   8.589 130.058  0.00  0.00    +0.026 C 
BRANCH   2   4
ATOM      3  C   LIG A   1     -13.513  10.936 129.834  0.00  0.00    +0.004 C 
ATOM      4  C   LIG A   1     -13.107   9.786 129.277  0.00  0.00    -0.035 C 
ENDBRANCH   2   4
ENDBRANCH   1   2
BRANCH   1   5
ATOM      5  C   LIG A   1     -10.919   8.498 128.205  0.00  0.00    +0.000 C 
BRANCH   5   6
ATOM      6  C   LIG A   1     -10.980   7.880 126.806  0.00  0.00    -0.003 C 
ATOM      7  C   LIG A   1     -12.280   7.123 126.581  0.00  0.00    +0.004 C 
ENDBRANCH   5   6
ENDBRANCH   1   5
TORSDOF 4
ENDMDL
MODEL 3
REMARK VINA RESULT:      -3.9      0.785      3.927
REMARK  Name = NuBBE_2125
REMARK  5 active torsions:
REMARK  status: ('A' for Active; 'I' for Inactive)
REMARK    1  A    between atoms: C_2  and  C_3
REMARK    2  A    between atoms: C_3  and  C_4
REMARK    3  A    between atoms: C_4  and  C_5
REMARK    4  A    between atoms: C_5  and  C_6
REMARK    5  A    between atoms: C_6  and  C_7
REMARK                            x       y       z     vdW  Elec       q    Type
REMARK                         _______ _______ _______ _____ _____    ______ ____
ROOT
ATOM      1  C   LIG A   1      -6.776  -2.458 124.897  0.00  0.00    +0.004 C 
ENDROOT
BRANCH   1   2
ATOM      2  C   LIG A   1      -7.651  -3.699 124.696  0.00  0.00    +0.026 C 
BRANCH   2   4
ATOM      3  C   LIG A   1      -9.593  -3.217 123.176  0.00  0.00    +0.004 C 
ATOM      4  C   LIG A   1      -9.079  -3.329 124.409  0.00  0.00    -0.035 C 
ENDBRANCH   2   4
ENDBRANCH   1   2
BRANCH   1   5
ATOM      5  C   LIG A   1      -5.285  -2.801 124.796  0.00  0.00    +0.000 C 
BRANCH   5   6
ATOM      6  C   LIG A   1      -4.921  -3.341 123.411  0.00  0.00    -0.003 C 
ATOM      7  C   LIG A   1      -4.196  -4.676 123.500  0.00  0.00    +0.004 C 
ENDBRANCH   5   6
ENDBRANCH   1   5
TORSDOF 4
ENDMDL
MODEL 4
REMARK VINA RESULT:      -3.8     14.014     14.974
REMARK  Name = NuBBE_2125
REMARK  5 active torsions:
REMARK  status: ('A' for Active; 'I' for Inactive)
REMARK    1  A    between atoms: C_2  and  C_3
REMARK    2  A    between atoms: C_3  and  C_4
REMARK    3  A    between atoms: C_4  and  C_5
REMARK    4  A    between atoms: C_5  and  C_6
REMARK    5  A    between atoms: C_6  and  C_7
REMARK                            x       y       z     vdW  Elec       q    Type
REMARK                         _______ _______ _______ _____ _____    ______ ____
ROOT
ATOM      1  C   LIG A   1     -12.357   8.690 129.628  0.00  0.00    +0.004 C 
ENDROOT
BRANCH   1   2
ATOM      2  C   LIG A   1     -12.155   7.697 128.479  0.00  0.00    +0.026 C 
BRANCH   2   4
ATOM      3  C   LIG A   1     -10.936   7.756 126.282  0.00  0.00    +0.004 C 
ATOM      4  C   LIG A   1     -11.040   8.124 127.568  0.00  0.00    -0.035 C 
ENDBRANCH   2   4
ENDBRANCH   1   2
BRANCH   1   5
ATOM      5  C   LIG A   1     -13.242   9.867 129.203  0.00  0.00    +0.000 C 
BRANCH   5   6
ATOM      6  C   LIG A   1     -13.426  10.876 130.339  0.00  0.00    -0.003 C 
ATOM      7  C   LIG A   1     -13.886  12.231 129.820  0.00  0.00    +0.004 C 
ENDBRANCH   5   6
ENDBRANCH   1   5
TORSDOF 4
ENDMDL
MODEL 5
REMARK VINA RESULT:      -3.8     12.653     13.742
REMARK  Name = NuBBE_2125
REMARK  5 active torsions:
REMARK  status: ('A' for Active; 'I' for Inactive)
REMARK    1  A    between atoms: C_2  and  C_3
REMARK    2  A    between atoms: C_3  and  C_4
REMARK    3  A    between atoms: C_4  and  C_5
REMARK    4  A    between atoms: C_5  and  C_6
REMARK    5  A    between atoms: C_6  and  C_7
REMARK                            x       y       z     vdW  Elec       q    Type
REMARK                         _______ _______ _______ _____ _____    ______ ____
ROOT
ATOM      1  C   LIG A   1     -13.110   7.354 129.921  0.00  0.00    +0.004 C 
ENDROOT
BRANCH   1   2
ATOM      2  C   LIG A   1     -12.730   8.692 129.278  0.00  0.00    +0.026 C 
BRANCH   2   4
ATOM      3  C   LIG A   1     -10.481   8.432 128.188  0.00  0.00    +0.004 C 
ATOM      4  C   LIG A   1     -11.817   8.501 128.101  0.00  0.00    -0.035 C 
ENDBRANCH   2   4
ENDBRANCH   1   2
BRANCH   1   5
ATOM      5  C   LIG A   1     -12.681   7.296 131.391  0.00  0.00    +0.000 C 
BRANCH   5   6
ATOM      6  C   LIG A   1     -11.412   6.461 131.579  0.00  0.00    -0.003 C 
ATOM      7  C   LIG A   1     -11.299   5.365 130.529  0.00  0.00    +0.004 C 
ENDBRANCH   5   6
ENDBRANCH   1   5
TORSDOF 4
ENDMDL
MODEL 6
REMARK VINA RESULT:      -3.7      1.756      2.626
REMARK  Name = NuBBE_2125
REMARK  5 active torsions:
REMARK  status: ('A' for Active; 'I' for Inactive)
REMARK    1  A    between atoms: C_2  and  C_3
REMARK    2  A    between atoms: C_3  and  C_4
REMARK    3  A    between atoms: C_4  and  C_5
REMARK    4  A    between atoms: C_5  and  C_6
REMARK    5  A    between atoms: C_6  and  C_7
REMARK                            x       y       z     vdW  Elec       q    Type
REMARK                         _______ _______ _______ _____ _____    ______ ____
ROOT
ATOM      1  C   LIG A   1      -8.596  -3.000 124.281  0.00  0.00    +0.004 C 
ENDROOT
BRANCH   1   2
ATOM      2  C   LIG A   1      -7.296  -3.795 124.441  0.00  0.00    +0.026 C 
BRANCH   2   4
ATOM      3  C   LIG A   1      -4.912  -3.571 123.679  0.00  0.00    +0.004 C 
ATOM      4  C   LIG A   1      -6.110  -3.025 123.934  0.00  0.00    -0.035 C 
ENDBRANCH   2   4
ENDBRANCH   1   2
BRANCH   1   5
ATOM      5  C   LIG A   1      -9.430  -3.024 125.567  0.00  0.00    +0.000 C 
BRANCH   5   6
ATOM      6  C   LIG A   1      -8.551  -2.909 126.814  0.00  0.00    -0.003 C 
ATOM      7  C   LIG A   1      -8.928  -3.941 127.866  0.00  0.00    +0.004 C 
ENDBRANCH   5   6
ENDBRANCH   1   5
TORSDOF 4
ENDMDL
MODEL 7
REMARK VINA RESULT:      -3.6      2.895      4.451
REMARK  Name = NuBBE_2125
REMARK  5 active torsions:
REMARK  status: ('A' for Active; 'I' for Inactive)
REMARK    1  A    between atoms: C_2  and  C_3
REMARK    2  A    between atoms: C_3  and  C_4
REMARK    3  A    between atoms: C_4  and  C_5
REMARK    4  A    between atoms: C_5  and  C_6
REMARK    5  A    between atoms: C_6  and  C_7
REMARK                            x       y       z     vdW  Elec       q    Type
REMARK                         _______ _______ _______ _____ _____    ______ ____
ROOT
ATOM      1  C   LIG A   1      -9.139  -3.011 126.598  0.00  0.00    +0.004 C 
ENDROOT
BRANCH   1   2
ATOM      2  C   LIG A   1      -8.902  -3.949 127.786  0.00  0.00    +0.026 C 
BRANCH   2   4
ATOM      3  C   LIG A   1      -7.205  -3.554 129.596  0.00  0.00    +0.004 C 
ATOM      4  C   LIG A   1      -8.339  -3.213 128.968  0.00  0.00    -0.035 C 
ENDBRANCH   2   4
ENDBRANCH   1   2
BRANCH   1   5
ATOM      5  C   LIG A   1      -7.961  -3.038 125.618  0.00  0.00    +0.000 C 
BRANCH   5   6
ATOM      6  C   LIG A   1      -8.286  -3.851 124.363  0.00  0.00    -0.003 C 
ATOM      7  C   LIG A   1      -9.385  -3.199 123.538  0.00  0.00    +0.004 C 
ENDBRANCH   5   6
ENDBRANCH   1   5
TORSDOF 4
ENDMDL
MODEL 8
REMARK VINA RESULT:      -3.6      1.315      2.350
REMARK  Name = NuBBE_2125
REMARK  5 active torsions:
REMARK  status: ('A' for Active; 'I' for Inactive)
REMARK    1  A    between atoms: C_2  and  C_3
REMARK    2  A    between atoms: C_3  and  C_4
REMARK    3  A    between atoms: C_4  and  C_5
REMARK    4  A    between atoms: C_5  and  C_6
REMARK    5  A    between atoms: C_6  and  C_7
REMARK                            x       y       z     vdW  Elec       q    Type
REMARK                         _______ _______ _______ _____ _____    ______ ____
ROOT
ATOM      1  C   LIG A   1      -6.390  -2.916 124.723  0.00  0.00    +0.004 C 
ENDROOT
BRANCH   1   2
ATOM      2  C   LIG A   1      -5.674  -2.690 123.388  0.00  0.00    +0.026 C 
BRANCH   2   4
ATOM      3  C   LIG A   1      -6.934  -0.527 123.165  0.00  0.00    +0.004 C 
ATOM      4  C   LIG A   1      -6.297  -1.568 122.608  0.00  0.00    -0.035 C 
ENDBRANCH   2   4
ENDBRANCH   1   2
BRANCH   1   5
ATOM      5  C   LIG A   1      -7.485  -3.981 124.599  0.00  0.00    +0.000 C 
BRANCH   5   6
ATOM      6  C   LIG A   1      -8.884  -3.372 124.720  0.00  0.00    -0.003 C 
ATOM      7  C   LIG A   1      -9.569  -3.258 123.366  0.00  0.00    +0.004 C 
ENDBRANCH   5   6
ENDBRANCH   1   5
TORSDOF 4
ENDMDL
MODEL 9
REMARK VINA RESULT:      -3.5     12.292     13.470
REMARK  Name = NuBBE_2125
REMARK  5 active torsions:
REMARK  status: ('A' for Active; 'I' for Inactive)
REMARK    1  A    between atoms: C_2  and  C_3
REMARK    2  A    between atoms: C_3  and  C_4
REMARK    3  A    between atoms: C_4  and  C_5
REMARK    4  A    between atoms: C_5  and  C_6
REMARK    5  A    between atoms: C_6  and  C_7
REMARK                            x       y       z     vdW  Elec       q    Type
REMARK                         _______ _______ _______ _____ _____    ______ ____
ROOT
ATOM      1  C   LIG A   1     -10.288   7.132 128.630  0.00  0.00    +0.004 C 
ENDROOT
BRANCH   1   2
ATOM      2  C   LIG A   1     -10.792   8.491 128.132  0.00  0.00    +0.026 C 
BRANCH   2   4
ATOM      3  C   LIG A   1     -12.820   9.289 129.383  0.00  0.00    +0.004 C 
ATOM      4  C   LIG A   1     -12.271   8.644 128.343  0.00  0.00    -0.035 C 
ENDBRANCH   2   4
ENDBRANCH   1   2
BRANCH   1   5
ATOM      5  C   LIG A   1      -9.673   7.241 130.029  0.00  0.00    +0.000 C 
BRANCH   5   6
ATOM      6  C   LIG A   1     -10.567   6.599 131.093  0.00  0.00    -0.003 C 
ATOM      7  C   LIG A   1     -11.418   5.479 130.513  0.00  0.00    +0.004 C 
ENDBRANCH   5   6
ENDBRANCH   1   5
TORSDOF 4
ENDMDL
