MODEL 1
REMARK VINA RESULT:      -8.9      0.000      0.000
REMARK  Name = NuBBE_1204
REMARK  12 active torsions:
REMARK  status: ('A' for Active; 'I' for Inactive)
REMARK    1  A    between atoms: C_1  and  C_2
REMARK    2  A    between atoms: C_4  and  C_5
REMARK    3  A    between atoms: C_4  and  C_13
REMARK    4  A    between atoms: C_6  and  O_12
REMARK    5  A    between atoms: C_8  and  O_11
REMARK    6  A    between atoms: C_16  and  C_38
REMARK    7  A    between atoms: C_21  and  C_37
REMARK    8  A    between atoms: C_24  and  C_34
REMARK    9  A    between atoms: C_26  and  C_27
REMARK   10  A    between atoms: C_26  and  O_33
REMARK   11  A    between atoms: C_28  and  C_32
REMARK   12  A    between atoms: C_34  and  O_35
REMARK                            x       y       z     vdW  Elec       q    Type
REMARK                         _______ _______ _______ _____ _____    ______ ____
ROOT
ATOM      1  C   LIG A   1      -9.816   0.114 124.533  0.00  0.00    +0.012 C 
ATOM      2  C   LIG A   1      -8.479  -0.089 125.275  0.00  0.00    -0.023 C 
ATOM      3  C   LIG A   1      -7.294  -0.609 124.378  0.00  0.00    +0.003 C 
ATOM      4  C   LIG A   1      -7.416  -2.079 123.845  0.00  0.00    -0.003 C 
ATOM      5  C   LIG A   1      -6.074  -2.515 123.187  0.00  0.00    +0.014 C 
ATOM      6  C   LIG A   1      -7.633  -3.014 125.071  0.00  0.00    +0.149 C 
ATOM      7  C   LIG A   1      -8.772  -2.598 126.009  0.00  0.00    +0.144 C 
ATOM      8  C   LIG A   1      -8.708  -1.128 126.426  0.00  0.00    +0.041 C 
ATOM      9  C   LIG A   1      -8.490  -2.258 122.757  0.00  0.00    +0.014 C 
ATOM     10  C   LIG A   1      -6.890   0.442 123.329  0.00  0.00    +0.005 C 
ATOM     11  C   LIG A   1      -6.424   1.746 123.995  0.00  0.00    +0.008 C 
ATOM     12  C   LIG A   1      -7.453   2.413 124.962  0.00  0.00    -0.019 C 
ATOM     13  C   LIG A   1      -7.973   1.270 125.916  0.00  0.00    +0.006 C 
ATOM     14  C   LIG A   1      -8.876   1.891 126.990  0.00  0.00    +0.031 C 
ATOM     15  C   LIG A   1      -7.975   2.684 127.884  0.00  0.00    -0.026 C 
ATOM     16  C   LIG A   1      -6.873   3.334 127.444  0.00  0.00    -0.060 C 
ATOM     17  C   LIG A   1      -6.806   3.637 125.907  0.00  0.00    -0.005 C 
ATOM     18  C   LIG A   1      -5.369   4.004 125.477  0.00  0.00    +0.012 C 
ATOM     19  C   LIG A   1      -4.319   3.309 126.327  0.00  0.00    +0.019 C 
ATOM     20  C   LIG A   1      -4.281   3.906 127.757  0.00  0.00    +0.077 C 
ATOM     21  C   LIG A   1      -5.737   3.860 128.415  0.00  0.00    +0.064 C 
ATOM     22  C   LIG A   1      -5.768   3.283 129.914  0.00  0.00    +0.073 C 
ATOM     23  C   LIG A   1      -6.760   4.086 130.779  0.00  0.00    +0.042 C 
ATOM     24  C   LIG A   1      -4.406   3.161 130.640  0.00  0.00    +0.018 C 
ATOM     25  C   LIG A   1      -3.439   2.412 129.732  0.00  0.00    +0.007 C 
ATOM     26  C   LIG A   1      -3.098   3.213 128.499  0.00  0.00    +0.019 C 
ATOM     27  C   LIG A   1      -3.806   4.447 131.206  0.00  0.00    +0.010 C 
ATOM     28  C   LIG A   1      -7.615   4.969 125.772  0.00  0.00    +0.016 C 
ATOM     29  C   LIG A   1      -8.568   2.989 124.045  0.00  0.00    +0.012 C 
ENDROOT
BRANCH   7  30
ATOM     30  O   LIG A   1     -10.039  -2.918 125.437  0.00  0.00    -0.389 OA
ATOM     31  H   LIG A   1     -10.352  -2.095 125.009  0.00  0.00    +0.210 HD
ENDBRANCH   7  30
BRANCH   6  32
ATOM     32  O   LIG A   1      -7.881  -4.361 124.642  0.00  0.00    -0.389 OA
ATOM     33  H   LIG A   1      -8.168  -4.864 125.426  0.00  0.00    +0.210 HD
ENDBRANCH   6  32
BRANCH  22  34
ATOM     34  O   LIG A   1      -6.227   1.909 129.886  0.00  0.00    -0.388 OA
ATOM     35  H   LIG A   1      -6.048   1.543 129.004  0.00  0.00    +0.210 HD
ENDBRANCH  22  34
BRANCH  20  36
ATOM     36  C   LIG A   1      -3.786   5.363 127.583  0.00  0.00    +0.312 C 
ATOM     37  O   LIG A   1      -4.497   6.339 127.380  0.00  0.00    -0.250 OA
BRANCH  36  38
ATOM     38  O   LIG A   1      -2.454   5.536 127.585  0.00  0.00    -0.480 OA
ATOM     39  H   LIG A   1      -2.127   4.819 127.000  0.00  0.00    +0.295 HD
ENDBRANCH  36  38
ENDBRANCH  20  36
TORSDOF 5
ENDMDL
MODEL 2
REMARK VINA RESULT:      -8.6      6.291     11.247
REMARK  Name = NuBBE_1204
REMARK  12 active torsions:
REMARK  status: ('A' for Active; 'I' for Inactive)
REMARK    1  A    between atoms: C_1  and  C_2
REMARK    2  A    between atoms: C_4  and  C_5
REMARK    3  A    between atoms: C_4  and  C_13
REMARK    4  A    between atoms: C_6  and  O_12
REMARK    5  A    between atoms: C_8  and  O_11
REMARK    6  A    between atoms: C_16  and  C_38
REMARK    7  A    between atoms: C_21  and  C_37
REMARK    8  A    between atoms: C_24  and  C_34
REMARK    9  A    between atoms: C_26  and  C_27
REMARK   10  A    between atoms: C_26  and  O_33
REMARK   11  A    between atoms: C_28  and  C_32
REMARK   12  A    between atoms: C_34  and  O_35
REMARK                            x       y       z     vdW  Elec       q    Type
REMARK                         _______ _______ _______ _____ _____    ______ ____
ROOT
ATOM      1  C   LIG A   1      -0.162   7.218 133.448  0.00  0.00    +0.012 C 
ATOM      2  C   LIG A   1      -1.612   7.464 133.916  0.00  0.00    -0.023 C 
ATOM      3  C   LIG A   1      -2.152   8.922 133.668  0.00  0.00    +0.003 C 
ATOM      4  C   LIG A   1      -1.502  10.062 134.527  0.00  0.00    -0.003 C 
ATOM      5  C   LIG A   1      -2.301  11.385 134.340  0.00  0.00    +0.014 C 
ATOM      6  C   LIG A   1      -1.644   9.668 136.027  0.00  0.00    +0.149 C 
ATOM      7  C   LIG A   1      -1.140   8.262 136.377  0.00  0.00    +0.144 C 
ATOM      8  C   LIG A   1      -1.689   7.174 135.454  0.00  0.00    +0.041 C 
ATOM      9  C   LIG A   1      -0.053  10.392 134.128  0.00  0.00    +0.014 C 
ATOM     10  C   LIG A   1      -2.275   9.219 132.163  0.00  0.00    +0.005 C 
ATOM     11  C   LIG A   1      -3.248   8.246 131.479  0.00  0.00    +0.008 C 
ATOM     12  C   LIG A   1      -2.906   6.730 131.636  0.00  0.00    -0.019 C 
ATOM     13  C   LIG A   1      -2.621   6.496 133.169  0.00  0.00    +0.006 C 
ATOM     14  C   LIG A   1      -2.426   4.993 133.415  0.00  0.00    +0.031 C 
ATOM     15  C   LIG A   1      -3.771   4.363 133.227  0.00  0.00    -0.026 C 
ATOM     16  C   LIG A   1      -4.684   4.807 132.333  0.00  0.00    -0.060 C 
ATOM     17  C   LIG A   1      -4.142   5.701 131.165  0.00  0.00    -0.005 C 
ATOM     18  C   LIG A   1      -5.293   6.457 130.466  0.00  0.00    +0.012 C 
ATOM     19  C   LIG A   1      -6.433   6.776 131.419  0.00  0.00    +0.019 C 
ATOM     20  C   LIG A   1      -7.212   5.490 131.798  0.00  0.00    +0.077 C 
ATOM     21  C   LIG A   1      -6.211   4.388 132.381  0.00  0.00    +0.064 C 
ATOM     22  C   LIG A   1      -6.710   3.694 133.740  0.00  0.00    +0.073 C 
ATOM     23  C   LIG A   1      -6.385   2.186 133.725  0.00  0.00    +0.042 C 
ATOM     24  C   LIG A   1      -8.191   3.914 134.132  0.00  0.00    +0.018 C 
ATOM     25  C   LIG A   1      -8.487   5.408 134.081  0.00  0.00    +0.007 C 
ATOM     26  C   LIG A   1      -8.422   5.942 132.670  0.00  0.00    +0.019 C 
ATOM     27  C   LIG A   1      -9.235   3.083 133.388  0.00  0.00    +0.010 C 
ATOM     28  C   LIG A   1      -3.658   4.652 130.111  0.00  0.00    +0.016 C 
ATOM     29  C   LIG A   1      -1.655   6.495 130.745  0.00  0.00    +0.012 C 
ENDROOT
BRANCH   7  30
ATOM     30  O   LIG A   1       0.286   8.234 136.419  0.00  0.00    -0.389 OA
ATOM     31  H   LIG A   1       0.568   9.169 136.467  0.00  0.00    +0.210 HD
ENDBRANCH   7  30
BRANCH   6  32
ATOM     32  O   LIG A   1      -0.955  10.608 136.864  0.00  0.00    -0.389 OA
ATOM     33  H   LIG A   1      -1.582  10.890 137.555  0.00  0.00    +0.210 HD
ENDBRANCH   6  32
BRANCH  22  34
ATOM     34  O   LIG A   1      -6.004   4.280 134.862  0.00  0.00    -0.388 OA
ATOM     35  H   LIG A   1      -5.169   3.797 134.986  0.00  0.00    +0.210 HD
ENDBRANCH  22  34
BRANCH  20  36
ATOM     36  C   LIG A   1      -7.880   5.009 130.487  0.00  0.00    +0.312 C 
ATOM     37  O   LIG A   1      -8.540   5.704 129.724  0.00  0.00    -0.250 OA
BRANCH  36  38
ATOM     38  O   LIG A   1      -7.776   3.697 130.220  0.00  0.00    -0.480 OA
ATOM     39  H   LIG A   1      -7.989   3.638 129.265  0.00  0.00    +0.295 HD
ENDBRANCH  36  38
ENDBRANCH  20  36
TORSDOF 5
ENDMDL
MODEL 3
REMARK VINA RESULT:      -8.6      2.813      5.211
REMARK  Name = NuBBE_1204
REMARK  12 active torsions:
REMARK  status: ('A' for Active; 'I' for Inactive)
REMARK    1  A    between atoms: C_1  and  C_2
REMARK    2  A    between atoms: C_4  and  C_5
REMARK    3  A    between atoms: C_4  and  C_13
REMARK    4  A    between atoms: C_6  and  O_12
REMARK    5  A    between atoms: C_8  and  O_11
REMARK    6  A    between atoms: C_16  and  C_38
REMARK    7  A    between atoms: C_21  and  C_37
REMARK    8  A    between atoms: C_24  and  C_34
REMARK    9  A    between atoms: C_26  and  C_27
REMARK   10  A    between atoms: C_26  and  O_33
REMARK   11  A    between atoms: C_28  and  C_32
REMARK   12  A    between atoms: C_34  and  O_35
REMARK                            x       y       z     vdW  Elec       q    Type
REMARK                         _______ _______ _______ _____ _____    ______ ____
ROOT
ATOM      1  C   LIG A   1      -5.505  -1.149 125.908  0.00  0.00    +0.012 C 
ATOM      2  C   LIG A   1      -6.879  -0.567 126.300  0.00  0.00    -0.023 C 
ATOM      3  C   LIG A   1      -7.999  -1.639 126.579  0.00  0.00    +0.003 C 
ATOM      4  C   LIG A   1      -8.508  -2.455 125.340  0.00  0.00    -0.003 C 
ATOM      5  C   LIG A   1      -9.762  -3.287 125.736  0.00  0.00    +0.014 C 
ATOM      6  C   LIG A   1      -8.975  -1.437 124.258  0.00  0.00    +0.149 C 
ATOM      7  C   LIG A   1      -7.951  -0.349 123.908  0.00  0.00    +0.144 C 
ATOM      8  C   LIG A   1      -7.373   0.357 125.135  0.00  0.00    +0.041 C 
ATOM      9  C   LIG A   1      -7.486  -3.473 124.804  0.00  0.00    +0.014 C 
ATOM     10  C   LIG A   1      -7.667  -2.475 127.828  0.00  0.00    +0.005 C 
ATOM     11  C   LIG A   1      -7.555  -1.590 129.079  0.00  0.00    +0.008 C 
ATOM     12  C   LIG A   1      -6.512  -0.431 128.994  0.00  0.00    -0.019 C 
ATOM     13  C   LIG A   1      -6.772   0.301 127.622  0.00  0.00    +0.006 C 
ATOM     14  C   LIG A   1      -5.877   1.546 127.544  0.00  0.00    +0.031 C 
ATOM     15  C   LIG A   1      -6.423   2.514 128.546  0.00  0.00    -0.026 C 
ATOM     16  C   LIG A   1      -6.988   2.138 129.717  0.00  0.00    -0.060 C 
ATOM     17  C   LIG A   1      -6.642   0.696 130.228  0.00  0.00    -0.005 C 
ATOM     18  C   LIG A   1      -7.632   0.245 131.324  0.00  0.00    +0.012 C 
ATOM     19  C   LIG A   1      -9.013   0.851 131.136  0.00  0.00    +0.019 C 
ATOM     20  C   LIG A   1      -9.000   2.367 131.461  0.00  0.00    +0.077 C 
ATOM     21  C   LIG A   1      -7.878   3.108 130.597  0.00  0.00    +0.064 C 
ATOM     22  C   LIG A   1      -8.379   4.453 129.875  0.00  0.00    +0.073 C 
ATOM     23  C   LIG A   1      -7.285   5.538 129.938  0.00  0.00    +0.042 C 
ATOM     24  C   LIG A   1      -9.733   5.034 130.351  0.00  0.00    +0.018 C 
ATOM     25  C   LIG A   1     -10.773   3.920 130.328  0.00  0.00    +0.007 C 
ATOM     26  C   LIG A   1     -10.475   2.858 131.358  0.00  0.00    +0.019 C 
ATOM     27  C   LIG A   1      -9.730   5.807 131.668  0.00  0.00    +0.010 C 
ATOM     28  C   LIG A   1      -5.285   0.901 130.977  0.00  0.00    +0.016 C 
ATOM     29  C   LIG A   1      -5.121  -1.122 129.056  0.00  0.00    +0.012 C 
ENDROOT
BRANCH   7  30
ATOM     30  O   LIG A   1      -6.917  -0.879 123.080  0.00  0.00    -0.389 OA
ATOM     31  H   LIG A   1      -7.043  -1.849 123.086  0.00  0.00    +0.210 HD
ENDBRANCH   7  30
BRANCH   6  32
ATOM     32  O   LIG A   1      -9.334  -2.116 123.047  0.00  0.00    -0.389 OA
ATOM     33  H   LIG A   1     -10.149  -1.697 122.714  0.00  0.00    +0.210 HD
ENDBRANCH   6  32
BRANCH  22  34
ATOM     34  O   LIG A   1      -8.637   4.175 128.477  0.00  0.00    -0.388 OA
ATOM     35  H   LIG A   1      -9.586   4.306 128.308  0.00  0.00    +0.210 HD
ENDBRANCH  22  34
BRANCH  20  36
ATOM     36  C   LIG A   1      -8.699   2.462 132.977  0.00  0.00    +0.312 C 
ATOM     37  O   LIG A   1      -7.737   1.962 133.547  0.00  0.00    -0.250 OA
BRANCH  36  38
ATOM     38  O   LIG A   1      -9.625   3.087 133.723  0.00  0.00    -0.480 OA
ATOM     39  H   LIG A   1      -9.944   2.386 134.330  0.00  0.00    +0.295 HD
ENDBRANCH  36  38
ENDBRANCH  20  36
TORSDOF 5
ENDMDL
MODEL 4
REMARK VINA RESULT:      -8.6      2.335      4.069
REMARK  Name = NuBBE_1204
REMARK  12 active torsions:
REMARK  status: ('A' for Active; 'I' for Inactive)
REMARK    1  A    between atoms: C_1  and  C_2
REMARK    2  A    between atoms: C_4  and  C_5
REMARK    3  A    between atoms: C_4  and  C_13
REMARK    4  A    between atoms: C_6  and  O_12
REMARK    5  A    between atoms: C_8  and  O_11
REMARK    6  A    between atoms: C_16  and  C_38
REMARK    7  A    between atoms: C_21  and  C_37
REMARK    8  A    between atoms: C_24  and  C_34
REMARK    9  A    between atoms: C_26  and  C_27
REMARK   10  A    between atoms: C_26  and  O_33
REMARK   11  A    between atoms: C_28  and  C_32
REMARK   12  A    between atoms: C_34  and  O_35
REMARK                            x       y       z     vdW  Elec       q    Type
REMARK                         _______ _______ _______ _____ _____    ______ ____
ROOT
ATOM      1  C   LIG A   1      -6.750   2.171 124.026  0.00  0.00    +0.012 C 
ATOM      2  C   LIG A   1      -7.438   1.467 125.214  0.00  0.00    -0.023 C 
ATOM      3  C   LIG A   1      -7.040  -0.044 125.411  0.00  0.00    +0.003 C 
ATOM      4  C   LIG A   1      -7.535  -1.046 124.311  0.00  0.00    -0.003 C 
ATOM      5  C   LIG A   1      -7.271  -2.509 124.770  0.00  0.00    +0.014 C 
ATOM      6  C   LIG A   1      -9.080  -0.892 124.187  0.00  0.00    +0.149 C 
ATOM      7  C   LIG A   1      -9.574   0.546 123.986  0.00  0.00    +0.144 C 
ATOM      8  C   LIG A   1      -8.989   1.535 124.995  0.00  0.00    +0.041 C 
ATOM      9  C   LIG A   1      -6.809  -0.896 122.962  0.00  0.00    +0.014 C 
ATOM     10  C   LIG A   1      -5.559  -0.180 125.808  0.00  0.00    +0.005 C 
ATOM     11  C   LIG A   1      -5.266   0.550 127.129  0.00  0.00    +0.008 C 
ATOM     12  C   LIG A   1      -5.626   2.069 127.153  0.00  0.00    -0.019 C 
ATOM     13  C   LIG A   1      -7.090   2.189 126.581  0.00  0.00    +0.006 C 
ATOM     14  C   LIG A   1      -7.561   3.643 126.719  0.00  0.00    +0.031 C 
ATOM     15  C   LIG A   1      -7.757   3.880 128.184  0.00  0.00    -0.026 C 
ATOM     16  C   LIG A   1      -6.992   3.305 129.141  0.00  0.00    -0.060 C 
ATOM     17  C   LIG A   1      -5.598   2.751 128.684  0.00  0.00    -0.005 C 
ATOM     18  C   LIG A   1      -5.012   1.787 129.739  0.00  0.00    +0.012 C 
ATOM     19  C   LIG A   1      -6.095   1.043 130.502  0.00  0.00    +0.019 C 
ATOM     20  C   LIG A   1      -6.845   1.997 131.468  0.00  0.00    +0.077 C 
ATOM     21  C   LIG A   1      -7.411   3.260 130.668  0.00  0.00    +0.064 C 
ATOM     22  C   LIG A   1      -8.945   3.613 130.989  0.00  0.00    +0.073 C 
ATOM     23  C   LIG A   1      -9.140   5.141 131.068  0.00  0.00    +0.042 C 
ATOM     24  C   LIG A   1      -9.570   2.932 132.230  0.00  0.00    +0.018 C 
ATOM     25  C   LIG A   1      -9.308   1.434 132.144  0.00  0.00    +0.007 C 
ATOM     26  C   LIG A   1      -7.840   1.115 132.282  0.00  0.00    +0.019 C 
ATOM     27  C   LIG A   1      -9.208   3.514 133.596  0.00  0.00    +0.010 C 
ATOM     28  C   LIG A   1      -4.678   4.014 128.744  0.00  0.00    +0.016 C 
ATOM     29  C   LIG A   1      -4.566   2.759 126.250  0.00  0.00    +0.012 C 
ENDROOT
BRANCH   7  30
ATOM     30  O   LIG A   1      -9.343   0.975 122.645  0.00  0.00    -0.389 OA
ATOM     31  H   LIG A   1      -8.525   1.512 122.677  0.00  0.00    +0.210 HD
ENDBRANCH   7  30
BRANCH   6  32
ATOM     32  O   LIG A   1      -9.582  -1.691 123.106  0.00  0.00    -0.389 OA
ATOM     33  H   LIG A   1      -9.461  -1.175 122.288  0.00  0.00    +0.210 HD
ENDBRANCH   6  32
BRANCH  22  34
ATOM     34  O   LIG A   1      -9.782   3.123 129.914  0.00  0.00    -0.388 OA
ATOM     35  H   LIG A   1     -10.691   3.035 130.247  0.00  0.00    +0.210 HD
ENDBRANCH  22  34
BRANCH  20  36
ATOM     36  C   LIG A   1      -5.798   2.421 132.526  0.00  0.00    +0.312 C 
ATOM     37  O   LIG A   1      -5.214   1.668 133.295  0.00  0.00    -0.250 OA
BRANCH  36  38
ATOM     38  O   LIG A   1      -5.583   3.742 132.644  0.00  0.00    -0.480 OA
ATOM     39  H   LIG A   1      -4.616   3.805 132.797  0.00  0.00    +0.295 HD
ENDBRANCH  36  38
ENDBRANCH  20  36
TORSDOF 5
ENDMDL
MODEL 5
REMARK VINA RESULT:      -8.4      1.968      7.548
REMARK  Name = NuBBE_1204
REMARK  12 active torsions:
REMARK  status: ('A' for Active; 'I' for Inactive)
REMARK    1  A    between atoms: C_1  and  C_2
REMARK    2  A    between atoms: C_4  and  C_5
REMARK    3  A    between atoms: C_4  and  C_13
REMARK    4  A    between atoms: C_6  and  O_12
REMARK    5  A    between atoms: C_8  and  O_11
REMARK    6  A    between atoms: C_16  and  C_38
REMARK    7  A    between atoms: C_21  and  C_37
REMARK    8  A    between atoms: C_24  and  C_34
REMARK    9  A    between atoms: C_26  and  C_27
REMARK   10  A    between atoms: C_26  and  O_33
REMARK   11  A    between atoms: C_28  and  C_32
REMARK   12  A    between atoms: C_34  and  O_35
REMARK                            x       y       z     vdW  Elec       q    Type
REMARK                         _______ _______ _______ _____ _____    ______ ____
ROOT
ATOM      1  C   LIG A   1      -4.223   4.523 128.661  0.00  0.00    +0.012 C 
ATOM      2  C   LIG A   1      -5.162   3.326 128.913  0.00  0.00    -0.023 C 
ATOM      3  C   LIG A   1      -6.521   3.685 129.622  0.00  0.00    +0.003 C 
ATOM      4  C   LIG A   1      -6.427   4.144 131.119  0.00  0.00    -0.003 C 
ATOM      5  C   LIG A   1      -7.854   4.227 131.736  0.00  0.00    +0.014 C 
ATOM      6  C   LIG A   1      -5.666   3.039 131.909  0.00  0.00    +0.149 C 
ATOM      7  C   LIG A   1      -4.322   2.618 131.303  0.00  0.00    +0.144 C 
ATOM      8  C   LIG A   1      -4.406   2.288 129.812  0.00  0.00    +0.041 C 
ATOM      9  C   LIG A   1      -5.812   5.543 131.303  0.00  0.00    +0.014 C 
ATOM     10  C   LIG A   1      -7.403   4.563 128.717  0.00  0.00    +0.005 C 
ATOM     11  C   LIG A   1      -7.746   3.844 127.403  0.00  0.00    +0.008 C 
ATOM     12  C   LIG A   1      -6.523   3.369 126.556  0.00  0.00    -0.019 C 
ATOM     13  C   LIG A   1      -5.558   2.618 127.551  0.00  0.00    +0.006 C 
ATOM     14  C   LIG A   1      -4.406   1.994 126.751  0.00  0.00    +0.031 C 
ATOM     15  C   LIG A   1      -5.006   0.874 125.961  0.00  0.00    -0.026 C 
ATOM     16  C   LIG A   1      -6.262   0.904 125.459  0.00  0.00    -0.060 C 
ATOM     17  C   LIG A   1      -6.922   2.319 125.312  0.00  0.00    -0.005 C 
ATOM     18  C   LIG A   1      -8.449   2.201 125.119  0.00  0.00    +0.012 C 
ATOM     19  C   LIG A   1      -9.025   0.983 125.823  0.00  0.00    +0.019 C 
ATOM     20  C   LIG A   1      -8.609  -0.323 125.098  0.00  0.00    +0.077 C 
ATOM     21  C   LIG A   1      -7.019  -0.390 124.949  0.00  0.00    +0.064 C 
ATOM     22  C   LIG A   1      -6.373  -1.798 125.375  0.00  0.00    +0.073 C 
ATOM     23  C   LIG A   1      -5.237  -2.185 124.406  0.00  0.00    +0.042 C 
ATOM     24  C   LIG A   1      -7.350  -2.986 125.551  0.00  0.00    +0.018 C 
ATOM     25  C   LIG A   1      -8.485  -2.548 126.467  0.00  0.00    +0.007 C 
ATOM     26  C   LIG A   1      -9.346  -1.489 125.822  0.00  0.00    +0.019 C 
ATOM     27  C   LIG A   1      -7.852  -3.664 124.277  0.00  0.00    +0.010 C 
ATOM     28  C   LIG A   1      -6.384   2.820 123.931  0.00  0.00    +0.016 C 
ATOM     29  C   LIG A   1      -5.898   4.666 125.971  0.00  0.00    +0.012 C 
ENDROOT
BRANCH   7  30
ATOM     30  O   LIG A   1      -3.323   3.604 131.560  0.00  0.00    -0.389 OA
ATOM     31  H   LIG A   1      -2.784   3.250 132.295  0.00  0.00    +0.210 HD
ENDBRANCH   7  30
BRANCH   6  32
ATOM     32  O   LIG A   1      -5.433   3.455 133.263  0.00  0.00    -0.389 OA
ATOM     33  H   LIG A   1      -4.828   4.218 133.228  0.00  0.00    +0.210 HD
ENDBRANCH   6  32
BRANCH  22  34
ATOM     34  O   LIG A   1      -5.795  -1.676 126.698  0.00  0.00    -0.388 OA
ATOM     35  H   LIG A   1      -5.252  -0.870 126.723  0.00  0.00    +0.210 HD
ENDBRANCH  22  34
BRANCH  20  36
ATOM     36  C   LIG A   1      -9.304  -0.267 123.716  0.00  0.00    +0.312 C 
ATOM     37  O   LIG A   1     -10.398   0.233 123.486  0.00  0.00    -0.250 OA
BRANCH  36  38
ATOM     38  O   LIG A   1      -8.668  -0.893 122.712  0.00  0.00    -0.480 OA
ATOM     39  H   LIG A   1      -7.757  -1.014 123.055  0.00  0.00    +0.295 HD
ENDBRANCH  36  38
ENDBRANCH  20  36
TORSDOF 5
ENDMDL
MODEL 6
REMARK VINA RESULT:      -8.3      5.251      8.443
REMARK  Name = NuBBE_1204
REMARK  12 active torsions:
REMARK  status: ('A' for Active; 'I' for Inactive)
REMARK    1  A    between atoms: C_1  and  C_2
REMARK    2  A    between atoms: C_4  and  C_5
REMARK    3  A    between atoms: C_4  and  C_13
REMARK    4  A    between atoms: C_6  and  O_12
REMARK    5  A    between atoms: C_8  and  O_11
REMARK    6  A    between atoms: C_16  and  C_38
REMARK    7  A    between atoms: C_21  and  C_37
REMARK    8  A    between atoms: C_24  and  C_34
REMARK    9  A    between atoms: C_26  and  C_27
REMARK   10  A    between atoms: C_26  and  O_33
REMARK   11  A    between atoms: C_28  and  C_32
REMARK   12  A    between atoms: C_34  and  O_35
REMARK                            x       y       z     vdW  Elec       q    Type
REMARK                         _______ _______ _______ _____ _____    ______ ____
ROOT
ATOM      1  C   LIG A   1      -6.909   5.652 133.241  0.00  0.00    +0.012 C 
ATOM      2  C   LIG A   1      -7.469   4.416 132.508  0.00  0.00    -0.023 C 
ATOM      3  C   LIG A   1      -7.662   4.595 130.955  0.00  0.00    +0.003 C 
ATOM      4  C   LIG A   1      -8.789   5.586 130.502  0.00  0.00    -0.003 C 
ATOM      5  C   LIG A   1      -9.009   5.469 128.965  0.00  0.00    +0.014 C 
ATOM      6  C   LIG A   1     -10.119   5.136 131.175  0.00  0.00    +0.149 C 
ATOM      7  C   LIG A   1     -10.041   4.937 132.694  0.00  0.00    +0.144 C 
ATOM      8  C   LIG A   1      -8.864   4.064 133.132  0.00  0.00    +0.041 C 
ATOM      9  C   LIG A   1      -8.458   7.067 130.762  0.00  0.00    +0.014 C 
ATOM     10  C   LIG A   1      -6.307   4.767 130.245  0.00  0.00    +0.005 C 
ATOM     11  C   LIG A   1      -5.405   3.542 130.459  0.00  0.00    +0.008 C 
ATOM     12  C   LIG A   1      -5.115   3.170 131.947  0.00  0.00    -0.019 C 
ATOM     13  C   LIG A   1      -6.509   3.167 132.684  0.00  0.00    +0.006 C 
ATOM     14  C   LIG A   1      -6.313   2.660 134.119  0.00  0.00    +0.031 C 
ATOM     15  C   LIG A   1      -5.994   1.203 134.006  0.00  0.00    -0.026 C 
ATOM     16  C   LIG A   1      -5.291   0.670 132.980  0.00  0.00    -0.060 C 
ATOM     17  C   LIG A   1      -4.408   1.663 132.148  0.00  0.00    -0.005 C 
ATOM     18  C   LIG A   1      -3.987   1.036 130.801  0.00  0.00    +0.012 C 
ATOM     19  C   LIG A   1      -5.025   0.059 130.274  0.00  0.00    +0.019 C 
ATOM     20  C   LIG A   1      -5.047  -1.237 131.124  0.00  0.00    +0.077 C 
ATOM     21  C   LIG A   1      -5.263  -0.882 132.667  0.00  0.00    +0.064 C 
ATOM     22  C   LIG A   1      -6.384  -1.769 133.400  0.00  0.00    +0.073 C 
ATOM     23  C   LIG A   1      -5.931  -2.136 134.829  0.00  0.00    +0.042 C 
ATOM     24  C   LIG A   1      -6.865  -3.037 132.654  0.00  0.00    +0.018 C 
ATOM     25  C   LIG A   1      -7.249  -2.644 131.232  0.00  0.00    +0.007 C 
ATOM     26  C   LIG A   1      -6.047  -2.210 130.429  0.00  0.00    +0.019 C 
ATOM     27  C   LIG A   1      -5.948  -4.257 132.698  0.00  0.00    +0.010 C 
ATOM     28  C   LIG A   1      -3.086   1.746 132.979  0.00  0.00    +0.016 C 
ATOM     29  C   LIG A   1      -4.157   4.276 132.471  0.00  0.00    +0.012 C 
ENDROOT
BRANCH   7  30
ATOM     30  O   LIG A   1     -10.031   6.195 133.367  0.00  0.00    -0.389 OA
ATOM     31  H   LIG A   1      -9.809   6.859 132.684  0.00  0.00    +0.210 HD
ENDBRANCH   7  30
BRANCH   6  32
ATOM     32  O   LIG A   1     -11.168   6.077 130.904  0.00  0.00    -0.389 OA
ATOM     33  H   LIG A   1     -11.700   5.711 130.174  0.00  0.00    +0.210 HD
ENDBRANCH   6  32
BRANCH  22  34
ATOM     34  O   LIG A   1      -7.603  -0.996 133.515  0.00  0.00    -0.388 OA
ATOM     35  H   LIG A   1      -7.434  -0.102 133.173  0.00  0.00    +0.210 HD
ENDBRANCH  22  34
BRANCH  20  36
ATOM     36  C   LIG A   1      -3.674  -1.911 130.886  0.00  0.00    +0.312 C 
ATOM     37  O   LIG A   1      -2.854  -2.189 131.753  0.00  0.00    -0.250 OA
BRANCH  36  38
ATOM     38  O   LIG A   1      -3.341  -2.133 129.604  0.00  0.00    -0.480 OA
ATOM     39  H   LIG A   1      -2.384  -1.916 129.573  0.00  0.00    +0.295 HD
ENDBRANCH  36  38
ENDBRANCH  20  36
TORSDOF 5
ENDMDL
MODEL 7
REMARK VINA RESULT:      -8.2      3.948      8.128
REMARK  Name = NuBBE_1204
REMARK  12 active torsions:
REMARK  status: ('A' for Active; 'I' for Inactive)
REMARK    1  A    between atoms: C_1  and  C_2
REMARK    2  A    between atoms: C_4  and  C_5
REMARK    3  A    between atoms: C_4  and  C_13
REMARK    4  A    between atoms: C_6  and  O_12
REMARK    5  A    between atoms: C_8  and  O_11
REMARK    6  A    between atoms: C_16  and  C_38
REMARK    7  A    between atoms: C_21  and  C_37
REMARK    8  A    between atoms: C_24  and  C_34
REMARK    9  A    between atoms: C_26  and  C_27
REMARK   10  A    between atoms: C_26  and  O_33
REMARK   11  A    between atoms: C_28  and  C_32
REMARK   12  A    between atoms: C_34  and  O_35
REMARK                            x       y       z     vdW  Elec       q    Type
REMARK                         _______ _______ _______ _____ _____    ______ ____
ROOT
ATOM      1  C   LIG A   1      -6.840   4.261 128.747  0.00  0.00    +0.012 C 
ATOM      2  C   LIG A   1      -5.756   3.224 129.109  0.00  0.00    -0.023 C 
ATOM      3  C   LIG A   1      -4.692   3.715 130.161  0.00  0.00    +0.003 C 
ATOM      4  C   LIG A   1      -3.702   4.833 129.682  0.00  0.00    -0.003 C 
ATOM      5  C   LIG A   1      -2.578   5.032 130.741  0.00  0.00    +0.014 C 
ATOM      6  C   LIG A   1      -3.005   4.329 128.384  0.00  0.00    +0.149 C 
ATOM      7  C   LIG A   1      -3.956   3.832 127.289  0.00  0.00    +0.144 C 
ATOM      8  C   LIG A   1      -4.994   2.830 127.797  0.00  0.00    +0.041 C 
ATOM      9  C   LIG A   1      -4.360   6.215 129.511  0.00  0.00    +0.014 C 
ATOM     10  C   LIG A   1      -5.340   3.953 131.536  0.00  0.00    +0.005 C 
ATOM     11  C   LIG A   1      -5.971   2.664 132.087  0.00  0.00    +0.008 C 
ATOM     12  C   LIG A   1      -7.040   1.992 131.168  0.00  0.00    -0.019 C 
ATOM     13  C   LIG A   1      -6.405   1.917 129.727  0.00  0.00    +0.006 C 
ATOM     14  C   LIG A   1      -7.348   1.128 128.808  0.00  0.00    +0.031 C 
ATOM     15  C   LIG A   1      -7.288  -0.293 129.271  0.00  0.00    -0.026 C 
ATOM     16  C   LIG A   1      -7.124  -0.650 130.566  0.00  0.00    -0.060 C 
ATOM     17  C   LIG A   1      -7.466   0.441 131.640  0.00  0.00    -0.005 C 
ATOM     18  C   LIG A   1      -6.871   0.069 133.016  0.00  0.00    +0.012 C 
ATOM     19  C   LIG A   1      -5.584  -0.730 132.889  0.00  0.00    +0.019 C 
ATOM     20  C   LIG A   1      -5.872  -2.165 132.378  0.00  0.00    +0.077 C 
ATOM     21  C   LIG A   1      -6.701  -2.110 131.012  0.00  0.00    +0.064 C 
ATOM     22  C   LIG A   1      -6.131  -3.063 129.853  0.00  0.00    +0.073 C 
ATOM     23  C   LIG A   1      -7.291  -3.727 129.082  0.00  0.00    +0.042 C 
ATOM     24  C   LIG A   1      -5.096  -4.133 130.278  0.00  0.00    +0.018 C 
ATOM     25  C   LIG A   1      -3.998  -3.449 131.083  0.00  0.00    +0.007 C 
ATOM     26  C   LIG A   1      -4.514  -2.929 132.402  0.00  0.00    +0.019 C 
ATOM     27  C   LIG A   1      -5.636  -5.384 130.967  0.00  0.00    +0.010 C 
ATOM     28  C   LIG A   1      -9.012   0.289 131.821  0.00  0.00    +0.016 C 
ATOM     29  C   LIG A   1      -8.284   2.922 131.233  0.00  0.00    +0.012 C 
ENDROOT
BRANCH   7  30
ATOM     30  O   LIG A   1      -4.579   4.931 126.625  0.00  0.00    -0.389 OA
ATOM     31  H   LIG A   1      -5.207   4.534 125.988  0.00  0.00    +0.210 HD
ENDBRANCH   7  30
BRANCH   6  32
ATOM     32  O   LIG A   1      -2.179   5.359 127.822  0.00  0.00    -0.389 OA
ATOM     33  H   LIG A   1      -2.710   5.814 127.143  0.00  0.00    +0.210 HD
ENDBRANCH   6  32
BRANCH  22  34
ATOM     34  O   LIG A   1      -5.379  -2.266 128.906  0.00  0.00    -0.388 OA
ATOM     35  H   LIG A   1      -5.258  -2.786 128.094  0.00  0.00    +0.210 HD
ENDBRANCH  22  34
BRANCH  20  36
ATOM     36  C   LIG A   1      -6.685  -2.849 133.504  0.00  0.00    +0.312 C 
ATOM     37  O   LIG A   1      -6.284  -3.073 134.639  0.00  0.00    -0.250 OA
BRANCH  36  38
ATOM     38  O   LIG A   1      -7.905  -3.295 133.162  0.00  0.00    -0.480 OA
ATOM     39  H   LIG A   1      -8.018  -2.975 132.242  0.00  0.00    +0.295 HD
ENDBRANCH  36  38
ENDBRANCH  20  36
TORSDOF 5
ENDMDL
MODEL 8
REMARK VINA RESULT:      -8.2      3.588      6.333
REMARK  Name = NuBBE_1204
REMARK  12 active torsions:
REMARK  status: ('A' for Active; 'I' for Inactive)
REMARK    1  A    between atoms: C_1  and  C_2
REMARK    2  A    between atoms: C_4  and  C_5
REMARK    3  A    between atoms: C_4  and  C_13
REMARK    4  A    between atoms: C_6  and  O_12
REMARK    5  A    between atoms: C_8  and  O_11
REMARK    6  A    between atoms: C_16  and  C_38
REMARK    7  A    between atoms: C_21  and  C_37
REMARK    8  A    between atoms: C_24  and  C_34
REMARK    9  A    between atoms: C_26  and  C_27
REMARK   10  A    between atoms: C_26  and  O_33
REMARK   11  A    between atoms: C_28  and  C_32
REMARK   12  A    between atoms: C_34  and  O_35
REMARK                            x       y       z     vdW  Elec       q    Type
REMARK                         _______ _______ _______ _____ _____    ______ ____
ROOT
ATOM      1  C   LIG A   1      -8.224   4.155 127.944  0.00  0.00    +0.012 C 
ATOM      2  C   LIG A   1      -7.374   2.931 127.544  0.00  0.00    -0.023 C 
ATOM      3  C   LIG A   1      -5.987   3.275 126.882  0.00  0.00    +0.003 C 
ATOM      4  C   LIG A   1      -6.036   3.921 125.454  0.00  0.00    -0.003 C 
ATOM      5  C   LIG A   1      -4.602   3.975 124.849  0.00  0.00    +0.014 C 
ATOM      6  C   LIG A   1      -6.870   2.981 124.534  0.00  0.00    +0.149 C 
ATOM      7  C   LIG A   1      -8.246   2.589 125.086  0.00  0.00    +0.144 C 
ATOM      8  C   LIG A   1      -8.198   2.072 126.524  0.00  0.00    +0.041 C 
ATOM      9  C   LIG A   1      -6.545   5.373 125.446  0.00  0.00    +0.014 C 
ATOM     10  C   LIG A   1      -5.049   3.966 127.887  0.00  0.00    +0.005 C 
ATOM     11  C   LIG A   1      -4.770   3.067 129.102  0.00  0.00    +0.008 C 
ATOM     12  C   LIG A   1      -6.031   2.582 129.885  0.00  0.00    -0.019 C 
ATOM     13  C   LIG A   1      -7.041   2.034 128.807  0.00  0.00    +0.006 C 
ATOM     14  C   LIG A   1      -8.242   1.402 129.525  0.00  0.00    +0.031 C 
ATOM     15  C   LIG A   1      -7.731   0.151 130.169  0.00  0.00    -0.026 C 
ATOM     16  C   LIG A   1      -6.480   0.027 130.669  0.00  0.00    -0.060 C 
ATOM     17  C   LIG A   1      -5.719   1.360 130.989  0.00  0.00    -0.005 C 
ATOM     18  C   LIG A   1      -4.206   1.107 131.163  0.00  0.00    +0.012 C 
ATOM     19  C   LIG A   1      -3.716  -0.054 130.312  0.00  0.00    +0.019 C 
ATOM     20  C   LIG A   1      -4.232  -1.405 130.871  0.00  0.00    +0.077 C 
ATOM     21  C   LIG A   1      -5.824  -1.373 131.013  0.00  0.00    +0.064 C 
ATOM     22  C   LIG A   1      -6.568  -2.666 130.417  0.00  0.00    +0.073 C 
ATOM     23  C   LIG A   1      -7.737  -3.084 131.333  0.00  0.00    +0.042 C 
ATOM     24  C   LIG A   1      -5.680  -3.892 130.094  0.00  0.00    +0.018 C 
ATOM     25  C   LIG A   1      -4.509  -3.428 129.237  0.00  0.00    +0.007 C 
ATOM     26  C   LIG A   1      -3.577  -2.524 130.006  0.00  0.00    +0.019 C 
ATOM     27  C   LIG A   1      -5.239  -4.757 131.273  0.00  0.00    +0.010 C 
ATOM     28  C   LIG A   1      -6.229   1.724 132.422  0.00  0.00    +0.016 C 
ATOM     29  C   LIG A   1      -6.564   3.840 130.627  0.00  0.00    +0.012 C 
ENDROOT
BRANCH   7  30
ATOM     30  O   LIG A   1      -9.168   3.670 124.955  0.00  0.00    -0.389 OA
ATOM     31  H   LIG A   1     -10.058   3.269 125.026  0.00  0.00    +0.210 HD
ENDBRANCH   7  30
BRANCH   6  32
ATOM     32  O   LIG A   1      -7.062   3.577 123.243  0.00  0.00    -0.389 OA
ATOM     33  H   LIG A   1      -6.372   3.218 122.656  0.00  0.00    +0.210 HD
ENDBRANCH   6  32
BRANCH  22  34
ATOM     34  O   LIG A   1      -7.126  -2.339 129.121  0.00  0.00    -0.388 OA
ATOM     35  H   LIG A   1      -7.121  -3.142 128.573  0.00  0.00    +0.210 HD
ENDBRANCH  22  34
BRANCH  20  36
ATOM     36  C   LIG A   1      -3.545  -1.572 132.248  0.00  0.00    +0.312 C 
ATOM     37  O   LIG A   1      -2.343  -1.712 132.435  0.00  0.00    -0.250 OA
BRANCH  36  38
ATOM     38  O   LIG A   1      -4.365  -1.642 133.310  0.00  0.00    -0.480 OA
ATOM     39  H   LIG A   1      -4.209  -2.544 133.663  0.00  0.00    +0.295 HD
ENDBRANCH  36  38
ENDBRANCH  20  36
TORSDOF 5
ENDMDL
MODEL 9
REMARK VINA RESULT:      -8.2      1.988      2.872
REMARK  Name = NuBBE_1204
REMARK  12 active torsions:
REMARK  status: ('A' for Active; 'I' for Inactive)
REMARK    1  A    between atoms: C_1  and  C_2
REMARK    2  A    between atoms: C_4  and  C_5
REMARK    3  A    between atoms: C_4  and  C_13
REMARK    4  A    between atoms: C_6  and  O_12
REMARK    5  A    between atoms: C_8  and  O_11
REMARK    6  A    between atoms: C_16  and  C_38
REMARK    7  A    between atoms: C_21  and  C_37
REMARK    8  A    between atoms: C_24  and  C_34
REMARK    9  A    between atoms: C_26  and  C_27
REMARK   10  A    between atoms: C_26  and  O_33
REMARK   11  A    between atoms: C_28  and  C_32
REMARK   12  A    between atoms: C_34  and  O_35
REMARK                            x       y       z     vdW  Elec       q    Type
REMARK                         _______ _______ _______ _____ _____    ______ ____
ROOT
ATOM      1  C   LIG A   1      -8.136   0.451 124.245  0.00  0.00    +0.012 C 
ATOM      2  C   LIG A   1      -7.726  -0.201 125.581  0.00  0.00    -0.023 C 
ATOM      3  C   LIG A   1      -6.441  -1.109 125.511  0.00  0.00    +0.003 C 
ATOM      4  C   LIG A   1      -6.575  -2.447 124.704  0.00  0.00    -0.003 C 
ATOM      5  C   LIG A   1      -5.313  -3.329 124.930  0.00  0.00    +0.014 C 
ATOM      6  C   LIG A   1      -7.780  -3.239 125.292  0.00  0.00    +0.149 C 
ATOM      7  C   LIG A   1      -9.088  -2.444 125.400  0.00  0.00    +0.144 C 
ATOM      8  C   LIG A   1      -8.917  -1.086 126.083  0.00  0.00    +0.041 C 
ATOM      9  C   LIG A   1      -6.676  -2.247 123.181  0.00  0.00    +0.014 C 
ATOM     10  C   LIG A   1      -5.188  -0.272 125.197  0.00  0.00    +0.005 C 
ATOM     11  C   LIG A   1      -4.940   0.792 126.277  0.00  0.00    +0.008 C 
ATOM     12  C   LIG A   1      -6.121   1.783 126.529  0.00  0.00    -0.019 C 
ATOM     13  C   LIG A   1      -7.418   0.900 126.679  0.00  0.00    +0.006 C 
ATOM     14  C   LIG A   1      -8.592   1.804 127.080  0.00  0.00    +0.031 C 
ATOM     15  C   LIG A   1      -8.322   2.239 128.486  0.00  0.00    -0.026 C 
ATOM     16  C   LIG A   1      -7.079   2.460 128.973  0.00  0.00    -0.060 C 
ATOM     17  C   LIG A   1      -5.948   2.710 127.915  0.00  0.00    -0.005 C 
ATOM     18  C   LIG A   1      -4.550   2.549 128.551  0.00  0.00    +0.012 C 
ATOM     19  C   LIG A   1      -4.546   1.536 129.683  0.00  0.00    +0.019 C 
ATOM     20  C   LIG A   1      -5.290   2.093 130.925  0.00  0.00    +0.077 C 
ATOM     21  C   LIG A   1      -6.764   2.562 130.522  0.00  0.00    +0.064 C 
ATOM     22  C   LIG A   1      -7.918   2.043 131.511  0.00  0.00    +0.073 C 
ATOM     23  C   LIG A   1      -8.970   3.148 131.739  0.00  0.00    +0.042 C 
ATOM     24  C   LIG A   1      -7.459   1.458 132.869  0.00  0.00    +0.018 C 
ATOM     25  C   LIG A   1      -6.382   0.413 132.606  0.00  0.00    +0.007 C 
ATOM     26  C   LIG A   1      -5.122   1.035 132.057  0.00  0.00    +0.019 C 
ATOM     27  C   LIG A   1      -7.055   2.457 133.952  0.00  0.00    +0.010 C 
ATOM     28  C   LIG A   1      -6.075   4.239 127.614  0.00  0.00    +0.016 C 
ATOM     29  C   LIG A   1      -6.159   2.705 125.279  0.00  0.00    +0.012 C 
ENDROOT
BRANCH   7  30
ATOM     30  O   LIG A   1      -9.699  -2.305 124.118  0.00  0.00    -0.389 OA
ATOM     31  H   LIG A   1      -9.107  -1.720 123.604  0.00  0.00    +0.210 HD
ENDBRANCH   7  30
BRANCH   6  32
ATOM     32  O   LIG A   1      -8.039  -4.417 124.515  0.00  0.00    -0.389 OA
ATOM     33  H   LIG A   1      -8.316  -5.115 125.136  0.00  0.00    +0.210 HD
ENDBRANCH   6  32
BRANCH  22  34
ATOM     34  O   LIG A   1      -8.595   0.916 130.903  0.00  0.00    -0.388 OA
ATOM     35  H   LIG A   1      -9.361   1.249 130.406  0.00  0.00    +0.210 HD
ENDBRANCH  22  34
BRANCH  20  36
ATOM     36  C   LIG A   1      -4.434   3.283 131.420  0.00  0.00    +0.312 C 
ATOM     37  O   LIG A   1      -3.304   3.206 131.886  0.00  0.00    -0.250 OA
BRANCH  36  38
ATOM     38  O   LIG A   1      -5.030   4.487 131.398  0.00  0.00    -0.480 OA
ATOM     39  H   LIG A   1      -4.362   5.067 130.974  0.00  0.00    +0.295 HD
ENDBRANCH  36  38
ENDBRANCH  20  36
TORSDOF 5
ENDMDL
