MODEL 1
REMARK VINA RESULT:      -6.3      0.000      0.000
REMARK  Name = NuBBE_147
REMARK  6 active torsions:
REMARK  status: ('A' for Active; 'I' for Inactive)
REMARK    1  A    between atoms: C_1  and  O_2
REMARK    2  A    between atoms: O_2  and  C_3
REMARK    3  A    between atoms: C_4  and  O_5
REMARK    4  A    between atoms: O_5  and  C_6
REMARK    5  A    between atoms: C_7  and  O_8
REMARK    6  A    between atoms: C_12  and  C_13
REMARK                            x       y       z     vdW  Elec       q    Type
REMARK                         _______ _______ _______ _____ _____    ______ ____
ROOT
ATOM      1  C   LIG A   1      -6.922   6.154 132.186  0.00  0.00    +0.169 A 
ATOM      2  C   LIG A   1      -7.870   5.501 132.989  0.00  0.00    +0.204 A 
ATOM      3  C   LIG A   1      -9.241   5.613 132.682  0.00  0.00    +0.177 A 
ATOM      4  C   LIG A   1      -9.678   6.326 131.563  0.00  0.00    +0.109 A 
ATOM      5  C   LIG A   1     -11.102   6.468 131.186  0.00  0.00    +0.196 A 
ATOM      6  C   LIG A   1     -11.381   7.272 129.981  0.00  0.00    +0.093 A 
ATOM      7  C   LIG A   1     -10.372   7.809 129.285  0.00  0.00    +0.106 A 
ATOM      8  C   LIG A   1     -10.594   8.635 128.058  0.00  0.00    +0.086 C 
ATOM      9  O   LIG A   1      -9.040   7.660 129.623  0.00  0.00    -0.460 OA
ATOM     10  C   LIG A   1      -8.725   6.938 130.750  0.00  0.00    +0.146 A 
ATOM     11  C   LIG A   1      -7.361   6.852 131.054  0.00  0.00    +0.096 A 
ATOM     12  O   LIG A   1     -12.041   5.976 131.796  0.00  0.00    -0.287 OA
ENDROOT
BRANCH   1  14
ATOM     13  C   LIG A   1      -4.684   6.777 131.695  0.00  0.00    +0.277 C 
ATOM     14  O   LIG A   1      -5.599   6.069 132.525  0.00  0.00    -0.491 OA
ENDBRANCH   1  14
BRANCH   2  15
ATOM     15  O   LIG A   1      -7.627   4.770 134.131  0.00  0.00    -0.488 OA
ATOM     16  C   LIG A   1      -7.377   5.502 135.325  0.00  0.00    +0.277 C 
ENDBRANCH   2  15
BRANCH   3  17
ATOM     17  O   LIG A   1     -10.135   4.996 133.520  0.00  0.00    -0.503 OA
ATOM     18  H   LIG A   1      -9.619   4.349 134.039  0.00  0.00    +0.292 HD
ENDBRANCH   3  17
TORSDOF 3
ENDMDL
MODEL 2
REMARK VINA RESULT:      -6.2      2.224      3.751
REMARK  Name = NuBBE_147
REMARK  6 active torsions:
REMARK  status: ('A' for Active; 'I' for Inactive)
REMARK    1  A    between atoms: C_1  and  O_2
REMARK    2  A    between atoms: O_2  and  C_3
REMARK    3  A    between atoms: C_4  and  O_5
REMARK    4  A    between atoms: O_5  and  C_6
REMARK    5  A    between atoms: C_7  and  O_8
REMARK    6  A    between atoms: C_12  and  C_13
REMARK                            x       y       z     vdW  Elec       q    Type
REMARK                         _______ _______ _______ _____ _____    ______ ____
ROOT
ATOM      1  C   LIG A   1      -9.865   5.594 131.617  0.00  0.00    +0.169 A 
ATOM      2  C   LIG A   1      -9.136   5.084 130.532  0.00  0.00    +0.204 A 
ATOM      3  C   LIG A   1      -9.389   5.566 129.232  0.00  0.00    +0.177 A 
ATOM      4  C   LIG A   1     -10.322   6.580 129.004  0.00  0.00    +0.109 A 
ATOM      5  C   LIG A   1     -10.621   7.133 127.664  0.00  0.00    +0.196 A 
ATOM      6  C   LIG A   1     -11.648   8.190 127.607  0.00  0.00    +0.093 A 
ATOM      7  C   LIG A   1     -12.240   8.609 128.732  0.00  0.00    +0.106 A 
ATOM      8  C   LIG A   1     -13.290   9.675 128.737  0.00  0.00    +0.086 C 
ATOM      9  O   LIG A   1     -11.948   8.110 129.987  0.00  0.00    -0.460 OA
ATOM     10  C   LIG A   1     -11.012   7.108 130.094  0.00  0.00    +0.146 A 
ATOM     11  C   LIG A   1     -10.785   6.624 131.388  0.00  0.00    +0.096 A 
ATOM     12  O   LIG A   1     -10.084   6.777 126.623  0.00  0.00    -0.287 OA
ENDROOT
BRANCH   1  14
ATOM     13  C   LIG A   1      -8.626   5.724 133.639  0.00  0.00    +0.277 C 
ATOM     14  O   LIG A   1      -9.635   5.082 132.866  0.00  0.00    -0.491 OA
ENDBRANCH   1  14
BRANCH   2  15
ATOM     15  O   LIG A   1      -8.193   4.080 130.565  0.00  0.00    -0.488 OA
ATOM     16  C   LIG A   1      -8.674   2.746 130.680  0.00  0.00    +0.277 C 
ENDBRANCH   2  15
BRANCH   3  17
ATOM     17  O   LIG A   1      -8.685   5.007 128.195  0.00  0.00    -0.503 OA
ATOM     18  H   LIG A   1      -9.307   4.412 127.734  0.00  0.00    +0.292 HD
ENDBRANCH   3  17
TORSDOF 3
ENDMDL
MODEL 3
REMARK VINA RESULT:      -6.0      2.003      2.420
REMARK  Name = NuBBE_147
REMARK  6 active torsions:
REMARK  status: ('A' for Active; 'I' for Inactive)
REMARK    1  A    between atoms: C_1  and  O_2
REMARK    2  A    between atoms: O_2  and  C_3
REMARK    3  A    between atoms: C_4  and  O_5
REMARK    4  A    between atoms: O_5  and  C_6
REMARK    5  A    between atoms: C_7  and  O_8
REMARK    6  A    between atoms: C_12  and  C_13
REMARK                            x       y       z     vdW  Elec       q    Type
REMARK                         _______ _______ _______ _____ _____    ______ ____
ROOT
ATOM      1  C   LIG A   1      -8.303   5.679 130.162  0.00  0.00    +0.169 A 
ATOM      2  C   LIG A   1      -8.730   5.850 131.487  0.00  0.00    +0.204 A 
ATOM      3  C   LIG A   1     -10.045   6.288 131.746  0.00  0.00    +0.177 A 
ATOM      4  C   LIG A   1     -10.952   6.512 130.709  0.00  0.00    +0.109 A 
ATOM      5  C   LIG A   1     -12.346   6.961 130.922  0.00  0.00    +0.196 A 
ATOM      6  C   LIG A   1     -13.159   7.163 129.708  0.00  0.00    +0.093 A 
ATOM      7  C   LIG A   1     -12.632   6.925 128.501  0.00  0.00    +0.106 A 
ATOM      8  C   LIG A   1     -13.407   7.115 127.235  0.00  0.00    +0.086 C 
ATOM      9  O   LIG A   1     -11.337   6.486 128.300  0.00  0.00    -0.460 OA
ATOM     10  C   LIG A   1     -10.529   6.301 129.397  0.00  0.00    +0.146 A 
ATOM     11  C   LIG A   1      -9.220   5.886 129.125  0.00  0.00    +0.096 A 
ATOM     12  O   LIG A   1     -12.856   7.171 132.014  0.00  0.00    -0.287 OA
ENDROOT
BRANCH   1  14
ATOM     13  C   LIG A   1      -6.821   3.988 129.398  0.00  0.00    +0.277 C 
ATOM     14  O   LIG A   1      -7.010   5.296 129.929  0.00  0.00    -0.491 OA
ENDBRANCH   1  14
BRANCH   2  15
ATOM     15  O   LIG A   1      -7.976   5.691 132.629  0.00  0.00    -0.488 OA
ATOM     16  C   LIG A   1      -7.751   4.358 133.075  0.00  0.00    +0.277 C 
ENDBRANCH   2  15
BRANCH   3  17
ATOM     17  O   LIG A   1     -10.405   6.484 133.056  0.00  0.00    -0.503 OA
ATOM     18  H   LIG A   1     -10.160   5.667 133.531  0.00  0.00    +0.292 HD
ENDBRANCH   3  17
TORSDOF 3
ENDMDL
MODEL 4
REMARK VINA RESULT:      -6.0      8.441      9.996
REMARK  Name = NuBBE_147
REMARK  6 active torsions:
REMARK  status: ('A' for Active; 'I' for Inactive)
REMARK    1  A    between atoms: C_1  and  O_2
REMARK    2  A    between atoms: O_2  and  C_3
REMARK    3  A    between atoms: C_4  and  O_5
REMARK    4  A    between atoms: O_5  and  C_6
REMARK    5  A    between atoms: C_7  and  O_8
REMARK    6  A    between atoms: C_12  and  C_13
REMARK                            x       y       z     vdW  Elec       q    Type
REMARK                         _______ _______ _______ _____ _____    ______ ____
ROOT
ATOM      1  C   LIG A   1      -8.489   2.679 124.181  0.00  0.00    +0.169 A 
ATOM      2  C   LIG A   1      -7.264   3.009 124.782  0.00  0.00    +0.204 A 
ATOM      3  C   LIG A   1      -6.219   3.533 123.995  0.00  0.00    +0.177 A 
ATOM      4  C   LIG A   1      -6.390   3.776 122.631  0.00  0.00    +0.109 A 
ATOM      5  C   LIG A   1      -5.332   4.334 121.759  0.00  0.00    +0.196 A 
ATOM      6  C   LIG A   1      -5.684   4.510 120.337  0.00  0.00    +0.093 A 
ATOM      7  C   LIG A   1      -6.909   4.187 119.905  0.00  0.00    +0.106 A 
ATOM      8  C   LIG A   1      -7.321   4.340 118.475  0.00  0.00    +0.086 C 
ATOM      9  O   LIG A   1      -7.904   3.685 120.721  0.00  0.00    -0.460 OA
ATOM     10  C   LIG A   1      -7.623   3.482 122.051  0.00  0.00    +0.146 A 
ATOM     11  C   LIG A   1      -8.664   2.943 122.817  0.00  0.00    +0.096 A 
ATOM     12  O   LIG A   1      -4.211   4.651 122.131  0.00  0.00    -0.287 OA
ENDROOT
BRANCH   1  14
ATOM     13  C   LIG A   1      -9.511   0.709 125.025  0.00  0.00    +0.277 C 
ATOM     14  O   LIG A   1      -9.477   2.131 124.953  0.00  0.00    -0.491 OA
ENDBRANCH   1  14
BRANCH   2  15
ATOM     15  O   LIG A   1      -6.912   2.827 126.101  0.00  0.00    -0.488 OA
ATOM     16  C   LIG A   1      -7.397   3.782 127.038  0.00  0.00    +0.277 C 
ENDBRANCH   2  15
BRANCH   3  17
ATOM     17  O   LIG A   1      -5.024   3.799 124.616  0.00  0.00    -0.503 OA
ATOM     18  H   LIG A   1      -4.750   4.685 124.310  0.00  0.00    +0.292 HD
ENDBRANCH   3  17
TORSDOF 3
ENDMDL
MODEL 5
REMARK VINA RESULT:      -5.9      1.839      5.768
REMARK  Name = NuBBE_147
REMARK  6 active torsions:
REMARK  status: ('A' for Active; 'I' for Inactive)
REMARK    1  A    between atoms: C_1  and  O_2
REMARK    2  A    between atoms: O_2  and  C_3
REMARK    3  A    between atoms: C_4  and  O_5
REMARK    4  A    between atoms: O_5  and  C_6
REMARK    5  A    between atoms: C_7  and  O_8
REMARK    6  A    between atoms: C_12  and  C_13
REMARK                            x       y       z     vdW  Elec       q    Type
REMARK                         _______ _______ _______ _____ _____    ______ ____
ROOT
ATOM      1  C   LIG A   1     -11.703   7.122 130.071  0.00  0.00    +0.169 A 
ATOM      2  C   LIG A   1     -10.972   6.614 128.987  0.00  0.00    +0.204 A 
ATOM      3  C   LIG A   1      -9.717   6.012 129.211  0.00  0.00    +0.177 A 
ATOM      4  C   LIG A   1      -9.203   5.866 130.502  0.00  0.00    +0.109 A 
ATOM      5  C   LIG A   1      -7.899   5.233 130.798  0.00  0.00    +0.196 A 
ATOM      6  C   LIG A   1      -7.507   5.179 132.219  0.00  0.00    +0.093 A 
ATOM      7  C   LIG A   1      -8.323   5.671 133.158  0.00  0.00    +0.106 A 
ATOM      8  C   LIG A   1      -7.978   5.648 134.614  0.00  0.00    +0.086 C 
ATOM      9  O   LIG A   1      -9.551   6.244 132.886  0.00  0.00    -0.460 OA
ATOM     10  C   LIG A   1      -9.956   6.338 131.576  0.00  0.00    +0.146 A 
ATOM     11  C   LIG A   1     -11.194   6.957 131.365  0.00  0.00    +0.096 A 
ATOM     12  O   LIG A   1      -7.141   4.763 129.960  0.00  0.00    -0.287 OA
ENDROOT
BRANCH   1  14
ATOM     13  C   LIG A   1     -12.884   9.166 129.818  0.00  0.00    +0.277 C 
ATOM     14  O   LIG A   1     -12.899   7.742 129.829  0.00  0.00    -0.491 OA
ENDBRANCH   1  14
BRANCH   2  15
ATOM     15  O   LIG A   1     -11.312   6.679 127.653  0.00  0.00    -0.488 OA
ATOM     16  C   LIG A   1     -10.994   7.883 126.964  0.00  0.00    +0.277 C 
ENDBRANCH   2  15
BRANCH   3  17
ATOM     17  O   LIG A   1      -9.016   5.570 128.118  0.00  0.00    -0.503 OA
ATOM     18  H   LIG A   1      -8.211   6.120 128.070  0.00  0.00    +0.292 HD
ENDBRANCH   3  17
TORSDOF 3
ENDMDL
MODEL 6
REMARK VINA RESULT:      -5.8      7.250      8.240
REMARK  Name = NuBBE_147
REMARK  6 active torsions:
REMARK  status: ('A' for Active; 'I' for Inactive)
REMARK    1  A    between atoms: C_1  and  O_2
REMARK    2  A    between atoms: O_2  and  C_3
REMARK    3  A    between atoms: C_4  and  O_5
REMARK    4  A    between atoms: O_5  and  C_6
REMARK    5  A    between atoms: C_7  and  O_8
REMARK    6  A    between atoms: C_12  and  C_13
REMARK                            x       y       z     vdW  Elec       q    Type
REMARK                         _______ _______ _______ _____ _____    ______ ____
ROOT
ATOM      1  C   LIG A   1      -6.445   4.381 126.261  0.00  0.00    +0.169 A 
ATOM      2  C   LIG A   1      -7.669   3.696 126.226  0.00  0.00    +0.204 A 
ATOM      3  C   LIG A   1      -8.214   3.304 124.986  0.00  0.00    +0.177 A 
ATOM      4  C   LIG A   1      -7.537   3.541 123.788  0.00  0.00    +0.109 A 
ATOM      5  C   LIG A   1      -8.054   3.142 122.461  0.00  0.00    +0.196 A 
ATOM      6  C   LIG A   1      -7.212   3.489 121.300  0.00  0.00    +0.093 A 
ATOM      7  C   LIG A   1      -6.042   4.113 121.484  0.00  0.00    +0.106 A 
ATOM      8  C   LIG A   1      -5.148   4.492 120.346  0.00  0.00    +0.086 C 
ATOM      9  O   LIG A   1      -5.547   4.468 122.725  0.00  0.00    -0.460 OA
ATOM     10  C   LIG A   1      -6.302   4.187 123.838  0.00  0.00    +0.146 A 
ATOM     11  C   LIG A   1      -5.759   4.600 125.061  0.00  0.00    +0.096 A 
ATOM     12  O   LIG A   1      -9.112   2.558 122.267  0.00  0.00    -0.287 OA
ENDROOT
BRANCH   1  14
ATOM     13  C   LIG A   1      -4.543   4.973 127.554  0.00  0.00    +0.277 C 
ATOM     14  O   LIG A   1      -5.953   4.792 127.471  0.00  0.00    -0.491 OA
ENDBRANCH   1  14
BRANCH   2  15
ATOM     15  O   LIG A   1      -8.479   3.389 127.297  0.00  0.00    -0.488 OA
ATOM     16  C   LIG A   1      -8.127   2.246 128.067  0.00  0.00    +0.277 C 
ENDBRANCH   2  15
BRANCH   3  17
ATOM     17  O   LIG A   1      -9.434   2.677 124.996  0.00  0.00    -0.503 OA
ATOM     18  H   LIG A   1      -9.340   1.907 125.589  0.00  0.00    +0.292 HD
ENDBRANCH   3  17
TORSDOF 3
ENDMDL
MODEL 7
REMARK VINA RESULT:      -5.8      2.007      3.590
REMARK  Name = NuBBE_147
REMARK  6 active torsions:
REMARK  status: ('A' for Active; 'I' for Inactive)
REMARK    1  A    between atoms: C_1  and  O_2
REMARK    2  A    between atoms: O_2  and  C_3
REMARK    3  A    between atoms: C_4  and  O_5
REMARK    4  A    between atoms: O_5  and  C_6
REMARK    5  A    between atoms: C_7  and  O_8
REMARK    6  A    between atoms: C_12  and  C_13
REMARK                            x       y       z     vdW  Elec       q    Type
REMARK                         _______ _______ _______ _____ _____    ______ ____
ROOT
ATOM      1  C   LIG A   1      -9.742   4.331 131.263  0.00  0.00    +0.169 A 
ATOM      2  C   LIG A   1      -8.728   5.299 131.218  0.00  0.00    +0.204 A 
ATOM      3  C   LIG A   1      -8.906   6.462 130.441  0.00  0.00    +0.177 A 
ATOM      4  C   LIG A   1     -10.096   6.695 129.747  0.00  0.00    +0.109 A 
ATOM      5  C   LIG A   1     -10.343   7.901 128.926  0.00  0.00    +0.196 A 
ATOM      6  C   LIG A   1     -11.652   7.973 128.250  0.00  0.00    +0.093 A 
ATOM      7  C   LIG A   1     -12.545   6.989 128.411  0.00  0.00    +0.106 A 
ATOM      8  C   LIG A   1     -13.886   7.006 127.748  0.00  0.00    +0.086 C 
ATOM      9  O   LIG A   1     -12.324   5.872 129.194  0.00  0.00    -0.460 OA
ATOM     10  C   LIG A   1     -11.112   5.745 129.831  0.00  0.00    +0.146 A 
ATOM     11  C   LIG A   1     -10.941   4.576 130.582  0.00  0.00    +0.096 A 
ATOM     12  O   LIG A   1      -9.550   8.821 128.774  0.00  0.00    -0.287 OA
ENDROOT
BRANCH   1  14
ATOM     13  C   LIG A   1      -9.272   2.003 131.242  0.00  0.00    +0.277 C 
ATOM     14  O   LIG A   1      -9.533   3.189 131.987  0.00  0.00    -0.491 OA
ENDBRANCH   1  14
BRANCH   2  15
ATOM     15  O   LIG A   1      -7.491   5.235 131.822  0.00  0.00    -0.488 OA
ATOM     16  C   LIG A   1      -7.426   5.582 133.200  0.00  0.00    +0.277 C 
ENDBRANCH   2  15
BRANCH   3  17
ATOM     17  O   LIG A   1      -7.871   7.361 130.390  0.00  0.00    -0.503 OA
ATOM     18  H   LIG A   1      -7.269   7.124 131.122  0.00  0.00    +0.292 HD
ENDBRANCH   3  17
TORSDOF 3
ENDMDL
MODEL 8
REMARK VINA RESULT:      -5.6      9.082     10.266
REMARK  Name = NuBBE_147
REMARK  6 active torsions:
REMARK  status: ('A' for Active; 'I' for Inactive)
REMARK    1  A    between atoms: C_1  and  O_2
REMARK    2  A    between atoms: O_2  and  C_3
REMARK    3  A    between atoms: C_4  and  O_5
REMARK    4  A    between atoms: O_5  and  C_6
REMARK    5  A    between atoms: C_7  and  O_8
REMARK    6  A    between atoms: C_12  and  C_13
REMARK                            x       y       z     vdW  Elec       q    Type
REMARK                         _______ _______ _______ _____ _____    ______ ____
ROOT
ATOM      1  C   LIG A   1      -8.750   1.920 125.485  0.00  0.00    +0.169 A 
ATOM      2  C   LIG A   1      -9.273   1.394 124.293  0.00  0.00    +0.204 A 
ATOM      3  C   LIG A   1      -9.374  -0.003 124.132  0.00  0.00    +0.177 A 
ATOM      4  C   LIG A   1      -9.008  -0.880 125.156  0.00  0.00    +0.109 A 
ATOM      5  C   LIG A   1      -9.103  -2.352 125.047  0.00  0.00    +0.196 A 
ATOM      6  C   LIG A   1      -8.656  -3.124 126.222  0.00  0.00    +0.093 A 
ATOM      7  C   LIG A   1      -8.212  -2.487 127.312  0.00  0.00    +0.106 A 
ATOM      8  C   LIG A   1      -7.742  -3.216 128.532  0.00  0.00    +0.086 C 
ATOM      9  O   LIG A   1      -8.141  -1.111 127.424  0.00  0.00    -0.460 OA
ATOM     10  C   LIG A   1      -8.527  -0.345 126.350  0.00  0.00    +0.146 A 
ATOM     11  C   LIG A   1      -8.401   1.040 126.516  0.00  0.00    +0.096 A 
ATOM     12  O   LIG A   1      -9.519  -2.958 124.068  0.00  0.00    -0.287 OA
ENDROOT
BRANCH   1  14
ATOM     13  C   LIG A   1      -7.295   3.773 125.786  0.00  0.00    +0.277 C 
ATOM     14  O   LIG A   1      -8.618   3.277 125.605  0.00  0.00    -0.491 OA
ENDBRANCH   1  14
BRANCH   2  15
ATOM     15  O   LIG A   1      -9.670   2.099 123.179  0.00  0.00    -0.488 OA
ATOM     16  C   LIG A   1      -8.652   2.757 122.434  0.00  0.00    +0.277 C 
ENDBRANCH   2  15
BRANCH   3  17
ATOM     17  O   LIG A   1      -9.849  -0.474 122.935  0.00  0.00    -0.503 OA
ATOM     18  H   LIG A   1     -10.396   0.242 122.558  0.00  0.00    +0.292 HD
ENDBRANCH   3  17
TORSDOF 3
ENDMDL
MODEL 9
REMARK VINA RESULT:      -5.5      9.998     10.403
REMARK  Name = NuBBE_147
REMARK  6 active torsions:
REMARK  status: ('A' for Active; 'I' for Inactive)
REMARK    1  A    between atoms: C_1  and  O_2
REMARK    2  A    between atoms: O_2  and  C_3
REMARK    3  A    between atoms: C_4  and  O_5
REMARK    4  A    between atoms: O_5  and  C_6
REMARK    5  A    between atoms: C_7  and  O_8
REMARK    6  A    between atoms: C_12  and  C_13
REMARK                            x       y       z     vdW  Elec       q    Type
REMARK                         _______ _______ _______ _____ _____    ______ ____
ROOT
ATOM      1  C   LIG A   1      -7.275  -2.048 124.034  0.00  0.00    +0.169 A 
ATOM      2  C   LIG A   1      -8.433  -1.781 124.779  0.00  0.00    +0.204 A 
ATOM      3  C   LIG A   1      -8.928  -0.463 124.853  0.00  0.00    +0.177 A 
ATOM      4  C   LIG A   1      -8.314   0.582 124.159  0.00  0.00    +0.109 A 
ATOM      5  C   LIG A   1      -8.795   1.981 124.190  0.00  0.00    +0.196 A 
ATOM      6  C   LIG A   1      -8.014   2.958 123.408  0.00  0.00    +0.093 A 
ATOM      7  C   LIG A   1      -6.946   2.555 122.709  0.00  0.00    +0.106 A 
ATOM      8  C   LIG A   1      -6.113   3.500 121.901  0.00  0.00    +0.086 C 
ATOM      9  O   LIG A   1      -6.507   1.246 122.661  0.00  0.00    -0.460 OA
ATOM     10  C   LIG A   1      -7.187   0.298 123.388  0.00  0.00    +0.146 A 
ATOM     11  C   LIG A   1      -6.673  -1.003 123.323  0.00  0.00    +0.096 A 
ATOM     12  O   LIG A   1      -9.776   2.372 124.809  0.00  0.00    -0.287 OA
ENDROOT
BRANCH   1  14
ATOM     13  C   LIG A   1      -5.370  -3.462 123.924  0.00  0.00    +0.277 C 
ATOM     14  O   LIG A   1      -6.785  -3.326 124.010  0.00  0.00    -0.491 OA
ENDBRANCH   1  14
BRANCH   2  15
ATOM     15  O   LIG A   1      -9.158  -2.676 125.535  0.00  0.00    -0.488 OA
ATOM     16  C   LIG A   1      -8.599  -3.071 126.782  0.00  0.00    +0.277 C 
ENDBRANCH   2  15
BRANCH   3  17
ATOM     17  O   LIG A   1     -10.036  -0.240 125.630  0.00  0.00    -0.503 OA
ATOM     18  H   LIG A   1     -10.592   0.394 125.136  0.00  0.00    +0.292 HD
ENDBRANCH   3  17
TORSDOF 3
ENDMDL
