MODEL 1
REMARK VINA RESULT:      -8.9      0.000      0.000
REMARK  Name = NuBBE_1176
REMARK  13 active torsions:
REMARK  status: ('A' for Active; 'I' for Inactive)
REMARK    1  A    between atoms: C_1  and  C_2
REMARK    2  A    between atoms: C_4  and  O_6
REMARK    3  A    between atoms: C_8  and  C_9
REMARK    4  A    between atoms: C_8  and  C_10
REMARK    5  A    between atoms: C_10  and  O_11
REMARK    6  A    between atoms: C_12  and  O_14
REMARK    7  A    between atoms: C_15  and  O_17
REMARK    8  A    between atoms: C_19  and  C_20
REMARK    9  A    between atoms: C_25  and  C_26
REMARK   10  A    between atoms: C_29  and  C_30
REMARK   11  A    between atoms: C_30  and  O_31
REMARK   12  A    between atoms: C_34  and  C_36
REMARK   13  A    between atoms: C_37  and  C_39
REMARK                            x       y       z     vdW  Elec       q    Type
REMARK                         _______ _______ _______ _____ _____    ______ ____
ROOT
ATOM      1  C   LIG A   1      -6.916   2.172 128.979  0.00  0.00    +0.012 C 
ATOM      2  C   LIG A   1      -7.673   1.672 130.239  0.00  0.00    -0.017 C 
ATOM      3  C   LIG A   1      -9.152   2.078 130.073  0.00  0.00    +0.039 C 
ATOM      4  C   LIG A   1      -9.457   3.573 130.177  0.00  0.00    +0.119 C 
ATOM      5  C   LIG A   1      -9.056   4.172 131.563  0.00  0.00    +0.034 C 
ATOM      6  C   LIG A   1      -9.486   5.717 131.760  0.00  0.00    +0.025 C 
ATOM      7  C   LIG A   1      -9.539   6.088 133.276  0.00  0.00    +0.016 C 
ATOM      8  C   LIG A   1      -8.480   6.662 131.048  0.00  0.00    +0.151 C 
ATOM      9  C   LIG A   1      -7.003   6.351 131.349  0.00  0.00    +0.144 C 
ATOM     10  C   LIG A   1      -6.636   4.883 131.106  0.00  0.00    +0.041 C 
ATOM     11  C   LIG A   1      -7.524   3.871 131.868  0.00  0.00    -0.020 C 
ATOM     12  C   LIG A   1      -7.234   4.044 133.395  0.00  0.00    +0.012 C 
ATOM     13  C   LIG A   1      -7.158   2.344 131.561  0.00  0.00    +0.006 C 
ATOM     14  C   LIG A   1      -5.663   2.004 131.737  0.00  0.00    +0.031 C 
ATOM     15  C   LIG A   1      -5.432   0.527 131.743  0.00  0.00    -0.026 C 
ATOM     16  C   LIG A   1      -6.244  -0.388 131.184  0.00  0.00    -0.063 C 
ATOM     17  C   LIG A   1      -7.506   0.030 130.380  0.00  0.00    -0.005 C 
ATOM     18  C   LIG A   1      -8.768  -0.564 131.081  0.00  0.00    +0.016 C 
ATOM     19  C   LIG A   1      -7.359  -0.663 128.989  0.00  0.00    +0.012 C 
ATOM     20  C   LIG A   1      -7.169  -2.186 129.039  0.00  0.00    +0.019 C 
ATOM     21  C   LIG A   1      -6.010  -2.662 129.961  0.00  0.00    +0.074 C 
ATOM     22  C   LIG A   1      -6.020  -1.906 131.321  0.00  0.00    +0.035 C 
ATOM     23  C   LIG A   1      -4.987  -2.465 132.363  0.00  0.00    -0.003 C 
ATOM     24  C   LIG A   1      -3.498  -2.283 132.038  0.00  0.00    +0.008 C 
ATOM     25  C   LIG A   1      -5.338  -3.961 132.616  0.00  0.00    -0.011 C 
ATOM     26  C   LIG A   1      -4.467  -4.615 133.689  0.00  0.00    +0.008 C 
ATOM     27  C   LIG A   1      -5.311  -4.773 131.313  0.00  0.00    +0.004 C 
ATOM     28  C   LIG A   1      -6.230  -4.179 130.241  0.00  0.00    +0.019 C 
ENDROOT
BRANCH   4  29
ATOM     29  O   LIG A   1     -10.879   3.641 130.007  0.00  0.00    -0.392 OA
ATOM     30  H   LIG A   1     -11.272   2.975 130.599  0.00  0.00    +0.210 HD
ENDBRANCH   4  29
BRANCH   8  31
ATOM     31  O   LIG A   1      -8.634   6.602 129.617  0.00  0.00    -0.389 OA
ATOM     32  H   LIG A   1      -9.224   5.842 129.451  0.00  0.00    +0.210 HD
ENDBRANCH   8  31
BRANCH   9  33
ATOM     33  O   LIG A   1      -6.185   7.156 130.487  0.00  0.00    -0.389 OA
ATOM     34  H   LIG A   1      -5.480   7.503 131.071  0.00  0.00    +0.210 HD
ENDBRANCH   9  33
BRANCH  21  35
ATOM     35  C   LIG A   1      -4.715  -2.506 129.161  0.00  0.00    +0.311 C 
ATOM     36  O   LIG A   1      -4.031  -3.419 128.712  0.00  0.00    -0.250 OA
BRANCH  35  37
ATOM     37  O   LIG A   1      -4.357  -1.239 128.896  0.00  0.00    -0.480 OA
ATOM     38  H   LIG A   1      -3.416  -1.190 129.160  0.00  0.00    +0.295 HD
ENDBRANCH  35  37
ENDBRANCH  21  35
BRANCH   6  39
ATOM     39  C   LIG A   1     -10.922   6.011 131.232  0.00  0.00    +0.165 C 
BRANCH  39  40
ATOM     40  O   LIG A   1     -11.879   5.969 132.295  0.00  0.00    -0.394 OA
ATOM     41  H   LIG A   1     -11.770   5.103 132.729  0.00  0.00    +0.209 HD
ENDBRANCH  39  40
ENDBRANCH   6  39
TORSDOF 7
ENDMDL
MODEL 2
REMARK VINA RESULT:      -8.7      4.504      7.030
REMARK  Name = NuBBE_1176
REMARK  13 active torsions:
REMARK  status: ('A' for Active; 'I' for Inactive)
REMARK    1  A    between atoms: C_1  and  C_2
REMARK    2  A    between atoms: C_4  and  O_6
REMARK    3  A    between atoms: C_8  and  C_9
REMARK    4  A    between atoms: C_8  and  C_10
REMARK    5  A    between atoms: C_10  and  O_11
REMARK    6  A    between atoms: C_12  and  O_14
REMARK    7  A    between atoms: C_15  and  O_17
REMARK    8  A    between atoms: C_19  and  C_20
REMARK    9  A    between atoms: C_25  and  C_26
REMARK   10  A    between atoms: C_29  and  C_30
REMARK   11  A    between atoms: C_30  and  O_31
REMARK   12  A    between atoms: C_34  and  C_36
REMARK   13  A    between atoms: C_37  and  C_39
REMARK                            x       y       z     vdW  Elec       q    Type
REMARK                         _______ _______ _______ _____ _____    ______ ____
ROOT
ATOM      1  C   LIG A   1      -7.952  -1.172 131.241  0.00  0.00    +0.012 C 
ATOM      2  C   LIG A   1      -6.825  -2.204 130.965  0.00  0.00    -0.017 C 
ATOM      3  C   LIG A   1      -6.888  -3.260 132.087  0.00  0.00    +0.039 C 
ATOM      4  C   LIG A   1      -6.459  -2.791 133.479  0.00  0.00    +0.119 C 
ATOM      5  C   LIG A   1      -4.979  -2.293 133.514  0.00  0.00    +0.034 C 
ATOM      6  C   LIG A   1      -4.447  -1.916 134.992  0.00  0.00    +0.025 C 
ATOM      7  C   LIG A   1      -2.886  -1.935 135.041  0.00  0.00    +0.016 C 
ATOM      8  C   LIG A   1      -4.944  -0.505 135.412  0.00  0.00    +0.151 C 
ATOM      9  C   LIG A   1      -4.728   0.582 134.343  0.00  0.00    +0.144 C 
ATOM     10  C   LIG A   1      -5.288   0.194 132.970  0.00  0.00    +0.041 C 
ATOM     11  C   LIG A   1      -4.758  -1.154 132.425  0.00  0.00    -0.020 C 
ATOM     12  C   LIG A   1      -3.232  -0.977 132.131  0.00  0.00    +0.012 C 
ATOM     13  C   LIG A   1      -5.393  -1.565 131.015  0.00  0.00    +0.006 C 
ATOM     14  C   LIG A   1      -5.306  -0.464 129.937  0.00  0.00    +0.031 C 
ATOM     15  C   LIG A   1      -5.623  -0.999 128.577  0.00  0.00    -0.026 C 
ATOM     16  C   LIG A   1      -6.361  -2.095 128.328  0.00  0.00    -0.063 C 
ATOM     17  C   LIG A   1      -7.046  -2.891 129.473  0.00  0.00    -0.005 C 
ATOM     18  C   LIG A   1      -6.482  -4.347 129.481  0.00  0.00    +0.016 C 
ATOM     19  C   LIG A   1      -8.556  -2.963 129.082  0.00  0.00    +0.012 C 
ATOM     20  C   LIG A   1      -8.840  -3.561 127.696  0.00  0.00    +0.019 C 
ATOM     21  C   LIG A   1      -8.052  -2.895 126.532  0.00  0.00    +0.074 C 
ATOM     22  C   LIG A   1      -6.560  -2.671 126.912  0.00  0.00    +0.035 C 
ATOM     23  C   LIG A   1      -5.672  -2.167 125.720  0.00  0.00    -0.003 C 
ATOM     24  C   LIG A   1      -5.960  -0.760 125.179  0.00  0.00    +0.008 C 
ATOM     25  C   LIG A   1      -5.748  -3.238 124.593  0.00  0.00    -0.011 C 
ATOM     26  C   LIG A   1      -4.849  -2.925 123.396  0.00  0.00    +0.008 C 
ATOM     27  C   LIG A   1      -7.197  -3.483 124.145  0.00  0.00    +0.004 C 
ATOM     28  C   LIG A   1      -8.107  -3.868 125.316  0.00  0.00    +0.019 C 
ENDROOT
BRANCH   4  29
ATOM     29  O   LIG A   1      -6.600  -3.965 134.290  0.00  0.00    -0.392 OA
ATOM     30  H   LIG A   1      -5.741  -4.121 134.722  0.00  0.00    +0.210 HD
ENDBRANCH   4  29
BRANCH   8  31
ATOM     31  O   LIG A   1      -6.353  -0.519 135.714  0.00  0.00    -0.389 OA
ATOM     32  H   LIG A   1      -6.651   0.405 135.603  0.00  0.00    +0.210 HD
ENDBRANCH   8  31
BRANCH   9  33
ATOM     33  O   LIG A   1      -5.401   1.776 134.769  0.00  0.00    -0.389 OA
ATOM     34  H   LIG A   1      -6.152   1.454 135.310  0.00  0.00    +0.210 HD
ENDBRANCH   9  33
BRANCH  21  35
ATOM     35  C   LIG A   1      -8.809  -1.619 126.159  0.00  0.00    +0.311 C 
ATOM     36  O   LIG A   1      -8.627  -0.507 126.640  0.00  0.00    -0.250 OA
BRANCH  35  37
ATOM     37  O   LIG A   1      -9.704  -1.756 125.168  0.00  0.00    -0.480 OA
ATOM     38  H   LIG A   1     -10.307  -0.992 125.274  0.00  0.00    +0.295 HD
ENDBRANCH  35  37
ENDBRANCH  21  35
BRANCH   6  39
ATOM     39  C   LIG A   1      -4.888  -2.952 136.069  0.00  0.00    +0.165 C 
BRANCH  39  40
ATOM     40  O   LIG A   1      -4.186  -4.189 135.910  0.00  0.00    -0.394 OA
ATOM     41  H   LIG A   1      -3.298  -3.961 135.578  0.00  0.00    +0.209 HD
ENDBRANCH  39  40
ENDBRANCH   6  39
TORSDOF 7
ENDMDL
MODEL 3
REMARK VINA RESULT:      -8.5      4.789      7.214
REMARK  Name = NuBBE_1176
REMARK  13 active torsions:
REMARK  status: ('A' for Active; 'I' for Inactive)
REMARK    1  A    between atoms: C_1  and  C_2
REMARK    2  A    between atoms: C_4  and  O_6
REMARK    3  A    between atoms: C_8  and  C_9
REMARK    4  A    between atoms: C_8  and  C_10
REMARK    5  A    between atoms: C_10  and  O_11
REMARK    6  A    between atoms: C_12  and  O_14
REMARK    7  A    between atoms: C_15  and  O_17
REMARK    8  A    between atoms: C_19  and  C_20
REMARK    9  A    between atoms: C_25  and  C_26
REMARK   10  A    between atoms: C_29  and  C_30
REMARK   11  A    between atoms: C_30  and  O_31
REMARK   12  A    between atoms: C_34  and  C_36
REMARK   13  A    between atoms: C_37  and  C_39
REMARK                            x       y       z     vdW  Elec       q    Type
REMARK                         _______ _______ _______ _____ _____    ______ ____
ROOT
ATOM      1  C   LIG A   1      -6.109  -0.091 128.566  0.00  0.00    +0.012 C 
ATOM      2  C   LIG A   1      -5.902  -1.614 128.347  0.00  0.00    -0.017 C 
ATOM      3  C   LIG A   1      -5.049  -1.780 127.073  0.00  0.00    +0.039 C 
ATOM      4  C   LIG A   1      -5.735  -1.431 125.751  0.00  0.00    +0.119 C 
ATOM      5  C   LIG A   1      -6.995  -2.313 125.477  0.00  0.00    +0.034 C 
ATOM      6  C   LIG A   1      -7.668  -2.067 124.030  0.00  0.00    +0.025 C 
ATOM      7  C   LIG A   1      -8.552  -3.287 123.616  0.00  0.00    +0.016 C 
ATOM      8  C   LIG A   1      -8.552  -0.790 124.046  0.00  0.00    +0.151 C 
ATOM      9  C   LIG A   1      -9.521  -0.710 125.239  0.00  0.00    +0.144 C 
ATOM     10  C   LIG A   1      -8.827  -0.907 126.591  0.00  0.00    +0.041 C 
ATOM     11  C   LIG A   1      -8.008  -2.216 126.700  0.00  0.00    -0.020 C 
ATOM     12  C   LIG A   1      -9.018  -3.409 126.660  0.00  0.00    +0.012 C 
ATOM     13  C   LIG A   1      -7.250  -2.379 128.100  0.00  0.00    +0.006 C 
ATOM     14  C   LIG A   1      -8.156  -2.193 129.335  0.00  0.00    +0.031 C 
ATOM     15  C   LIG A   1      -7.481  -2.656 130.587  0.00  0.00    -0.026 C 
ATOM     16  C   LIG A   1      -6.152  -2.742 130.764  0.00  0.00    -0.063 C 
ATOM     17  C   LIG A   1      -5.153  -2.275 129.669  0.00  0.00    -0.005 C 
ATOM     18  C   LIG A   1      -4.289  -3.496 129.223  0.00  0.00    +0.016 C 
ATOM     19  C   LIG A   1      -4.211  -1.251 130.377  0.00  0.00    +0.012 C 
ATOM     20  C   LIG A   1      -3.502  -1.782 131.633  0.00  0.00    +0.019 C 
ATOM     21  C   LIG A   1      -4.453  -2.406 132.694  0.00  0.00    +0.074 C 
ATOM     22  C   LIG A   1      -5.510  -3.337 132.033  0.00  0.00    +0.035 C 
ATOM     23  C   LIG A   1      -6.383  -4.135 133.064  0.00  0.00    -0.003 C 
ATOM     24  C   LIG A   1      -7.346  -3.324 133.941  0.00  0.00    +0.008 C 
ATOM     25  C   LIG A   1      -5.418  -5.003 133.925  0.00  0.00    -0.011 C 
ATOM     26  C   LIG A   1      -6.143  -5.913 134.918  0.00  0.00    +0.008 C 
ATOM     27  C   LIG A   1      -4.367  -4.137 134.636  0.00  0.00    +0.004 C 
ATOM     28  C   LIG A   1      -3.577  -3.264 133.656  0.00  0.00    +0.019 C 
ENDROOT
BRANCH   4  29
ATOM     29  O   LIG A   1      -4.728  -1.697 124.766  0.00  0.00    -0.392 OA
ATOM     30  H   LIG A   1      -4.724  -0.946 124.146  0.00  0.00    +0.210 HD
ENDBRANCH   4  29
BRANCH   8  31
ATOM     31  O   LIG A   1      -7.743   0.402 124.085  0.00  0.00    -0.389 OA
ATOM     32  H   LIG A   1      -8.126   0.997 123.412  0.00  0.00    +0.210 HD
ENDBRANCH   8  31
BRANCH   9  33
ATOM     33  O   LIG A   1     -10.127   0.591 125.244  0.00  0.00    -0.389 OA
ATOM     34  H   LIG A   1     -10.521   0.681 124.352  0.00  0.00    +0.210 HD
ENDBRANCH   9  33
BRANCH  21  35
ATOM     35  C   LIG A   1      -5.046  -1.245 133.495  0.00  0.00    +0.311 C 
ATOM     36  O   LIG A   1      -5.996  -0.549 133.158  0.00  0.00    -0.250 OA
BRANCH  35  37
ATOM     37  O   LIG A   1      -4.486  -1.037 134.698  0.00  0.00    -0.480 OA
ATOM     38  H   LIG A   1      -5.243  -0.864 135.294  0.00  0.00    +0.295 HD
ENDBRANCH  35  37
ENDBRANCH  21  35
BRANCH   6  39
ATOM     39  C   LIG A   1      -6.612  -1.941 122.892  0.00  0.00    +0.165 C 
BRANCH  39  40
ATOM     40  O   LIG A   1      -5.835  -3.138 122.776  0.00  0.00    -0.394 OA
ATOM     41  H   LIG A   1      -5.354  -3.236 123.618  0.00  0.00    +0.209 HD
ENDBRANCH  39  40
ENDBRANCH   6  39
TORSDOF 7
ENDMDL
MODEL 4
REMARK VINA RESULT:      -8.5      3.704      5.746
REMARK  Name = NuBBE_1176
REMARK  13 active torsions:
REMARK  status: ('A' for Active; 'I' for Inactive)
REMARK    1  A    between atoms: C_1  and  C_2
REMARK    2  A    between atoms: C_4  and  O_6
REMARK    3  A    between atoms: C_8  and  C_9
REMARK    4  A    between atoms: C_8  and  C_10
REMARK    5  A    between atoms: C_10  and  O_11
REMARK    6  A    between atoms: C_12  and  O_14
REMARK    7  A    between atoms: C_15  and  O_17
REMARK    8  A    between atoms: C_19  and  C_20
REMARK    9  A    between atoms: C_25  and  C_26
REMARK   10  A    between atoms: C_29  and  C_30
REMARK   11  A    between atoms: C_30  and  O_31
REMARK   12  A    between atoms: C_34  and  C_36
REMARK   13  A    between atoms: C_37  and  C_39
REMARK                            x       y       z     vdW  Elec       q    Type
REMARK                         _______ _______ _______ _____ _____    ______ ____
ROOT
ATOM      1  C   LIG A   1      -7.071   3.248 129.552  0.00  0.00    +0.012 C 
ATOM      2  C   LIG A   1      -5.746   2.442 129.498  0.00  0.00    -0.017 C 
ATOM      3  C   LIG A   1      -5.216   2.338 130.943  0.00  0.00    +0.039 C 
ATOM      4  C   LIG A   1      -4.693   3.635 131.564  0.00  0.00    +0.119 C 
ATOM      5  C   LIG A   1      -3.494   4.241 130.767  0.00  0.00    +0.034 C 
ATOM      6  C   LIG A   1      -2.827   5.535 131.465  0.00  0.00    +0.025 C 
ATOM      7  C   LIG A   1      -1.377   5.766 130.934  0.00  0.00    +0.016 C 
ATOM      8  C   LIG A   1      -3.672   6.808 131.184  0.00  0.00    +0.151 C 
ATOM      9  C   LIG A   1      -4.061   6.991 129.706  0.00  0.00    +0.144 C 
ATOM     10  C   LIG A   1      -4.728   5.751 129.102  0.00  0.00    +0.041 C 
ATOM     11  C   LIG A   1      -3.899   4.452 129.243  0.00  0.00    -0.020 C 
ATOM     12  C   LIG A   1      -2.618   4.611 128.360  0.00  0.00    +0.012 C 
ATOM     13  C   LIG A   1      -4.635   3.159 128.651  0.00  0.00    +0.006 C 
ATOM     14  C   LIG A   1      -5.149   3.329 127.206  0.00  0.00    +0.031 C 
ATOM     15  C   LIG A   1      -5.541   2.018 126.604  0.00  0.00    -0.026 C 
ATOM     16  C   LIG A   1      -5.901   0.923 127.296  0.00  0.00    -0.063 C 
ATOM     17  C   LIG A   1      -6.025   0.945 128.845  0.00  0.00    -0.005 C 
ATOM     18  C   LIG A   1      -5.014  -0.082 129.445  0.00  0.00    +0.016 C 
ATOM     19  C   LIG A   1      -7.468   0.435 129.152  0.00  0.00    +0.012 C 
ATOM     20  C   LIG A   1      -7.814  -0.936 128.552  0.00  0.00    +0.019 C 
ATOM     21  C   LIG A   1      -7.555  -1.055 127.023  0.00  0.00    +0.074 C 
ATOM     22  C   LIG A   1      -6.181  -0.438 126.630  0.00  0.00    +0.035 C 
ATOM     23  C   LIG A   1      -5.782  -0.686 125.133  0.00  0.00    -0.003 C 
ATOM     24  C   LIG A   1      -6.632   0.006 124.059  0.00  0.00    +0.008 C 
ATOM     25  C   LIG A   1      -5.723  -2.226 124.911  0.00  0.00    -0.011 C 
ATOM     26  C   LIG A   1      -5.250  -2.620 123.511  0.00  0.00    +0.008 C 
ATOM     27  C   LIG A   1      -7.064  -2.895 125.249  0.00  0.00    +0.004 C 
ATOM     28  C   LIG A   1      -7.529  -2.574 126.672  0.00  0.00    +0.019 C 
ENDROOT
BRANCH   4  29
ATOM     29  O   LIG A   1      -4.259   3.233 132.870  0.00  0.00    -0.392 OA
ATOM     30  H   LIG A   1      -3.293   3.114 132.829  0.00  0.00    +0.210 HD
ENDBRANCH   4  29
BRANCH   8  31
ATOM     31  O   LIG A   1      -4.899   6.794 131.939  0.00  0.00    -0.389 OA
ATOM     32  H   LIG A   1      -4.628   6.839 132.876  0.00  0.00    +0.210 HD
ENDBRANCH   8  31
BRANCH   9  33
ATOM     33  O   LIG A   1      -4.993   8.078 129.614  0.00  0.00    -0.389 OA
ATOM     34  H   LIG A   1      -4.608   8.779 130.179  0.00  0.00    +0.210 HD
ENDBRANCH   9  33
BRANCH  21  35
ATOM     35  C   LIG A   1      -8.757  -0.422 126.320  0.00  0.00    +0.311 C 
ATOM     36  O   LIG A   1      -8.996   0.777 126.240  0.00  0.00    -0.250 OA
BRANCH  35  37
ATOM     37  O   LIG A   1      -9.571  -1.287 125.693  0.00  0.00    -0.480 OA
ATOM     38  H   LIG A   1      -9.771  -0.857 124.836  0.00  0.00    +0.295 HD
ENDBRANCH  35  37
ENDBRANCH  21  35
BRANCH   6  39
ATOM     39  C   LIG A   1      -2.660   5.365 133.005  0.00  0.00    +0.165 C 
BRANCH  39  40
ATOM     40  O   LIG A   1      -1.648   4.401 133.309  0.00  0.00    -0.394 OA
ATOM     41  H   LIG A   1      -1.402   3.984 132.464  0.00  0.00    +0.209 HD
ENDBRANCH  39  40
ENDBRANCH   6  39
TORSDOF 7
ENDMDL
MODEL 5
REMARK VINA RESULT:      -8.4      4.321      5.946
REMARK  Name = NuBBE_1176
REMARK  13 active torsions:
REMARK  status: ('A' for Active; 'I' for Inactive)
REMARK    1  A    between atoms: C_1  and  C_2
REMARK    2  A    between atoms: C_4  and  O_6
REMARK    3  A    between atoms: C_8  and  C_9
REMARK    4  A    between atoms: C_8  and  C_10
REMARK    5  A    between atoms: C_10  and  O_11
REMARK    6  A    between atoms: C_12  and  O_14
REMARK    7  A    between atoms: C_15  and  O_17
REMARK    8  A    between atoms: C_19  and  C_20
REMARK    9  A    between atoms: C_25  and  C_26
REMARK   10  A    between atoms: C_29  and  C_30
REMARK   11  A    between atoms: C_30  and  O_31
REMARK   12  A    between atoms: C_34  and  C_36
REMARK   13  A    between atoms: C_37  and  C_39
REMARK                            x       y       z     vdW  Elec       q    Type
REMARK                         _______ _______ _______ _____ _____    ______ ____
ROOT
ATOM      1  C   LIG A   1      -5.268  -1.622 127.281  0.00  0.00    +0.012 C 
ATOM      2  C   LIG A   1      -6.740  -1.842 127.721  0.00  0.00    -0.017 C 
ATOM      3  C   LIG A   1      -7.469  -2.526 126.546  0.00  0.00    +0.039 C 
ATOM      4  C   LIG A   1      -7.707  -1.664 125.305  0.00  0.00    +0.119 C 
ATOM      5  C   LIG A   1      -8.582  -0.405 125.608  0.00  0.00    +0.034 C 
ATOM      6  C   LIG A   1      -8.967   0.458 124.299  0.00  0.00    +0.025 C 
ATOM      7  C   LIG A   1     -10.218   1.353 124.574  0.00  0.00    +0.016 C 
ATOM      8  C   LIG A   1      -7.783   1.369 123.873  0.00  0.00    +0.151 C 
ATOM      9  C   LIG A   1      -7.163   2.176 125.029  0.00  0.00    +0.144 C 
ATOM     10  C   LIG A   1      -6.776   1.306 126.229  0.00  0.00    +0.041 C 
ATOM     11  C   LIG A   1      -7.932   0.443 126.788  0.00  0.00    -0.020 C 
ATOM     12  C   LIG A   1      -8.993   1.414 127.402  0.00  0.00    +0.012 C 
ATOM     13  C   LIG A   1      -7.494  -0.496 128.008  0.00  0.00    +0.006 C 
ATOM     14  C   LIG A   1      -6.763   0.246 129.146  0.00  0.00    +0.031 C 
ATOM     15  C   LIG A   1      -6.657  -0.600 130.375  0.00  0.00    -0.026 C 
ATOM     16  C   LIG A   1      -6.699  -1.943 130.398  0.00  0.00    -0.063 C 
ATOM     17  C   LIG A   1      -6.785  -2.776 129.089  0.00  0.00    -0.005 C 
ATOM     18  C   LIG A   1      -8.105  -3.610 129.108  0.00  0.00    +0.016 C 
ATOM     19  C   LIG A   1      -5.585  -3.773 129.153  0.00  0.00    +0.012 C 
ATOM     20  C   LIG A   1      -5.540  -4.654 130.411  0.00  0.00    +0.019 C 
ATOM     21  C   LIG A   1      -5.612  -3.869 131.751  0.00  0.00    +0.074 C 
ATOM     22  C   LIG A   1      -6.705  -2.762 131.703  0.00  0.00    +0.035 C 
ATOM     23  C   LIG A   1      -6.949  -2.054 133.083  0.00  0.00    -0.003 C 
ATOM     24  C   LIG A   1      -5.807  -1.191 133.638  0.00  0.00    +0.008 C 
ATOM     25  C   LIG A   1      -7.386  -3.148 134.101  0.00  0.00    -0.011 C 
ATOM     26  C   LIG A   1      -7.752  -2.586 135.475  0.00  0.00    +0.008 C 
ATOM     27  C   LIG A   1      -6.330  -4.257 134.223  0.00  0.00    +0.004 C 
ATOM     28  C   LIG A   1      -5.994  -4.887 132.867  0.00  0.00    +0.019 C 
ENDROOT
BRANCH   4  29
ATOM     29  O   LIG A   1      -8.406  -2.541 124.412  0.00  0.00    -0.392 OA
ATOM     30  H   LIG A   1      -8.761  -1.994 123.689  0.00  0.00    +0.210 HD
ENDBRANCH   4  29
BRANCH   8  31
ATOM     31  O   LIG A   1      -6.718   0.597 123.286  0.00  0.00    -0.389 OA
ATOM     32  H   LIG A   1      -6.623   0.937 122.375  0.00  0.00    +0.210 HD
ENDBRANCH   8  31
BRANCH   9  33
ATOM     33  O   LIG A   1      -5.971   2.814 124.547  0.00  0.00    -0.389 OA
ATOM     34  H   LIG A   1      -6.076   3.754 124.801  0.00  0.00    +0.210 HD
ENDBRANCH   9  33
BRANCH  21  35
ATOM     35  C   LIG A   1      -4.200  -3.352 132.038  0.00  0.00    +0.311 C 
ATOM     36  O   LIG A   1      -3.713  -2.313 131.610  0.00  0.00    -0.250 OA
BRANCH  35  37
ATOM     37  O   LIG A   1      -3.481  -4.102 132.888  0.00  0.00    -0.480 OA
ATOM     38  H   LIG A   1      -3.534  -3.624 133.742  0.00  0.00    +0.295 HD
ENDBRANCH  35  37
ENDBRANCH  21  35
BRANCH   6  39
ATOM     39  C   LIG A   1      -9.380  -0.437 123.092  0.00  0.00    +0.165 C 
BRANCH  39  40
ATOM     40  O   LIG A   1     -10.565   0.063 122.463  0.00  0.00    -0.394 OA
ATOM     41  H   LIG A   1     -10.838  -0.612 121.816  0.00  0.00    +0.209 HD
ENDBRANCH  39  40
ENDBRANCH   6  39
TORSDOF 7
ENDMDL
MODEL 6
REMARK VINA RESULT:      -8.3      4.334      8.111
REMARK  Name = NuBBE_1176
REMARK  13 active torsions:
REMARK  status: ('A' for Active; 'I' for Inactive)
REMARK    1  A    between atoms: C_1  and  C_2
REMARK    2  A    between atoms: C_4  and  O_6
REMARK    3  A    between atoms: C_8  and  C_9
REMARK    4  A    between atoms: C_8  and  C_10
REMARK    5  A    between atoms: C_10  and  O_11
REMARK    6  A    between atoms: C_12  and  O_14
REMARK    7  A    between atoms: C_15  and  O_17
REMARK    8  A    between atoms: C_19  and  C_20
REMARK    9  A    between atoms: C_25  and  C_26
REMARK   10  A    between atoms: C_29  and  C_30
REMARK   11  A    between atoms: C_30  and  O_31
REMARK   12  A    between atoms: C_34  and  C_36
REMARK   13  A    between atoms: C_37  and  C_39
REMARK                            x       y       z     vdW  Elec       q    Type
REMARK                         _______ _______ _______ _____ _____    ______ ____
ROOT
ATOM      1  C   LIG A   1      -5.712   2.917 130.728  0.00  0.00    +0.012 C 
ATOM      2  C   LIG A   1      -5.633   4.331 130.092  0.00  0.00    -0.017 C 
ATOM      3  C   LIG A   1      -7.014   4.630 129.474  0.00  0.00    +0.039 C 
ATOM      4  C   LIG A   1      -7.388   3.820 128.232  0.00  0.00    +0.119 C 
ATOM      5  C   LIG A   1      -6.391   4.042 127.049  0.00  0.00    +0.034 C 
ATOM      6  C   LIG A   1      -6.826   3.309 125.677  0.00  0.00    +0.025 C 
ATOM      7  C   LIG A   1      -6.118   3.966 124.450  0.00  0.00    +0.016 C 
ATOM      8  C   LIG A   1      -6.458   1.800 125.719  0.00  0.00    +0.151 C 
ATOM      9  C   LIG A   1      -5.018   1.517 126.184  0.00  0.00    +0.144 C 
ATOM     10  C   LIG A   1      -4.669   2.199 127.510  0.00  0.00    +0.041 C 
ATOM     11  C   LIG A   1      -4.904   3.728 127.519  0.00  0.00    -0.020 C 
ATOM     12  C   LIG A   1      -3.878   4.370 126.528  0.00  0.00    +0.012 C 
ATOM     13  C   LIG A   1      -4.582   4.414 128.929  0.00  0.00    +0.006 C 
ATOM     14  C   LIG A   1      -3.190   4.069 129.497  0.00  0.00    +0.031 C 
ATOM     15  C   LIG A   1      -2.823   4.965 130.637  0.00  0.00    -0.026 C 
ATOM     16  C   LIG A   1      -3.697   5.624 131.418  0.00  0.00    -0.063 C 
ATOM     17  C   LIG A   1      -5.232   5.446 131.250  0.00  0.00    -0.005 C 
ATOM     18  C   LIG A   1      -5.861   6.827 130.884  0.00  0.00    +0.016 C 
ATOM     19  C   LIG A   1      -5.758   5.036 132.661  0.00  0.00    +0.012 C 
ATOM     20  C   LIG A   1      -5.397   6.007 133.795  0.00  0.00    +0.019 C 
ATOM     21  C   LIG A   1      -3.882   6.340 133.903  0.00  0.00    +0.074 C 
ATOM     22  C   LIG A   1      -3.263   6.628 132.504  0.00  0.00    +0.035 C 
ATOM     23  C   LIG A   1      -1.782   7.143 132.561  0.00  0.00    -0.003 C 
ATOM     24  C   LIG A   1      -0.716   6.157 133.058  0.00  0.00    +0.008 C 
ATOM     25  C   LIG A   1      -1.775   8.459 133.393  0.00  0.00    -0.011 C 
ATOM     26  C   LIG A   1      -0.403   9.131 133.455  0.00  0.00    +0.008 C 
ATOM     27  C   LIG A   1      -2.343   8.236 134.803  0.00  0.00    +0.004 C 
ATOM     28  C   LIG A   1      -3.748   7.627 134.772  0.00  0.00    +0.019 C 
ENDROOT
BRANCH   4  29
ATOM     29  O   LIG A   1      -8.685   4.320 127.879  0.00  0.00    -0.392 OA
ATOM     30  H   LIG A   1      -8.929   3.913 127.028  0.00  0.00    +0.210 HD
ENDBRANCH   4  29
BRANCH   8  31
ATOM     31  O   LIG A   1      -7.332   1.077 126.607  0.00  0.00    -0.389 OA
ATOM     32  H   LIG A   1      -8.177   1.566 126.595  0.00  0.00    +0.210 HD
ENDBRANCH   8  31
BRANCH   9  33
ATOM     33  O   LIG A   1      -4.872   0.101 126.367  0.00  0.00    -0.389 OA
ATOM     34  H   LIG A   1      -4.276  -0.180 125.644  0.00  0.00    +0.210 HD
ENDBRANCH   9  33
BRANCH  21  35
ATOM     35  C   LIG A   1      -3.226   5.182 134.658  0.00  0.00    +0.311 C 
ATOM     36  O   LIG A   1      -2.997   4.066 134.208  0.00  0.00    -0.250 OA
BRANCH  35  37
ATOM     37  O   LIG A   1      -2.826   5.471 135.907  0.00  0.00    -0.480 OA
ATOM     38  H   LIG A   1      -2.406   6.353 135.832  0.00  0.00    +0.295 HD
ENDBRANCH  35  37
ENDBRANCH  21  35
BRANCH   6  39
ATOM     39  C   LIG A   1      -8.348   3.453 125.378  0.00  0.00    +0.165 C 
BRANCH  39  40
ATOM     40  O   LIG A   1      -8.706   4.825 125.180  0.00  0.00    -0.394 OA
ATOM     41  H   LIG A   1      -9.546   4.961 125.655  0.00  0.00    +0.209 HD
ENDBRANCH  39  40
ENDBRANCH   6  39
TORSDOF 7
ENDMDL
MODEL 7
REMARK VINA RESULT:      -8.2      4.254      7.977
REMARK  Name = NuBBE_1176
REMARK  13 active torsions:
REMARK  status: ('A' for Active; 'I' for Inactive)
REMARK    1  A    between atoms: C_1  and  C_2
REMARK    2  A    between atoms: C_4  and  O_6
REMARK    3  A    between atoms: C_8  and  C_9
REMARK    4  A    between atoms: C_8  and  C_10
REMARK    5  A    between atoms: C_10  and  O_11
REMARK    6  A    between atoms: C_12  and  O_14
REMARK    7  A    between atoms: C_15  and  O_17
REMARK    8  A    between atoms: C_19  and  C_20
REMARK    9  A    between atoms: C_25  and  C_26
REMARK   10  A    between atoms: C_29  and  C_30
REMARK   11  A    between atoms: C_30  and  O_31
REMARK   12  A    between atoms: C_34  and  C_36
REMARK   13  A    between atoms: C_37  and  C_39
REMARK                            x       y       z     vdW  Elec       q    Type
REMARK                         _______ _______ _______ _____ _____    ______ ____
ROOT
ATOM      1  C   LIG A   1      -4.570  -0.837 131.299  0.00  0.00    +0.012 C 
ATOM      2  C   LIG A   1      -5.898  -1.639 131.352  0.00  0.00    -0.017 C 
ATOM      3  C   LIG A   1      -6.545  -1.360 132.724  0.00  0.00    +0.039 C 
ATOM      4  C   LIG A   1      -5.841  -1.968 133.938  0.00  0.00    +0.119 C 
ATOM      5  C   LIG A   1      -5.764  -3.527 133.869  0.00  0.00    +0.034 C 
ATOM      6  C   LIG A   1      -5.148  -4.214 135.194  0.00  0.00    +0.025 C 
ATOM      7  C   LIG A   1      -5.567  -5.716 135.285  0.00  0.00    +0.016 C 
ATOM      8  C   LIG A   1      -3.597  -4.126 135.189  0.00  0.00    +0.151 C 
ATOM      9  C   LIG A   1      -2.947  -4.563 133.864  0.00  0.00    +0.144 C 
ATOM     10  C   LIG A   1      -3.536  -3.851 132.641  0.00  0.00    +0.041 C 
ATOM     11  C   LIG A   1      -5.073  -3.982 132.510  0.00  0.00    -0.020 C 
ATOM     12  C   LIG A   1      -5.396  -5.483 132.216  0.00  0.00    +0.012 C 
ATOM     13  C   LIG A   1      -5.674  -3.190 131.256  0.00  0.00    +0.006 C 
ATOM     14  C   LIG A   1      -4.979  -3.506 129.915  0.00  0.00    +0.031 C 
ATOM     15  C   LIG A   1      -5.766  -2.990 128.753  0.00  0.00    -0.026 C 
ATOM     16  C   LIG A   1      -6.651  -1.979 128.803  0.00  0.00    -0.063 C 
ATOM     17  C   LIG A   1      -6.888  -1.169 130.108  0.00  0.00    -0.005 C 
ATOM     18  C   LIG A   1      -8.379  -1.333 130.538  0.00  0.00    +0.016 C 
ATOM     19  C   LIG A   1      -6.661   0.325 129.716  0.00  0.00    +0.012 C 
ATOM     20  C   LIG A   1      -7.522   0.826 128.547  0.00  0.00    +0.019 C 
ATOM     21  C   LIG A   1      -7.438  -0.047 127.263  0.00  0.00    +0.074 C 
ATOM     22  C   LIG A   1      -7.522  -1.564 127.601  0.00  0.00    +0.035 C 
ATOM     23  C   LIG A   1      -7.623  -2.490 126.338  0.00  0.00    -0.003 C 
ATOM     24  C   LIG A   1      -6.396  -2.552 125.417  0.00  0.00    +0.008 C 
ATOM     25  C   LIG A   1      -8.904  -2.078 125.555  0.00  0.00    -0.011 C 
ATOM     26  C   LIG A   1      -9.185  -2.965 124.341  0.00  0.00    +0.008 C 
ATOM     27  C   LIG A   1      -8.870  -0.595 125.158  0.00  0.00    +0.004 C 
ATOM     28  C   LIG A   1      -8.659   0.323 126.367  0.00  0.00    +0.019 C 
ENDROOT
BRANCH   4  29
ATOM     29  O   LIG A   1      -6.663  -1.567 135.042  0.00  0.00    -0.392 OA
ATOM     30  H   LIG A   1      -7.584  -1.780 134.809  0.00  0.00    +0.210 HD
ENDBRANCH   4  29
BRANCH   8  31
ATOM     31  O   LIG A   1      -3.152  -2.780 135.447  0.00  0.00    -0.389 OA
ATOM     32  H   LIG A   1      -3.790  -2.203 134.986  0.00  0.00    +0.210 HD
ENDBRANCH   8  31
BRANCH   9  33
ATOM     33  O   LIG A   1      -1.548  -4.249 133.921  0.00  0.00    -0.389 OA
ATOM     34  H   LIG A   1      -1.493  -3.319 133.621  0.00  0.00    +0.210 HD
ENDBRANCH   9  33
BRANCH  21  35
ATOM     35  C   LIG A   1      -6.162   0.367 126.527  0.00  0.00    +0.311 C 
ATOM     36  O   LIG A   1      -6.106   1.038 125.504  0.00  0.00    -0.250 OA
BRANCH  35  37
ATOM     37  O   LIG A   1      -5.016  -0.007 127.119  0.00  0.00    -0.480 OA
ATOM     38  H   LIG A   1      -5.255  -0.806 127.632  0.00  0.00    +0.295 HD
ENDBRANCH  35  37
ENDBRANCH  21  35
BRANCH   6  39
ATOM     39  C   LIG A   1      -5.690  -3.574 136.507  0.00  0.00    +0.165 C 
BRANCH  39  40
ATOM     40  O   LIG A   1      -7.060  -3.927 136.725  0.00  0.00    -0.394 OA
ATOM     41  H   LIG A   1      -7.593  -3.234 136.295  0.00  0.00    +0.209 HD
ENDBRANCH  39  40
ENDBRANCH   6  39
TORSDOF 7
ENDMDL
MODEL 8
REMARK VINA RESULT:      -8.1      4.922      9.201
REMARK  Name = NuBBE_1176
REMARK  13 active torsions:
REMARK  status: ('A' for Active; 'I' for Inactive)
REMARK    1  A    between atoms: C_1  and  C_2
REMARK    2  A    between atoms: C_4  and  O_6
REMARK    3  A    between atoms: C_8  and  C_9
REMARK    4  A    between atoms: C_8  and  C_10
REMARK    5  A    between atoms: C_10  and  O_11
REMARK    6  A    between atoms: C_12  and  O_14
REMARK    7  A    between atoms: C_15  and  O_17
REMARK    8  A    between atoms: C_19  and  C_20
REMARK    9  A    between atoms: C_25  and  C_26
REMARK   10  A    between atoms: C_29  and  C_30
REMARK   11  A    between atoms: C_30  and  O_31
REMARK   12  A    between atoms: C_34  and  C_36
REMARK   13  A    between atoms: C_37  and  C_39
REMARK                            x       y       z     vdW  Elec       q    Type
REMARK                         _______ _______ _______ _____ _____    ______ ____
ROOT
ATOM      1  C   LIG A   1      -2.943   3.768 131.465  0.00  0.00    +0.012 C 
ATOM      2  C   LIG A   1      -3.942   4.917 131.160  0.00  0.00    -0.017 C 
ATOM      3  C   LIG A   1      -5.322   4.271 130.926  0.00  0.00    +0.039 C 
ATOM      4  C   LIG A   1      -5.478   3.459 129.639  0.00  0.00    +0.119 C 
ATOM      5  C   LIG A   1      -5.243   4.319 128.356  0.00  0.00    +0.034 C 
ATOM      6  C   LIG A   1      -5.530   3.532 126.975  0.00  0.00    +0.025 C 
ATOM      7  C   LIG A   1      -5.785   4.536 125.807  0.00  0.00    +0.016 C 
ATOM      8  C   LIG A   1      -4.327   2.623 126.600  0.00  0.00    +0.151 C 
ATOM      9  C   LIG A   1      -2.960   3.325 126.680  0.00  0.00    +0.144 C 
ATOM     10  C   LIG A   1      -2.718   4.021 128.024  0.00  0.00    +0.041 C 
ATOM     11  C   LIG A   1      -3.821   5.029 128.424  0.00  0.00    -0.020 C 
ATOM     12  C   LIG A   1      -3.762   6.220 127.412  0.00  0.00    +0.012 C 
ATOM     13  C   LIG A   1      -3.576   5.707 129.854  0.00  0.00    +0.006 C 
ATOM     14  C   LIG A   1      -2.174   6.327 130.028  0.00  0.00    +0.031 C 
ATOM     15  C   LIG A   1      -2.107   7.203 131.238  0.00  0.00    -0.026 C 
ATOM     16  C   LIG A   1      -2.912   7.107 132.311  0.00  0.00    -0.063 C 
ATOM     17  C   LIG A   1      -3.978   5.982 132.429  0.00  0.00    -0.005 C 
ATOM     18  C   LIG A   1      -5.392   6.635 132.522  0.00  0.00    +0.016 C 
ATOM     19  C   LIG A   1      -3.684   5.275 133.790  0.00  0.00    +0.012 C 
ATOM     20  C   LIG A   1      -3.669   6.205 135.014  0.00  0.00    +0.019 C 
ATOM     21  C   LIG A   1      -2.731   7.438 134.876  0.00  0.00    +0.074 C 
ATOM     22  C   LIG A   1      -2.878   8.110 133.480  0.00  0.00    +0.035 C 
ATOM     23  C   LIG A   1      -2.092   9.462 133.343  0.00  0.00    -0.003 C 
ATOM     24  C   LIG A   1      -0.559   9.386 133.373  0.00  0.00    +0.008 C 
ATOM     25  C   LIG A   1      -2.637  10.435 134.429  0.00  0.00    -0.011 C 
ATOM     26  C   LIG A   1      -2.025  11.834 134.353  0.00  0.00    +0.008 C 
ATOM     27  C   LIG A   1      -2.489   9.844 135.839  0.00  0.00    +0.004 C 
ATOM     28  C   LIG A   1      -3.155   8.470 135.964  0.00  0.00    +0.019 C 
ENDROOT
BRANCH   4  29
ATOM     29  O   LIG A   1      -6.839   3.010 129.684  0.00  0.00    -0.392 OA
ATOM     30  H   LIG A   1      -6.826   2.041 129.592  0.00  0.00    +0.210 HD
ENDBRANCH   4  29
BRANCH   8  31
ATOM     31  O   LIG A   1      -4.255   1.473 127.465  0.00  0.00    -0.389 OA
ATOM     32  H   LIG A   1      -4.178   1.832 128.369  0.00  0.00    +0.210 HD
ENDBRANCH   8  31
BRANCH   9  33
ATOM     33  O   LIG A   1      -1.933   2.337 126.507  0.00  0.00    -0.389 OA
ATOM     34  H   LIG A   1      -2.018   2.056 125.573  0.00  0.00    +0.210 HD
ENDBRANCH   9  33
BRANCH  21  35
ATOM     35  C   LIG A   1      -1.315   6.956 135.200  0.00  0.00    +0.311 C 
ATOM     36  O   LIG A   1      -0.682   7.212 136.216  0.00  0.00    -0.250 OA
BRANCH  35  37
ATOM     37  O   LIG A   1      -0.772   6.130 134.290  0.00  0.00    -0.480 OA
ATOM     38  H   LIG A   1      -1.132   5.248 134.515  0.00  0.00    +0.295 HD
ENDBRANCH  35  37
ENDBRANCH  21  35
BRANCH   6  39
ATOM     39  C   LIG A   1      -6.823   2.664 127.038  0.00  0.00    +0.165 C 
BRANCH  39  40
ATOM     40  O   LIG A   1      -7.995   3.485 127.011  0.00  0.00    -0.394 OA
ATOM     41  H   LIG A   1      -8.180   3.668 126.072  0.00  0.00    +0.209 HD
ENDBRANCH  39  40
ENDBRANCH   6  39
TORSDOF 7
ENDMDL
MODEL 9
REMARK VINA RESULT:      -8.1      5.053      6.942
REMARK  Name = NuBBE_1176
REMARK  13 active torsions:
REMARK  status: ('A' for Active; 'I' for Inactive)
REMARK    1  A    between atoms: C_1  and  C_2
REMARK    2  A    between atoms: C_4  and  O_6
REMARK    3  A    between atoms: C_8  and  C_9
REMARK    4  A    between atoms: C_8  and  C_10
REMARK    5  A    between atoms: C_10  and  O_11
REMARK    6  A    between atoms: C_12  and  O_14
REMARK    7  A    between atoms: C_15  and  O_17
REMARK    8  A    between atoms: C_19  and  C_20
REMARK    9  A    between atoms: C_25  and  C_26
REMARK   10  A    between atoms: C_29  and  C_30
REMARK   11  A    between atoms: C_30  and  O_31
REMARK   12  A    between atoms: C_34  and  C_36
REMARK   13  A    between atoms: C_37  and  C_39
REMARK                            x       y       z     vdW  Elec       q    Type
REMARK                         _______ _______ _______ _____ _____    ______ ____
ROOT
ATOM      1  C   LIG A   1      -5.083  -3.414 129.299  0.00  0.00    +0.012 C 
ATOM      2  C   LIG A   1      -6.259  -2.547 129.824  0.00  0.00    -0.017 C 
ATOM      3  C   LIG A   1      -7.565  -3.284 129.464  0.00  0.00    +0.039 C 
ATOM      4  C   LIG A   1      -7.931  -3.323 127.979  0.00  0.00    +0.119 C 
ATOM      5  C   LIG A   1      -8.124  -1.897 127.372  0.00  0.00    +0.034 C 
ATOM      6  C   LIG A   1      -8.641  -1.898 125.842  0.00  0.00    +0.025 C 
ATOM      7  C   LIG A   1      -9.295  -0.528 125.476  0.00  0.00    +0.016 C 
ATOM      8  C   LIG A   1      -7.464  -2.167 124.864  0.00  0.00    +0.151 C 
ATOM      9  C   LIG A   1      -6.216  -1.307 125.131  0.00  0.00    +0.144 C 
ATOM     10  C   LIG A   1      -5.740  -1.373 126.586  0.00  0.00    +0.041 C 
ATOM     11  C   LIG A   1      -6.826  -1.012 127.626  0.00  0.00    -0.020 C 
ATOM     12  C   LIG A   1      -7.164   0.505 127.449  0.00  0.00    +0.012 C 
ATOM     13  C   LIG A   1      -6.324  -1.136 129.141  0.00  0.00    +0.006 C 
ATOM     14  C   LIG A   1      -5.009  -0.384 129.435  0.00  0.00    +0.031 C 
ATOM     15  C   LIG A   1      -4.756  -0.274 130.905  0.00  0.00    -0.026 C 
ATOM     16  C   LIG A   1      -5.256  -1.097 131.842  0.00  0.00    -0.063 C 
ATOM     17  C   LIG A   1      -6.113  -2.337 131.461  0.00  0.00    -0.005 C 
ATOM     18  C   LIG A   1      -7.531  -2.181 132.096  0.00  0.00    +0.016 C 
ATOM     19  C   LIG A   1      -5.412  -3.552 132.145  0.00  0.00    +0.012 C 
ATOM     20  C   LIG A   1      -5.212  -3.416 133.662  0.00  0.00    +0.019 C 
ATOM     21  C   LIG A   1      -4.494  -2.109 134.105  0.00  0.00    +0.074 C 
ATOM     22  C   LIG A   1      -5.060  -0.869 133.354  0.00  0.00    +0.035 C 
ATOM     23  C   LIG A   1      -4.503   0.499 133.883  0.00  0.00    -0.003 C 
ATOM     24  C   LIG A   1      -3.012   0.784 133.655  0.00  0.00    +0.008 C 
ATOM     25  C   LIG A   1      -4.881   0.609 135.390  0.00  0.00    -0.011 C 
ATOM     26  C   LIG A   1      -4.483   1.944 136.020  0.00  0.00    +0.008 C 
ATOM     27  C   LIG A   1      -4.321  -0.572 136.198  0.00  0.00    +0.004 C 
ATOM     28  C   LIG A   1      -4.763  -1.924 135.629  0.00  0.00    +0.019 C 
ENDROOT
BRANCH   4  29
ATOM     29  O   LIG A   1      -9.173  -4.037 127.954  0.00  0.00    -0.392 OA
ATOM     30  H   LIG A   1      -9.409  -4.175 127.019  0.00  0.00    +0.210 HD
ENDBRANCH   4  29
BRANCH   8  31
ATOM     31  O   LIG A   1      -7.043  -3.544 124.924  0.00  0.00    -0.389 OA
ATOM     32  H   LIG A   1      -6.878  -3.806 123.998  0.00  0.00    +0.210 HD
ENDBRANCH   8  31
BRANCH   9  33
ATOM     33  O   LIG A   1      -5.149  -1.787 124.299  0.00  0.00    -0.389 OA
ATOM     34  H   LIG A   1      -4.346  -1.691 124.850  0.00  0.00    +0.210 HD
ENDBRANCH   9  33
BRANCH  21  35
ATOM     35  C   LIG A   1      -2.994  -2.338 133.907  0.00  0.00    +0.311 C 
ATOM     36  O   LIG A   1      -2.369  -2.163 132.868  0.00  0.00    -0.250 OA
BRANCH  35  37
ATOM     37  O   LIG A   1      -2.324  -2.709 135.011  0.00  0.00    -0.480 OA
ATOM     38  H   LIG A   1      -1.443  -2.982 134.682  0.00  0.00    +0.295 HD
ENDBRANCH  35  37
ENDBRANCH  21  35
BRANCH   6  39
ATOM     39  C   LIG A   1      -9.762  -2.950 125.590  0.00  0.00    +0.165 C 
BRANCH  39  40
ATOM     40  O   LIG A   1      -9.849  -3.287 124.202  0.00  0.00    -0.394 OA
ATOM     41  H   LIG A   1      -9.632  -4.235 124.136  0.00  0.00    +0.209 HD
ENDBRANCH  39  40
ENDBRANCH   6  39
TORSDOF 7
ENDMDL
