MODEL 1
REMARK VINA RESULT:      -9.1      0.000      0.000
REMARK  Name = NuBBE_380
REMARK  13 active torsions:
REMARK  status: ('A' for Active; 'I' for Inactive)
REMARK    1  A    between atoms: O_1  and  C_2
REMARK    2  A    between atoms: C_9  and  C_10
REMARK    3  A    between atoms: C_13  and  C_14
REMARK    4  A    between atoms: C_16  and  C_17
REMARK    5  A    between atoms: C_19  and  C_20
REMARK    6  A    between atoms: C_24  and  C_25
REMARK    7  A    between atoms: C_24  and  C_26
REMARK    8  A    between atoms: C_26  and  O_27
REMARK    9  A    between atoms: O_27  and  C_28
REMARK   10  A    between atoms: C_30  and  O_32
REMARK   11  A    between atoms: C_36  and  C_37
REMARK   12  A    between atoms: C_38  and  O_39
REMARK   13  A    between atoms: O_39  and  C_40
REMARK                            x       y       z     vdW  Elec       q    Type
REMARK                         _______ _______ _______ _____ _____    ______ ____
ROOT
ATOM      1  C   LIG A   1      -4.900  -0.637 133.481  0.00  0.00    +0.159 A 
ATOM      2  C   LIG A   1      -5.619  -0.522 132.296  0.00  0.00    +0.054 A 
ATOM      3  C   LIG A   1      -6.054  -1.657 131.586  0.00  0.00    -0.022 A 
ATOM      4  C   LIG A   1      -5.728  -2.930 132.101  0.00  0.00    +0.032 A 
ATOM      5  C   LIG A   1      -5.945  -4.127 131.231  0.00  0.00    +0.187 C 
ATOM      6  C   LIG A   1      -6.483  -3.919 129.875  0.00  0.00    +0.056 C 
ATOM      7  C   LIG A   1      -6.973  -2.739 129.464  0.00  0.00    -0.030 C 
ATOM      8  C   LIG A   1      -6.954  -1.493 130.344  0.00  0.00    +0.019 C 
ATOM      9  C   LIG A   1      -8.390  -1.268 130.881  0.00  0.00    +0.021 C 
ATOM     10  C   LIG A   1      -6.501  -0.257 129.515  0.00  0.00    +0.017 C 
ATOM     11  C   LIG A   1      -7.114  -0.172 128.119  0.00  0.00    +0.013 C 
ATOM     12  C   LIG A   1      -6.918  -1.465 127.278  0.00  0.00    -0.003 C 
ATOM     13  C   LIG A   1      -5.399  -1.699 127.065  0.00  0.00    +0.016 C 
ATOM     14  C   LIG A   1      -7.533  -2.607 128.106  0.00  0.00    -0.038 C 
ATOM     15  C   LIG A   1      -8.550  -3.380 127.653  0.00  0.00    -0.068 C 
ATOM     16  C   LIG A   1      -9.293  -4.413 128.473  0.00  0.00    +0.039 C 
ATOM     17  C   LIG A   1      -9.096  -3.263 126.244  0.00  0.00    +0.045 C 
ATOM     18  C   LIG A   1      -8.154  -2.560 125.241  0.00  0.00    +0.036 C 
ATOM     19  C   LIG A   1      -7.045  -3.540 124.826  0.00  0.00    +0.019 C 
ATOM     20  C   LIG A   1      -7.672  -1.247 125.907  0.00  0.00    +0.014 C 
ATOM     21  C   LIG A   1      -6.920  -0.339 124.909  0.00  0.00    +0.026 C 
ATOM     22  C   LIG A   1      -7.753   0.031 123.662  0.00  0.00    +0.098 C 
ATOM     23  C   LIG A   1      -6.821   0.776 122.675  0.00  0.00    +0.026 C 
ATOM     24  C   LIG A   1      -8.366  -1.210 122.976  0.00  0.00    +0.197 C 
ATOM     25  C   LIG A   1      -8.961  -2.223 123.974  0.00  0.00    +0.169 C 
ATOM     26  O   LIG A   1     -10.013  -2.812 123.707  0.00  0.00    -0.294 OA
ATOM     27  O   LIG A   1      -5.637  -5.268 131.552  0.00  0.00    -0.287 OA
ATOM     28  C   LIG A   1      -5.139  -3.050 133.388  0.00  0.00    +0.006 A 
ATOM     29  C   LIG A   1      -4.994  -4.393 134.067  0.00  0.00    +0.048 C 
ATOM     30  C   LIG A   1      -4.691  -1.888 134.064  0.00  0.00    +0.165 A 
ENDROOT
BRANCH   1  31
ATOM     31  O   LIG A   1      -4.420   0.511 134.048  0.00  0.00    -0.503 OA
ATOM     32  H   LIG A   1      -5.163   1.096 134.269  0.00  0.00    +0.292 HD
ENDBRANCH   1  31
BRANCH  22  33
ATOM     33  C   LIG A   1      -8.871   1.019 124.046  0.00  0.00    +0.316 C 
ATOM     34  O   LIG A   1      -9.968   1.063 123.515  0.00  0.00    -0.250 OA
BRANCH  33  35
ATOM     35  O   LIG A   1      -8.451   1.875 125.017  0.00  0.00    -0.468 OA
ATOM     36  C   LIG A   1      -8.582   3.268 124.723  0.00  0.00    +0.280 C 
ENDBRANCH  33  35
ENDBRANCH  22  33
BRANCH  24  37
ATOM     37  O   LIG A   1      -7.449  -1.859 122.098  0.00  0.00    -0.383 OA
ATOM     38  H   LIG A   1      -7.646  -2.807 122.053  0.00  0.00    +0.210 HD
ENDBRANCH  24  37
BRANCH  30  39
ATOM     39  O   LIG A   1      -4.016  -2.106 135.240  0.00  0.00    -0.491 OA
ATOM     40  C   LIG A   1      -2.595  -2.034 135.195  0.00  0.00    +0.277 C 
ENDBRANCH  30  39
TORSDOF 5
ENDMDL
MODEL 2
REMARK VINA RESULT:      -8.5      3.926      6.190
REMARK  Name = NuBBE_380
REMARK  13 active torsions:
REMARK  status: ('A' for Active; 'I' for Inactive)
REMARK    1  A    between atoms: O_1  and  C_2
REMARK    2  A    between atoms: C_9  and  C_10
REMARK    3  A    between atoms: C_13  and  C_14
REMARK    4  A    between atoms: C_16  and  C_17
REMARK    5  A    between atoms: C_19  and  C_20
REMARK    6  A    between atoms: C_24  and  C_25
REMARK    7  A    between atoms: C_24  and  C_26
REMARK    8  A    between atoms: C_26  and  O_27
REMARK    9  A    between atoms: O_27  and  C_28
REMARK   10  A    between atoms: C_30  and  O_32
REMARK   11  A    between atoms: C_36  and  C_37
REMARK   12  A    between atoms: C_38  and  O_39
REMARK   13  A    between atoms: O_39  and  C_40
REMARK                            x       y       z     vdW  Elec       q    Type
REMARK                         _______ _______ _______ _____ _____    ______ ____
ROOT
ATOM      1  C   LIG A   1      -3.656   4.154 131.257  0.00  0.00    +0.159 A 
ATOM      2  C   LIG A   1      -3.999   3.446 130.109  0.00  0.00    +0.054 A 
ATOM      3  C   LIG A   1      -5.183   3.722 129.401  0.00  0.00    -0.022 A 
ATOM      4  C   LIG A   1      -6.032   4.736 129.893  0.00  0.00    +0.032 A 
ATOM      5  C   LIG A   1      -7.406   4.857 129.314  0.00  0.00    +0.187 C 
ATOM      6  C   LIG A   1      -7.809   3.907 128.261  0.00  0.00    +0.056 C 
ATOM      7  C   LIG A   1      -6.939   3.079 127.662  0.00  0.00    -0.030 C 
ATOM      8  C   LIG A   1      -5.470   3.003 128.066  0.00  0.00    +0.019 C 
ATOM      9  C   LIG A   1      -4.641   3.750 126.990  0.00  0.00    +0.021 C 
ATOM     10  C   LIG A   1      -5.012   1.519 128.150  0.00  0.00    +0.017 C 
ATOM     11  C   LIG A   1      -5.516   0.636 127.010  0.00  0.00    +0.013 C 
ATOM     12  C   LIG A   1      -7.059   0.697 126.817  0.00  0.00    -0.003 C 
ATOM     13  C   LIG A   1      -7.746   0.170 128.105  0.00  0.00    +0.016 C 
ATOM     14  C   LIG A   1      -7.399   2.180 126.588  0.00  0.00    -0.038 C 
ATOM     15  C   LIG A   1      -8.006   2.631 125.463  0.00  0.00    -0.068 C 
ATOM     16  C   LIG A   1      -8.229   4.086 125.116  0.00  0.00    +0.039 C 
ATOM     17  C   LIG A   1      -8.508   1.698 124.380  0.00  0.00    +0.045 C 
ATOM     18  C   LIG A   1      -8.700   0.231 124.826  0.00  0.00    +0.036 C 
ATOM     19  C   LIG A   1      -9.996   0.123 125.646  0.00  0.00    +0.019 C 
ATOM     20  C   LIG A   1      -7.406  -0.198 125.563  0.00  0.00    +0.014 C 
ATOM     21  C   LIG A   1      -7.379  -1.717 125.842  0.00  0.00    +0.026 C 
ATOM     22  C   LIG A   1      -7.519  -2.581 124.570  0.00  0.00    +0.098 C 
ATOM     23  C   LIG A   1      -7.664  -4.057 125.015  0.00  0.00    +0.026 C 
ATOM     24  C   LIG A   1      -8.731  -2.166 123.707  0.00  0.00    +0.197 C 
ATOM     25  C   LIG A   1      -8.882  -0.638 123.569  0.00  0.00    +0.169 C 
ATOM     26  O   LIG A   1      -9.234  -0.145 122.493  0.00  0.00    -0.294 OA
ATOM     27  O   LIG A   1      -8.245   5.656 129.711  0.00  0.00    -0.287 OA
ATOM     28  C   LIG A   1      -5.607   5.566 130.965  0.00  0.00    +0.006 A 
ATOM     29  C   LIG A   1      -6.382   6.803 131.360  0.00  0.00    +0.048 C 
ATOM     30  C   LIG A   1      -4.423   5.245 131.671  0.00  0.00    +0.165 A 
ENDROOT
BRANCH   1  31
ATOM     31  O   LIG A   1      -2.547   3.749 131.947  0.00  0.00    -0.503 OA
ATOM     32  H   LIG A   1      -2.628   2.805 132.161  0.00  0.00    +0.292 HD
ENDBRANCH   1  31
BRANCH  22  33
ATOM     33  C   LIG A   1      -6.230  -2.497 123.730  0.00  0.00    +0.316 C 
ATOM     34  O   LIG A   1      -6.165  -2.027 122.607  0.00  0.00    -0.250 OA
BRANCH  33  35
ATOM     35  O   LIG A   1      -5.185  -3.072 124.384  0.00  0.00    -0.468 OA
ATOM     36  C   LIG A   1      -4.330  -3.901 123.592  0.00  0.00    +0.280 C 
ENDBRANCH  33  35
ENDBRANCH  22  33
BRANCH  24  37
ATOM     37  O   LIG A   1      -9.951  -2.746 124.163  0.00  0.00    -0.383 OA
ATOM     38  H   LIG A   1      -9.987  -3.683 123.915  0.00  0.00    +0.210 HD
ENDBRANCH  24  37
BRANCH  30  39
ATOM     39  O   LIG A   1      -4.157   6.020 132.773  0.00  0.00    -0.491 OA
ATOM     40  C   LIG A   1      -3.126   6.993 132.647  0.00  0.00    +0.277 C 
ENDBRANCH  30  39
TORSDOF 5
ENDMDL
MODEL 3
REMARK VINA RESULT:      -8.5      1.914      8.796
REMARK  Name = NuBBE_380
REMARK  13 active torsions:
REMARK  status: ('A' for Active; 'I' for Inactive)
REMARK    1  A    between atoms: O_1  and  C_2
REMARK    2  A    between atoms: C_9  and  C_10
REMARK    3  A    between atoms: C_13  and  C_14
REMARK    4  A    between atoms: C_16  and  C_17
REMARK    5  A    between atoms: C_19  and  C_20
REMARK    6  A    between atoms: C_24  and  C_25
REMARK    7  A    between atoms: C_24  and  C_26
REMARK    8  A    between atoms: C_26  and  O_27
REMARK    9  A    between atoms: O_27  and  C_28
REMARK   10  A    between atoms: C_30  and  O_32
REMARK   11  A    between atoms: C_36  and  C_37
REMARK   12  A    between atoms: C_38  and  O_39
REMARK   13  A    between atoms: O_39  and  C_40
REMARK                            x       y       z     vdW  Elec       q    Type
REMARK                         _______ _______ _______ _____ _____    ______ ____
ROOT
ATOM      1  C   LIG A   1      -8.516   1.236 125.325  0.00  0.00    +0.159 A 
ATOM      2  C   LIG A   1      -7.984   0.828 126.545  0.00  0.00    +0.054 A 
ATOM      3  C   LIG A   1      -7.129  -0.286 126.638  0.00  0.00    -0.022 A 
ATOM      4  C   LIG A   1      -6.830  -0.997 125.456  0.00  0.00    +0.032 A 
ATOM      5  C   LIG A   1      -6.149  -2.323 125.576  0.00  0.00    +0.187 C 
ATOM      6  C   LIG A   1      -5.830  -2.827 126.924  0.00  0.00    +0.056 C 
ATOM      7  C   LIG A   1      -5.936  -2.067 128.025  0.00  0.00    -0.030 C 
ATOM      8  C   LIG A   1      -6.460  -0.635 127.983  0.00  0.00    +0.019 C 
ATOM      9  C   LIG A   1      -5.246   0.319 128.120  0.00  0.00    +0.021 C 
ATOM     10  C   LIG A   1      -7.456  -0.394 129.153  0.00  0.00    +0.017 C 
ATOM     11  C   LIG A   1      -7.016  -0.987 130.491  0.00  0.00    +0.013 C 
ATOM     12  C   LIG A   1      -6.662  -2.499 130.410  0.00  0.00    -0.003 C 
ATOM     13  C   LIG A   1      -7.929  -3.289 129.986  0.00  0.00    +0.016 C 
ATOM     14  C   LIG A   1      -5.563  -2.621 129.340  0.00  0.00    -0.038 C 
ATOM     15  C   LIG A   1      -4.333  -3.127 129.601  0.00  0.00    -0.068 C 
ATOM     16  C   LIG A   1      -3.169  -3.133 128.635  0.00  0.00    +0.039 C 
ATOM     17  C   LIG A   1      -3.969  -3.727 130.944  0.00  0.00    +0.045 C 
ATOM     18  C   LIG A   1      -5.175  -4.135 131.820  0.00  0.00    +0.036 C 
ATOM     19  C   LIG A   1      -5.755  -5.456 131.286  0.00  0.00    +0.019 C 
ATOM     20  C   LIG A   1      -6.155  -2.935 131.841  0.00  0.00    +0.014 C 
ATOM     21  C   LIG A   1      -7.282  -3.130 132.879  0.00  0.00    +0.026 C 
ATOM     22  C   LIG A   1      -6.765  -3.356 134.317  0.00  0.00    +0.098 C 
ATOM     23  C   LIG A   1      -7.980  -3.720 135.204  0.00  0.00    +0.026 C 
ATOM     24  C   LIG A   1      -5.701  -4.474 134.390  0.00  0.00    +0.197 C 
ATOM     25  C   LIG A   1      -4.668  -4.404 133.248  0.00  0.00    +0.169 C 
ATOM     26  O   LIG A   1      -3.480  -4.654 133.471  0.00  0.00    -0.294 OA
ATOM     27  O   LIG A   1      -5.902  -3.052 124.623  0.00  0.00    -0.287 OA
ATOM     28  C   LIG A   1      -7.237  -0.488 124.194  0.00  0.00    +0.006 A 
ATOM     29  C   LIG A   1      -6.737  -1.091 122.901  0.00  0.00    +0.048 C 
ATOM     30  C   LIG A   1      -8.118   0.620 124.137  0.00  0.00    +0.165 A 
ENDROOT
BRANCH   1  31
ATOM     31  O   LIG A   1      -9.425   2.257 125.338  0.00  0.00    -0.503 OA
ATOM     32  H   LIG A   1      -9.530   2.584 126.246  0.00  0.00    +0.292 HD
ENDBRANCH   1  31
BRANCH  22  33
ATOM     33  C   LIG A   1      -6.182  -2.046 134.881  0.00  0.00    +0.316 C 
ATOM     34  O   LIG A   1      -5.220  -1.981 135.627  0.00  0.00    -0.250 OA
BRANCH  33  35
ATOM     35  O   LIG A   1      -6.920  -0.975 134.483  0.00  0.00    -0.468 OA
ATOM     36  C   LIG A   1      -6.185   0.208 134.160  0.00  0.00    +0.280 C 
ENDBRANCH  33  35
ENDBRANCH  22  33
BRANCH  24  37
ATOM     37  O   LIG A   1      -6.279  -5.775 134.458  0.00  0.00    -0.383 OA
ATOM     38  H   LIG A   1      -5.704  -6.419 134.016  0.00  0.00    +0.210 HD
ENDBRANCH  24  37
BRANCH  30  39
ATOM     39  O   LIG A   1      -8.565   0.963 122.885  0.00  0.00    -0.491 OA
ATOM     40  C   LIG A   1      -9.889   0.572 122.540  0.00  0.00    +0.277 C 
ENDBRANCH  30  39
TORSDOF 5
ENDMDL
MODEL 4
REMARK VINA RESULT:      -8.4      1.733      9.123
REMARK  Name = NuBBE_380
REMARK  13 active torsions:
REMARK  status: ('A' for Active; 'I' for Inactive)
REMARK    1  A    between atoms: O_1  and  C_2
REMARK    2  A    between atoms: C_9  and  C_10
REMARK    3  A    between atoms: C_13  and  C_14
REMARK    4  A    between atoms: C_16  and  C_17
REMARK    5  A    between atoms: C_19  and  C_20
REMARK    6  A    between atoms: C_24  and  C_25
REMARK    7  A    between atoms: C_24  and  C_26
REMARK    8  A    between atoms: C_26  and  O_27
REMARK    9  A    between atoms: O_27  and  C_28
REMARK   10  A    between atoms: C_30  and  O_32
REMARK   11  A    between atoms: C_36  and  C_37
REMARK   12  A    between atoms: C_38  and  O_39
REMARK   13  A    between atoms: O_39  and  C_40
REMARK                            x       y       z     vdW  Elec       q    Type
REMARK                         _______ _______ _______ _____ _____    ______ ____
ROOT
ATOM      1  C   LIG A   1      -7.959   0.392 126.329  0.00  0.00    +0.159 A 
ATOM      2  C   LIG A   1      -7.240   0.055 127.471  0.00  0.00    +0.054 A 
ATOM      3  C   LIG A   1      -7.330  -1.228 128.044  0.00  0.00    -0.022 A 
ATOM      4  C   LIG A   1      -8.186  -2.170 127.436  0.00  0.00    +0.032 A 
ATOM      5  C   LIG A   1      -8.495  -3.433 128.176  0.00  0.00    +0.187 C 
ATOM      6  C   LIG A   1      -7.897  -3.628 129.509  0.00  0.00    +0.056 C 
ATOM      7  C   LIG A   1      -6.935  -2.827 129.995  0.00  0.00    -0.030 C 
ATOM      8  C   LIG A   1      -6.427  -1.605 129.237  0.00  0.00    +0.019 C 
ATOM      9  C   LIG A   1      -5.045  -1.963 128.632  0.00  0.00    +0.021 C 
ATOM     10  C   LIG A   1      -6.283  -0.395 130.203  0.00  0.00    +0.017 C 
ATOM     11  C   LIG A   1      -5.669  -0.737 131.559  0.00  0.00    +0.013 C 
ATOM     12  C   LIG A   1      -6.394  -1.904 132.288  0.00  0.00    -0.003 C 
ATOM     13  C   LIG A   1      -7.859  -1.484 132.574  0.00  0.00    +0.016 C 
ATOM     14  C   LIG A   1      -6.351  -3.101 131.321  0.00  0.00    -0.038 C 
ATOM     15  C   LIG A   1      -5.763  -4.281 131.634  0.00  0.00    -0.068 C 
ATOM     16  C   LIG A   1      -5.557  -5.434 130.678  0.00  0.00    +0.039 C 
ATOM     17  C   LIG A   1      -5.195  -4.567 133.010  0.00  0.00    +0.045 C 
ATOM     18  C   LIG A   1      -5.720  -3.642 134.132  0.00  0.00    +0.036 C 
ATOM     19  C   LIG A   1      -7.138  -4.089 134.525  0.00  0.00    +0.019 C 
ATOM     20  C   LIG A   1      -5.596  -2.185 133.623  0.00  0.00    +0.014 C 
ATOM     21  C   LIG A   1      -5.860  -1.158 134.746  0.00  0.00    +0.026 C 
ATOM     22  C   LIG A   1      -4.929  -1.323 135.966  0.00  0.00    +0.098 C 
ATOM     23  C   LIG A   1      -5.426  -0.364 137.074  0.00  0.00    +0.026 C 
ATOM     24  C   LIG A   1      -4.903  -2.775 136.494  0.00  0.00    +0.197 C 
ATOM     25  C   LIG A   1      -4.825  -3.828 135.371  0.00  0.00    +0.169 C 
ATOM     26  O   LIG A   1      -4.130  -4.837 135.515  0.00  0.00    -0.294 OA
ATOM     27  O   LIG A   1      -9.274  -4.287 127.772  0.00  0.00    -0.287 OA
ATOM     28  C   LIG A   1      -8.791  -1.882 126.183  0.00  0.00    +0.006 A 
ATOM     29  C   LIG A   1      -9.517  -2.948 125.394  0.00  0.00    +0.048 C 
ATOM     30  C   LIG A   1      -8.701  -0.574 125.648  0.00  0.00    +0.165 A 
ENDROOT
BRANCH   1  31
ATOM     31  O   LIG A   1      -7.902   1.690 125.902  0.00  0.00    -0.503 OA
ATOM     32  H   LIG A   1      -8.613   2.199 126.325  0.00  0.00    +0.292 HD
ENDBRANCH   1  31
BRANCH  22  33
ATOM     33  C   LIG A   1      -3.499  -0.877 135.604  0.00  0.00    +0.316 C 
ATOM     34  O   LIG A   1      -2.482  -1.388 136.042  0.00  0.00    -0.250 OA
BRANCH  33  35
ATOM     35  O   LIG A   1      -3.522   0.202 134.776  0.00  0.00    -0.468 OA
ATOM     36  C   LIG A   1      -2.680   0.125 133.622  0.00  0.00    +0.280 C 
ENDBRANCH  33  35
ENDBRANCH  22  33
BRANCH  24  37
ATOM     37  O   LIG A   1      -5.996  -3.059 137.365  0.00  0.00    -0.383 OA
ATOM     38  H   LIG A   1      -6.089  -4.017 137.482  0.00  0.00    +0.210 HD
ENDBRANCH  24  37
BRANCH  30  39
ATOM     39  O   LIG A   1      -9.424  -0.349 124.502  0.00  0.00    -0.491 OA
ATOM     40  C   LIG A   1      -8.695  -0.254 123.284  0.00  0.00    +0.277 C 
ENDBRANCH  30  39
TORSDOF 5
ENDMDL
MODEL 5
REMARK VINA RESULT:      -8.3      3.863      5.427
REMARK  Name = NuBBE_380
REMARK  13 active torsions:
REMARK  status: ('A' for Active; 'I' for Inactive)
REMARK    1  A    between atoms: O_1  and  C_2
REMARK    2  A    between atoms: C_9  and  C_10
REMARK    3  A    between atoms: C_13  and  C_14
REMARK    4  A    between atoms: C_16  and  C_17
REMARK    5  A    between atoms: C_19  and  C_20
REMARK    6  A    between atoms: C_24  and  C_25
REMARK    7  A    between atoms: C_24  and  C_26
REMARK    8  A    between atoms: C_26  and  O_27
REMARK    9  A    between atoms: O_27  and  C_28
REMARK   10  A    between atoms: C_30  and  O_32
REMARK   11  A    between atoms: C_36  and  C_37
REMARK   12  A    between atoms: C_38  and  O_39
REMARK   13  A    between atoms: O_39  and  C_40
REMARK                            x       y       z     vdW  Elec       q    Type
REMARK                         _______ _______ _______ _____ _____    ______ ____
ROOT
ATOM      1  C   LIG A   1      -3.764   6.246 128.923  0.00  0.00    +0.159 A 
ATOM      2  C   LIG A   1      -4.616   5.317 128.335  0.00  0.00    +0.054 A 
ATOM      3  C   LIG A   1      -4.894   4.082 128.951  0.00  0.00    -0.022 A 
ATOM      4  C   LIG A   1      -4.272   3.799 130.185  0.00  0.00    +0.032 A 
ATOM      5  C   LIG A   1      -4.344   2.401 130.714  0.00  0.00    +0.187 C 
ATOM      6  C   LIG A   1      -5.056   1.386 129.917  0.00  0.00    +0.056 C 
ATOM      7  C   LIG A   1      -5.809   1.700 128.851  0.00  0.00    -0.030 C 
ATOM      8  C   LIG A   1      -5.938   3.129 128.333  0.00  0.00    +0.019 C 
ATOM      9  C   LIG A   1      -7.324   3.669 128.770  0.00  0.00    +0.021 C 
ATOM     10  C   LIG A   1      -5.828   3.150 126.782  0.00  0.00    +0.017 C 
ATOM     11  C   LIG A   1      -6.594   2.031 126.078  0.00  0.00    +0.013 C 
ATOM     12  C   LIG A   1      -6.241   0.612 126.608  0.00  0.00    -0.003 C 
ATOM     13  C   LIG A   1      -4.737   0.337 126.340  0.00  0.00    +0.016 C 
ATOM     14  C   LIG A   1      -6.527   0.640 128.120  0.00  0.00    -0.038 C 
ATOM     15  C   LIG A   1      -7.416  -0.190 128.717  0.00  0.00    -0.068 C 
ATOM     16  C   LIG A   1      -7.849  -0.110 130.164  0.00  0.00    +0.039 C 
ATOM     17  C   LIG A   1      -8.124  -1.300 127.966  0.00  0.00    +0.045 C 
ATOM     18  C   LIG A   1      -7.452  -1.713 126.636  0.00  0.00    +0.036 C 
ATOM     19  C   LIG A   1      -6.224  -2.584 126.947  0.00  0.00    +0.019 C 
ATOM     20  C   LIG A   1      -7.167  -0.414 125.843  0.00  0.00    +0.014 C 
ATOM     21  C   LIG A   1      -6.720  -0.711 124.394  0.00  0.00    +0.026 C 
ATOM     22  C   LIG A   1      -7.739  -1.551 123.593  0.00  0.00    +0.098 C 
ATOM     23  C   LIG A   1      -7.083  -1.927 122.242  0.00  0.00    +0.026 C 
ATOM     24  C   LIG A   1      -8.168  -2.829 124.347  0.00  0.00    +0.197 C 
ATOM     25  C   LIG A   1      -8.442  -2.587 125.845  0.00  0.00    +0.169 C 
ATOM     26  O   LIG A   1      -9.380  -3.162 126.404  0.00  0.00    -0.294 OA
ATOM     27  O   LIG A   1      -3.786   2.031 131.739  0.00  0.00    -0.287 OA
ATOM     28  C   LIG A   1      -3.535   4.807 130.862  0.00  0.00    +0.006 A 
ATOM     29  C   LIG A   1      -3.057   4.615 132.284  0.00  0.00    +0.048 C 
ATOM     30  C   LIG A   1      -3.253   6.028 130.203  0.00  0.00    +0.165 A 
ENDROOT
BRANCH   1  31
ATOM     31  O   LIG A   1      -3.459   7.372 128.208  0.00  0.00    -0.503 OA
ATOM     32  H   LIG A   1      -2.495   7.449 128.126  0.00  0.00    +0.292 HD
ENDBRANCH   1  31
BRANCH  22  33
ATOM     33  C   LIG A   1      -8.980  -0.701 123.262  0.00  0.00    +0.316 C 
ATOM     34  O   LIG A   1     -10.068  -1.156 122.952  0.00  0.00    -0.250 OA
BRANCH  33  35
ATOM     35  O   LIG A   1      -8.686   0.626 123.302  0.00  0.00    -0.468 OA
ATOM     36  C   LIG A   1      -9.726   1.485 123.775  0.00  0.00    +0.280 C 
ENDBRANCH  33  35
ENDBRANCH  22  33
BRANCH  24  37
ATOM     37  O   LIG A   1      -7.242  -3.900 124.179  0.00  0.00    -0.383 OA
ATOM     38  H   LIG A   1      -7.598  -4.553 123.557  0.00  0.00    +0.210 HD
ENDBRANCH  24  37
BRANCH  30  39
ATOM     39  O   LIG A   1      -2.425   6.892 130.878  0.00  0.00    -0.491 OA
ATOM     40  C   LIG A   1      -3.034   8.010 131.514  0.00  0.00    +0.277 C 
ENDBRANCH  30  39
TORSDOF 5
ENDMDL
MODEL 6
REMARK VINA RESULT:      -8.2      4.251      9.251
REMARK  Name = NuBBE_380
REMARK  13 active torsions:
REMARK  status: ('A' for Active; 'I' for Inactive)
REMARK    1  A    between atoms: O_1  and  C_2
REMARK    2  A    between atoms: C_9  and  C_10
REMARK    3  A    between atoms: C_13  and  C_14
REMARK    4  A    between atoms: C_16  and  C_17
REMARK    5  A    between atoms: C_19  and  C_20
REMARK    6  A    between atoms: C_24  and  C_25
REMARK    7  A    between atoms: C_24  and  C_26
REMARK    8  A    between atoms: C_26  and  O_27
REMARK    9  A    between atoms: O_27  and  C_28
REMARK   10  A    between atoms: C_30  and  O_32
REMARK   11  A    between atoms: C_36  and  C_37
REMARK   12  A    between atoms: C_38  and  O_39
REMARK   13  A    between atoms: O_39  and  C_40
REMARK                            x       y       z     vdW  Elec       q    Type
REMARK                         _______ _______ _______ _____ _____    ______ ____
ROOT
ATOM      1  C   LIG A   1      -9.220   0.059 123.617  0.00  0.00    +0.159 A 
ATOM      2  C   LIG A   1      -8.774   1.032 124.506  0.00  0.00    +0.054 A 
ATOM      3  C   LIG A   1      -7.503   0.955 125.104  0.00  0.00    -0.022 A 
ATOM      4  C   LIG A   1      -6.686  -0.152 124.791  0.00  0.00    +0.032 A 
ATOM      5  C   LIG A   1      -5.458  -0.386 125.613  0.00  0.00    +0.187 C 
ATOM      6  C   LIG A   1      -5.165   0.547 126.716  0.00  0.00    +0.056 C 
ATOM      7  C   LIG A   1      -5.831   1.701 126.884  0.00  0.00    -0.030 C 
ATOM      8  C   LIG A   1      -6.993   2.113 125.987  0.00  0.00    +0.019 C 
ATOM      9  C   LIG A   1      -6.477   3.201 125.010  0.00  0.00    +0.021 C 
ATOM     10  C   LIG A   1      -8.158   2.683 126.845  0.00  0.00    +0.017 C 
ATOM     11  C   LIG A   1      -7.717   3.619 127.968  0.00  0.00    +0.013 C 
ATOM     12  C   LIG A   1      -6.636   3.001 128.900  0.00  0.00    -0.003 C 
ATOM     13  C   LIG A   1      -7.230   1.747 129.594  0.00  0.00    +0.016 C 
ATOM     14  C   LIG A   1      -5.462   2.609 127.985  0.00  0.00    -0.038 C 
ATOM     15  C   LIG A   1      -4.212   3.111 128.135  0.00  0.00    -0.068 C 
ATOM     16  C   LIG A   1      -3.059   2.882 127.182  0.00  0.00    +0.039 C 
ATOM     17  C   LIG A   1      -3.832   4.016 129.290  0.00  0.00    +0.045 C 
ATOM     18  C   LIG A   1      -4.793   3.962 130.499  0.00  0.00    +0.036 C 
ATOM     19  C   LIG A   1      -4.520   2.676 131.298  0.00  0.00    +0.019 C 
ATOM     20  C   LIG A   1      -6.233   4.112 129.948  0.00  0.00    +0.014 C 
ATOM     21  C   LIG A   1      -7.264   4.318 131.079  0.00  0.00    +0.026 C 
ATOM     22  C   LIG A   1      -6.961   5.539 131.976  0.00  0.00    +0.098 C 
ATOM     23  C   LIG A   1      -7.954   5.511 133.163  0.00  0.00    +0.026 C 
ATOM     24  C   LIG A   1      -5.508   5.536 132.501  0.00  0.00    +0.197 C 
ATOM     25  C   LIG A   1      -4.475   5.150 131.424  0.00  0.00    +0.169 C 
ATOM     26  O   LIG A   1      -3.384   5.725 131.378  0.00  0.00    -0.294 OA
ATOM     27  O   LIG A   1      -4.716  -1.349 125.470  0.00  0.00    -0.287 OA
ATOM     28  C   LIG A   1      -7.071  -1.056 123.765  0.00  0.00    +0.006 A 
ATOM     29  C   LIG A   1      -6.119  -2.109 123.243  0.00  0.00    +0.048 C 
ATOM     30  C   LIG A   1      -8.367  -0.965 123.202  0.00  0.00    +0.165 A 
ENDROOT
BRANCH   1  31
ATOM     31  O   LIG A   1     -10.509   0.149 123.168  0.00  0.00    -0.503 OA
ATOM     32  H   LIG A   1     -10.787   1.080 123.174  0.00  0.00    +0.292 HD
ENDBRANCH   1  31
BRANCH  22  33
ATOM     33  C   LIG A   1      -7.232   6.843 131.203  0.00  0.00    +0.316 C 
ATOM     34  O   LIG A   1      -6.379   7.496 130.626  0.00  0.00    -0.250 OA
BRANCH  33  35
ATOM     35  O   LIG A   1      -8.540   7.203 131.299  0.00  0.00    -0.468 OA
ATOM     36  C   LIG A   1      -9.280   7.208 130.075  0.00  0.00    +0.280 C 
ENDBRANCH  33  35
ENDBRANCH  22  33
BRANCH  24  37
ATOM     37  O   LIG A   1      -5.347   4.720 133.659  0.00  0.00    -0.383 OA
ATOM     38  H   LIG A   1      -5.637   5.201 134.449  0.00  0.00    +0.210 HD
ENDBRANCH  24  37
BRANCH  30  39
ATOM     39  O   LIG A   1      -8.702  -1.957 122.314  0.00  0.00    -0.491 OA
ATOM     40  C   LIG A   1      -9.417  -3.074 122.829  0.00  0.00    +0.277 C 
ENDBRANCH  30  39
TORSDOF 5
ENDMDL
MODEL 7
REMARK VINA RESULT:      -8.2      1.778      4.116
REMARK  Name = NuBBE_380
REMARK  13 active torsions:
REMARK  status: ('A' for Active; 'I' for Inactive)
REMARK    1  A    between atoms: O_1  and  C_2
REMARK    2  A    between atoms: C_9  and  C_10
REMARK    3  A    between atoms: C_13  and  C_14
REMARK    4  A    between atoms: C_16  and  C_17
REMARK    5  A    between atoms: C_19  and  C_20
REMARK    6  A    between atoms: C_24  and  C_25
REMARK    7  A    between atoms: C_24  and  C_26
REMARK    8  A    between atoms: C_26  and  O_27
REMARK    9  A    between atoms: O_27  and  C_28
REMARK   10  A    between atoms: C_30  and  O_32
REMARK   11  A    between atoms: C_36  and  C_37
REMARK   12  A    between atoms: C_38  and  O_39
REMARK   13  A    between atoms: O_39  and  C_40
REMARK                            x       y       z     vdW  Elec       q    Type
REMARK                         _______ _______ _______ _____ _____    ______ ____
ROOT
ATOM      1  C   LIG A   1      -3.682  -4.380 133.521  0.00  0.00    +0.159 A 
ATOM      2  C   LIG A   1      -3.882  -3.988 132.201  0.00  0.00    +0.054 A 
ATOM      3  C   LIG A   1      -4.302  -2.684 131.877  0.00  0.00    -0.022 A 
ATOM      4  C   LIG A   1      -4.530  -1.776 132.932  0.00  0.00    +0.032 A 
ATOM      5  C   LIG A   1      -5.225  -0.488 132.625  0.00  0.00    +0.187 C 
ATOM      6  C   LIG A   1      -5.644  -0.231 131.235  0.00  0.00    +0.056 C 
ATOM      7  C   LIG A   1      -5.252  -1.001 130.208  0.00  0.00    -0.030 C 
ATOM      8  C   LIG A   1      -4.394  -2.248 130.399  0.00  0.00    +0.019 C 
ATOM      9  C   LIG A   1      -2.948  -1.901 129.963  0.00  0.00    +0.021 C 
ATOM     10  C   LIG A   1      -4.943  -3.416 129.531  0.00  0.00    +0.017 C 
ATOM     11  C   LIG A   1      -5.362  -3.011 128.119  0.00  0.00    +0.013 C 
ATOM     12  C   LIG A   1      -6.365  -1.823 128.089  0.00  0.00    -0.003 C 
ATOM     13  C   LIG A   1      -7.666  -2.246 128.819  0.00  0.00    +0.016 C 
ATOM     14  C   LIG A   1      -5.675  -0.667 128.835  0.00  0.00    -0.038 C 
ATOM     15  C   LIG A   1      -5.414   0.531 128.258  0.00  0.00    -0.068 C 
ATOM     16  C   LIG A   1      -4.610   1.647 128.888  0.00  0.00    +0.039 C 
ATOM     17  C   LIG A   1      -5.883   0.880 126.860  0.00  0.00    +0.045 C 
ATOM     18  C   LIG A   1      -7.033  -0.003 126.323  0.00  0.00    +0.036 C 
ATOM     19  C   LIG A   1      -8.352   0.445 126.975  0.00  0.00    +0.019 C 
ATOM     20  C   LIG A   1      -6.633  -1.479 126.570  0.00  0.00    +0.014 C 
ATOM     21  C   LIG A   1      -7.588  -2.461 125.858  0.00  0.00    +0.026 C 
ATOM     22  C   LIG A   1      -7.682  -2.236 124.333  0.00  0.00    +0.098 C 
ATOM     23  C   LIG A   1      -8.803  -3.154 123.788  0.00  0.00    +0.026 C 
ATOM     24  C   LIG A   1      -7.981  -0.764 123.974  0.00  0.00    +0.197 C 
ATOM     25  C   LIG A   1      -7.165   0.243 124.809  0.00  0.00    +0.169 C 
ATOM     26  O   LIG A   1      -6.716   1.265 124.283  0.00  0.00    -0.294 OA
ATOM     27  O   LIG A   1      -5.531   0.341 133.473  0.00  0.00    -0.287 OA
ATOM     28  C   LIG A   1      -4.171  -2.122 134.263  0.00  0.00    +0.006 A 
ATOM     29  C   LIG A   1      -4.181  -1.098 135.374  0.00  0.00    +0.048 C 
ATOM     30  C   LIG A   1      -3.777  -3.450 134.558  0.00  0.00    +0.165 A 
ENDROOT
BRANCH   1  31
ATOM     31  O   LIG A   1      -3.384  -5.694 133.756  0.00  0.00    -0.503 OA
ATOM     32  H   LIG A   1      -2.549  -5.750 134.248  0.00  0.00    +0.292 HD
ENDBRANCH   1  31
BRANCH  22  33
ATOM     33  C   LIG A   1      -6.374  -2.682 123.652  0.00  0.00    +0.316 C 
ATOM     34  O   LIG A   1      -5.905  -2.168 122.650  0.00  0.00    -0.250 OA
BRANCH  33  35
ATOM     35  O   LIG A   1      -5.842  -3.764 124.281  0.00  0.00    -0.468 OA
ATOM     36  C   LIG A   1      -4.646  -4.298 123.707  0.00  0.00    +0.280 C 
ENDBRANCH  33  35
ENDBRANCH  22  33
BRANCH  24  37
ATOM     37  O   LIG A   1      -9.372  -0.456 124.045  0.00  0.00    -0.383 OA
ATOM     38  H   LIG A   1      -9.545   0.400 123.623  0.00  0.00    +0.210 HD
ENDBRANCH  24  37
BRANCH  30  39
ATOM     39  O   LIG A   1      -3.576  -3.730 135.886  0.00  0.00    -0.491 OA
ATOM     40  C   LIG A   1      -2.229  -3.880 136.321  0.00  0.00    +0.277 C 
ENDBRANCH  30  39
TORSDOF 5
ENDMDL
MODEL 8
REMARK VINA RESULT:      -8.0      4.170      6.276
REMARK  Name = NuBBE_380
REMARK  13 active torsions:
REMARK  status: ('A' for Active; 'I' for Inactive)
REMARK    1  A    between atoms: O_1  and  C_2
REMARK    2  A    between atoms: C_9  and  C_10
REMARK    3  A    between atoms: C_13  and  C_14
REMARK    4  A    between atoms: C_16  and  C_17
REMARK    5  A    between atoms: C_19  and  C_20
REMARK    6  A    between atoms: C_24  and  C_25
REMARK    7  A    between atoms: C_24  and  C_26
REMARK    8  A    between atoms: C_26  and  O_27
REMARK    9  A    between atoms: O_27  and  C_28
REMARK   10  A    between atoms: C_30  and  O_32
REMARK   11  A    between atoms: C_36  and  C_37
REMARK   12  A    between atoms: C_38  and  O_39
REMARK   13  A    between atoms: O_39  and  C_40
REMARK                            x       y       z     vdW  Elec       q    Type
REMARK                         _______ _______ _______ _____ _____    ______ ____
ROOT
ATOM      1  C   LIG A   1      -7.132  -4.401 134.229  0.00  0.00    +0.159 A 
ATOM      2  C   LIG A   1      -7.562  -3.298 133.498  0.00  0.00    +0.054 A 
ATOM      3  C   LIG A   1      -6.681  -2.576 132.671  0.00  0.00    -0.022 A 
ATOM      4  C   LIG A   1      -5.334  -2.992 132.610  0.00  0.00    +0.032 A 
ATOM      5  C   LIG A   1      -4.339  -2.086 131.956  0.00  0.00    +0.187 C 
ATOM      6  C   LIG A   1      -4.812  -0.801 131.413  0.00  0.00    +0.056 C 
ATOM      7  C   LIG A   1      -6.115  -0.500 131.297  0.00  0.00    -0.030 C 
ATOM      8  C   LIG A   1      -7.217  -1.437 131.780  0.00  0.00    +0.019 C 
ATOM      9  C   LIG A   1      -7.839  -2.121 130.536  0.00  0.00    +0.021 C 
ATOM     10  C   LIG A   1      -8.310  -0.633 132.541  0.00  0.00    +0.017 C 
ATOM     11  C   LIG A   1      -8.694   0.691 131.884  0.00  0.00    +0.013 C 
ATOM     12  C   LIG A   1      -7.476   1.613 131.592  0.00  0.00    -0.003 C 
ATOM     13  C   LIG A   1      -6.794   1.982 132.936  0.00  0.00    +0.016 C 
ATOM     14  C   LIG A   1      -6.523   0.789 130.708  0.00  0.00    -0.038 C 
ATOM     15  C   LIG A   1      -6.148   1.180 129.466  0.00  0.00    -0.068 C 
ATOM     16  C   LIG A   1      -5.339   0.348 128.496  0.00  0.00    +0.039 C 
ATOM     17  C   LIG A   1      -6.542   2.522 128.882  0.00  0.00    +0.045 C 
ATOM     18  C   LIG A   1      -6.991   3.574 129.921  0.00  0.00    +0.036 C 
ATOM     19  C   LIG A   1      -5.747   4.144 130.624  0.00  0.00    +0.019 C 
ATOM     20  C   LIG A   1      -8.028   2.892 130.847  0.00  0.00    +0.014 C 
ATOM     21  C   LIG A   1      -8.731   3.909 131.773  0.00  0.00    +0.026 C 
ATOM     22  C   LIG A   1      -9.441   5.050 131.011  0.00  0.00    +0.098 C 
ATOM     23  C   LIG A   1      -9.931   6.082 132.056  0.00  0.00    +0.026 C 
ATOM     24  C   LIG A   1      -8.515   5.736 129.983  0.00  0.00    +0.197 C 
ATOM     25  C   LIG A   1      -7.664   4.738 129.172  0.00  0.00    +0.169 C 
ATOM     26  O   LIG A   1      -7.458   4.933 127.971  0.00  0.00    -0.294 OA
ATOM     27  O   LIG A   1      -3.137  -2.317 131.906  0.00  0.00    -0.287 OA
ATOM     28  C   LIG A   1      -4.933  -4.208 133.225  0.00  0.00    +0.006 A 
ATOM     29  C   LIG A   1      -3.563  -4.800 132.983  0.00  0.00    +0.048 C 
ATOM     30  C   LIG A   1      -5.837  -4.896 134.070  0.00  0.00    +0.165 A 
ENDROOT
BRANCH   1  31
ATOM     31  O   LIG A   1      -8.023  -4.977 135.093  0.00  0.00    -0.503 OA
ATOM     32  H   LIG A   1      -8.142  -5.911 134.855  0.00  0.00    +0.292 HD
ENDBRANCH   1  31
BRANCH  22  33
ATOM     33  C   LIG A   1     -10.696   4.509 130.300  0.00  0.00    +0.316 C 
ATOM     34  O   LIG A   1     -11.234   3.445 130.559  0.00  0.00    -0.250 OA
BRANCH  33  35
ATOM     35  O   LIG A   1     -11.091   5.347 129.305  0.00  0.00    -0.468 OA
ATOM     36  C   LIG A   1     -12.313   6.055 129.529  0.00  0.00    +0.280 C 
ENDBRANCH  33  35
ENDBRANCH  22  33
BRANCH  24  37
ATOM     37  O   LIG A   1      -7.682   6.731 130.576  0.00  0.00    -0.383 OA
ATOM     38  H   LIG A   1      -6.793   6.693 130.191  0.00  0.00    +0.210 HD
ENDBRANCH  24  37
BRANCH  30  39
ATOM     39  O   LIG A   1      -5.326  -5.988 134.726  0.00  0.00    -0.491 OA
ATOM     40  C   LIG A   1      -4.925  -5.804 136.079  0.00  0.00    +0.277 C 
ENDBRANCH  30  39
TORSDOF 5
ENDMDL
MODEL 9
REMARK VINA RESULT:      -8.0      2.542      3.648
REMARK  Name = NuBBE_380
REMARK  13 active torsions:
REMARK  status: ('A' for Active; 'I' for Inactive)
REMARK    1  A    between atoms: O_1  and  C_2
REMARK    2  A    between atoms: C_9  and  C_10
REMARK    3  A    between atoms: C_13  and  C_14
REMARK    4  A    between atoms: C_16  and  C_17
REMARK    5  A    between atoms: C_19  and  C_20
REMARK    6  A    between atoms: C_24  and  C_25
REMARK    7  A    between atoms: C_24  and  C_26
REMARK    8  A    between atoms: C_26  and  O_27
REMARK    9  A    between atoms: O_27  and  C_28
REMARK   10  A    between atoms: C_30  and  O_32
REMARK   11  A    between atoms: C_36  and  C_37
REMARK   12  A    between atoms: C_38  and  O_39
REMARK   13  A    between atoms: O_39  and  C_40
REMARK                            x       y       z     vdW  Elec       q    Type
REMARK                         _______ _______ _______ _____ _____    ______ ____
ROOT
ATOM      1  C   LIG A   1      -6.932   4.101 133.603  0.00  0.00    +0.159 A 
ATOM      2  C   LIG A   1      -7.357   3.386 132.488  0.00  0.00    +0.054 A 
ATOM      3  C   LIG A   1      -7.019   2.031 132.311  0.00  0.00    -0.022 A 
ATOM      4  C   LIG A   1      -6.219   1.410 133.293  0.00  0.00    +0.032 A 
ATOM      5  C   LIG A   1      -5.635   0.066 132.990  0.00  0.00    +0.187 C 
ATOM      6  C   LIG A   1      -5.918  -0.541 131.677  0.00  0.00    +0.056 C 
ATOM      7  C   LIG A   1      -6.832  -0.041 130.831  0.00  0.00    -0.030 C 
ATOM      8  C   LIG A   1      -7.609   1.237 131.126  0.00  0.00    +0.019 C 
ATOM      9  C   LIG A   1      -9.044   0.833 131.553  0.00  0.00    +0.021 C 
ATOM     10  C   LIG A   1      -7.669   2.135 129.858  0.00  0.00    +0.017 C 
ATOM     11  C   LIG A   1      -7.947   1.379 128.560  0.00  0.00    +0.013 C 
ATOM     12  C   LIG A   1      -6.971   0.193 128.315  0.00  0.00    -0.003 C 
ATOM     13  C   LIG A   1      -5.528   0.749 128.188  0.00  0.00    +0.016 C 
ATOM     14  C   LIG A   1      -7.094  -0.720 129.548  0.00  0.00    -0.038 C 
ATOM     15  C   LIG A   1      -7.481  -2.016 129.469  0.00  0.00    -0.068 C 
ATOM     16  C   LIG A   1      -7.765  -2.916 130.652  0.00  0.00    +0.039 C 
ATOM     17  C   LIG A   1      -7.715  -2.716 128.146  0.00  0.00    +0.045 C 
ATOM     18  C   LIG A   1      -7.062  -2.028 126.925  0.00  0.00    +0.036 C 
ATOM     19  C   LIG A   1      -5.556  -2.336 126.924  0.00  0.00    +0.019 C 
ATOM     20  C   LIG A   1      -7.438  -0.527 126.989  0.00  0.00    +0.014 C 
ATOM     21  C   LIG A   1      -7.049   0.219 125.693  0.00  0.00    +0.026 C 
ATOM     22  C   LIG A   1      -7.683  -0.383 124.420  0.00  0.00    +0.098 C 
ATOM     23  C   LIG A   1      -7.063   0.338 123.198  0.00  0.00    +0.026 C 
ATOM     24  C   LIG A   1      -7.450  -1.906 124.311  0.00  0.00    +0.197 C 
ATOM     25  C   LIG A   1      -7.655  -2.648 125.646  0.00  0.00    +0.169 C 
ATOM     26  O   LIG A   1      -8.198  -3.756 125.662  0.00  0.00    -0.294 OA
ATOM     27  O   LIG A   1      -4.876  -0.532 133.742  0.00  0.00    -0.287 OA
ATOM     28  C   LIG A   1      -5.923   2.087 134.506  0.00  0.00    +0.006 A 
ATOM     29  C   LIG A   1      -5.274   1.374 135.670  0.00  0.00    +0.048 C 
ATOM     30  C   LIG A   1      -6.255   3.457 134.641  0.00  0.00    +0.165 A 
ENDROOT
BRANCH   1  31
ATOM     31  O   LIG A   1      -7.208   5.439 133.644  0.00  0.00    -0.503 OA
ATOM     32  H   LIG A   1      -7.396   5.757 132.746  0.00  0.00    +0.292 HD
ENDBRANCH   1  31
BRANCH  22  33
ATOM     33  C   LIG A   1      -9.194  -0.085 124.390  0.00  0.00    +0.316 C 
ATOM     34  O   LIG A   1      -9.818   0.422 125.307  0.00  0.00    -0.250 OA
BRANCH  33  35
ATOM     35  O   LIG A   1      -9.753  -0.518 123.228  0.00  0.00    -0.468 OA
ATOM     36  C   LIG A   1     -10.432   0.473 122.452  0.00  0.00    +0.280 C 
ENDBRANCH  33  35
ENDBRANCH  22  33
BRANCH  24  37
ATOM     37  O   LIG A   1      -6.176  -2.225 123.756  0.00  0.00    -0.383 OA
ATOM     38  H   LIG A   1      -6.287  -2.674 122.903  0.00  0.00    +0.210 HD
ENDBRANCH  24  37
BRANCH  30  39
ATOM     39  O   LIG A   1      -5.815   4.066 135.790  0.00  0.00    -0.491 OA
ATOM     40  C   LIG A   1      -4.634   4.854 135.696  0.00  0.00    +0.277 C 
ENDBRANCH  30  39
TORSDOF 5
ENDMDL
