MODEL 1
REMARK VINA RESULT:      -7.4      0.000      0.000
REMARK  Name = NuBBE_53
REMARK  14 active torsions:
REMARK  status: ('A' for Active; 'I' for Inactive)
REMARK    1  A    between atoms: C_1  and  C_2
REMARK    2  A    between atoms: C_5  and  O_7
REMARK    3  A    between atoms: C_8  and  C_9
REMARK    4  A    between atoms: C_11  and  C_12
REMARK    5  A    between atoms: C_15  and  O_17
REMARK    6  A    between atoms: O_17  and  C_18
REMARK    7  A    between atoms: C_18  and  C_19
REMARK    8  A    between atoms: C_19  and  C_20
REMARK    9  A    between atoms: C_20  and  C_21
REMARK   10  A    between atoms: C_26  and  C_27
REMARK   11  A    between atoms: C_26  and  C_28
REMARK   12  A    between atoms: C_28  and  C_29
REMARK   13  A    between atoms: C_30  and  C_31
REMARK   14  A    between atoms: C_30  and  C_33
REMARK                            x       y       z     vdW  Elec       q    Type
REMARK                         _______ _______ _______ _____ _____    ______ ____
ROOT
ATOM      1  C   LIG A   1      -5.345  -2.033 125.448  0.00  0.00    +0.008 C 
ATOM      2  C   LIG A   1      -6.421  -1.430 126.366  0.00  0.00    -0.005 C 
ATOM      3  C   LIG A   1      -7.793  -2.028 125.989  0.00  0.00    +0.036 C 
ATOM      4  C   LIG A   1      -8.398  -1.489 124.684  0.00  0.00    +0.133 C 
ATOM      5  C   LIG A   1      -8.521   0.055 124.686  0.00  0.00    +0.083 C 
ATOM      6  C   LIG A   1      -9.019   0.625 123.347  0.00  0.00    +0.007 C 
ATOM      7  C   LIG A   1      -8.564   1.769 122.817  0.00  0.00    +0.024 C 
ATOM      8  C   LIG A   1      -7.527   2.646 123.454  0.00  0.00    +0.200 C 
ATOM      9  C   LIG A   1      -7.150   2.225 124.892  0.00  0.00    +0.054 C 
ATOM     10  C   LIG A   1      -7.111   0.686 125.061  0.00  0.00    +0.019 C 
ATOM     11  C   LIG A   1      -6.427   0.146 126.408  0.00  0.00    -0.022 C 
ATOM     12  C   LIG A   1      -7.211   0.613 127.665  0.00  0.00    +0.012 C 
ENDROOT
BRANCH   4  13
ATOM     13  O   LIG A   1      -7.613  -1.914 123.568  0.00  0.00    -0.391 OA
ATOM     14  H   LIG A   1      -7.400  -2.856 123.700  0.00  0.00    +0.210 HD
ENDBRANCH   4  13
BRANCH   5  15
ATOM     15  C   LIG A   1      -9.660   0.429 125.646  0.00  0.00    +0.237 C 
ATOM     16  O   LIG A   1     -10.575   1.208 125.384  0.00  0.00    -0.300 OA
ENDBRANCH   5  15
BRANCH   6  17
ATOM     17  C   LIG A   1     -10.096  -0.043 122.569  0.00  0.00    +0.255 C 
ATOM     18  O   LIG A   1     -11.249   0.369 122.519  0.00  0.00    -0.296 OA
ENDBRANCH   6  17
BRANCH   8  19
ATOM     19  O   LIG A   1      -6.341   2.583 122.633  0.00  0.00    -0.457 OA
BRANCH  19  20
ATOM     20  C   LIG A   1      -5.891   3.774 122.158  0.00  0.00    +0.308 C 
ATOM     21  O   LIG A   1      -5.537   4.725 122.843  0.00  0.00    -0.251 OA
BRANCH  20  22
ATOM     22  C   LIG A   1      -5.797   3.754 120.650  0.00  0.00    +0.120 C 
BRANCH  22  23
ATOM     23  C   LIG A   1      -5.180   5.060 120.157  0.00  0.00    +0.008 C 
ATOM     24  C   LIG A   1      -5.849   5.564 118.881  0.00  0.00    +0.004 C 
ENDBRANCH  22  23
ENDBRANCH  20  22
ENDBRANCH  19  20
ENDBRANCH   8  19
BRANCH  11  25
ATOM     25  C   LIG A   1      -4.938   0.705 126.550  0.00  0.00    +0.034 C 
BRANCH  25  26
ATOM     26  C   LIG A   1      -4.643   1.684 127.685  0.00  0.00    -0.023 C 
ATOM     27  C   LIG A   1      -3.836   2.757 127.754  0.00  0.00    -0.055 C 
ATOM     28  C   LIG A   1      -3.723   3.565 129.030  0.00  0.00    +0.043 C 
BRANCH  27  29
ATOM     29  C   LIG A   1      -2.980   3.264 126.691  0.00  0.00    -0.005 C 
ATOM     30  C   LIG A   1      -1.679   2.987 126.561  0.00  0.00    +0.008 C 
ENDBRANCH  27  29
ENDBRANCH  25  26
ENDBRANCH  11  25
TORSDOF 10
ENDMDL
MODEL 2
REMARK VINA RESULT:      -7.4      2.278      6.047
REMARK  Name = NuBBE_53
REMARK  14 active torsions:
REMARK  status: ('A' for Active; 'I' for Inactive)
REMARK    1  A    between atoms: C_1  and  C_2
REMARK    2  A    between atoms: C_5  and  O_7
REMARK    3  A    between atoms: C_8  and  C_9
REMARK    4  A    between atoms: C_11  and  C_12
REMARK    5  A    between atoms: C_15  and  O_17
REMARK    6  A    between atoms: O_17  and  C_18
REMARK    7  A    between atoms: C_18  and  C_19
REMARK    8  A    between atoms: C_19  and  C_20
REMARK    9  A    between atoms: C_20  and  C_21
REMARK   10  A    between atoms: C_26  and  C_27
REMARK   11  A    between atoms: C_26  and  C_28
REMARK   12  A    between atoms: C_28  and  C_29
REMARK   13  A    between atoms: C_30  and  C_31
REMARK   14  A    between atoms: C_30  and  C_33
REMARK                            x       y       z     vdW  Elec       q    Type
REMARK                         _______ _______ _______ _____ _____    ______ ____
ROOT
ATOM      1  C   LIG A   1      -8.770   2.674 129.103  0.00  0.00    +0.008 C 
ATOM      2  C   LIG A   1      -7.274   2.338 129.001  0.00  0.00    -0.005 C 
ATOM      3  C   LIG A   1      -6.535   3.536 128.367  0.00  0.00    +0.036 C 
ATOM      4  C   LIG A   1      -6.749   3.704 126.856  0.00  0.00    +0.133 C 
ATOM      5  C   LIG A   1      -6.378   2.426 126.063  0.00  0.00    +0.083 C 
ATOM      6  C   LIG A   1      -6.691   2.531 124.561  0.00  0.00    +0.007 C 
ATOM      7  C   LIG A   1      -7.161   1.510 123.831  0.00  0.00    +0.024 C 
ATOM      8  C   LIG A   1      -7.433   0.137 124.369  0.00  0.00    +0.200 C 
ATOM      9  C   LIG A   1      -6.940  -0.075 125.818  0.00  0.00    +0.054 C 
ATOM     10  C   LIG A   1      -7.142   1.184 126.697  0.00  0.00    +0.019 C 
ATOM     11  C   LIG A   1      -6.964   0.972 128.278  0.00  0.00    -0.022 C 
ATOM     12  C   LIG A   1      -5.516   0.533 128.627  0.00  0.00    +0.012 C 
ENDROOT
BRANCH   4  13
ATOM     13  O   LIG A   1      -8.106   4.064 126.591  0.00  0.00    -0.391 OA
ATOM     14  H   LIG A   1      -8.269   4.927 127.014  0.00  0.00    +0.210 HD
ENDBRANCH   4  13
BRANCH   5  15
ATOM     15  C   LIG A   1      -4.847   2.301 126.072  0.00  0.00    +0.237 C 
ATOM     16  O   LIG A   1      -4.064   3.248 126.112  0.00  0.00    -0.300 OA
ENDBRANCH   5  15
BRANCH   6  17
ATOM     17  C   LIG A   1      -6.435   3.782 123.798  0.00  0.00    +0.255 C 
ATOM     18  O   LIG A   1      -5.650   3.854 122.861  0.00  0.00    -0.296 OA
ENDBRANCH   6  17
BRANCH   8  19
ATOM     19  O   LIG A   1      -8.862  -0.067 124.339  0.00  0.00    -0.457 OA
BRANCH  19  20
ATOM     20  C   LIG A   1      -9.356  -0.600 123.189  0.00  0.00    +0.308 C 
ATOM     21  O   LIG A   1     -10.263  -0.125 122.517  0.00  0.00    -0.251 OA
BRANCH  20  22
ATOM     22  C   LIG A   1      -8.577  -1.830 122.786  0.00  0.00    +0.120 C 
BRANCH  22  23
ATOM     23  C   LIG A   1      -9.180  -3.061 123.456  0.00  0.00    +0.008 C 
ATOM     24  C   LIG A   1      -8.198  -3.736 124.409  0.00  0.00    +0.004 C 
ENDBRANCH  22  23
ENDBRANCH  20  22
ENDBRANCH  19  20
ENDBRANCH   8  19
BRANCH  11  25
ATOM     25  C   LIG A   1      -7.942  -0.173 128.808  0.00  0.00    +0.034 C 
BRANCH  25  26
ATOM     26  C   LIG A   1      -7.318  -1.419 129.434  0.00  0.00    -0.023 C 
ATOM     27  C   LIG A   1      -7.389  -2.720 129.100  0.00  0.00    -0.055 C 
ATOM     28  C   LIG A   1      -6.663  -3.772 129.912  0.00  0.00    +0.043 C 
BRANCH  27  29
ATOM     29  C   LIG A   1      -8.147  -3.287 127.995  0.00  0.00    -0.005 C 
ATOM     30  C   LIG A   1      -9.206  -4.093 128.129  0.00  0.00    +0.008 C 
ENDBRANCH  27  29
ENDBRANCH  25  26
ENDBRANCH  11  25
TORSDOF 10
ENDMDL
MODEL 3
REMARK VINA RESULT:      -7.3      2.594      5.382
REMARK  Name = NuBBE_53
REMARK  14 active torsions:
REMARK  status: ('A' for Active; 'I' for Inactive)
REMARK    1  A    between atoms: C_1  and  C_2
REMARK    2  A    between atoms: C_5  and  O_7
REMARK    3  A    between atoms: C_8  and  C_9
REMARK    4  A    between atoms: C_11  and  C_12
REMARK    5  A    between atoms: C_15  and  O_17
REMARK    6  A    between atoms: O_17  and  C_18
REMARK    7  A    between atoms: C_18  and  C_19
REMARK    8  A    between atoms: C_19  and  C_20
REMARK    9  A    between atoms: C_20  and  C_21
REMARK   10  A    between atoms: C_26  and  C_27
REMARK   11  A    between atoms: C_26  and  C_28
REMARK   12  A    between atoms: C_28  and  C_29
REMARK   13  A    between atoms: C_30  and  C_31
REMARK   14  A    between atoms: C_30  and  C_33
REMARK                            x       y       z     vdW  Elec       q    Type
REMARK                         _______ _______ _______ _____ _____    ______ ____
ROOT
ATOM      1  C   LIG A   1      -9.188  -0.142 126.178  0.00  0.00    +0.008 C 
ATOM      2  C   LIG A   1      -7.849  -0.430 126.876  0.00  0.00    -0.005 C 
ATOM      3  C   LIG A   1      -7.918   0.091 128.327  0.00  0.00    +0.036 C 
ATOM      4  C   LIG A   1      -7.831   1.618 128.472  0.00  0.00    +0.133 C 
ATOM      5  C   LIG A   1      -6.561   2.200 127.803  0.00  0.00    +0.083 C 
ATOM      6  C   LIG A   1      -6.508   3.737 127.836  0.00  0.00    +0.007 C 
ATOM      7  C   LIG A   1      -6.035   4.482 126.828  0.00  0.00    +0.024 C 
ATOM      8  C   LIG A   1      -5.487   3.926 125.547  0.00  0.00    +0.200 C 
ATOM      9  C   LIG A   1      -5.327   2.389 125.551  0.00  0.00    +0.054 C 
ATOM     10  C   LIG A   1      -6.481   1.680 126.302  0.00  0.00    +0.019 C 
ATOM     11  C   LIG A   1      -6.584   0.093 126.094  0.00  0.00    -0.022 C 
ATOM     12  C   LIG A   1      -5.321  -0.629 126.637  0.00  0.00    +0.012 C 
ENDROOT
BRANCH   4  13
ATOM     13  O   LIG A   1      -8.997   2.230 127.917  0.00  0.00    -0.391 OA
ATOM     14  H   LIG A   1      -9.521   1.529 127.489  0.00  0.00    +0.210 HD
ENDBRANCH   4  13
BRANCH   5  15
ATOM     15  C   LIG A   1      -5.357   1.811 128.674  0.00  0.00    +0.237 C 
ATOM     16  O   LIG A   1      -4.236   2.310 128.589  0.00  0.00    -0.300 OA
ENDBRANCH   5  15
BRANCH   6  17
ATOM     17  C   LIG A   1      -6.937   4.505 129.036  0.00  0.00    +0.255 C 
ATOM     18  O   LIG A   1      -8.039   5.029 129.144  0.00  0.00    -0.296 OA
ENDBRANCH   6  17
BRANCH   8  19
ATOM     19  O   LIG A   1      -6.403   4.287 124.490  0.00  0.00    -0.457 OA
BRANCH  19  20
ATOM     20  C   LIG A   1      -5.993   3.986 123.229  0.00  0.00    +0.308 C 
ATOM     21  O   LIG A   1      -4.968   4.395 122.698  0.00  0.00    -0.251 OA
BRANCH  20  22
ATOM     22  C   LIG A   1      -6.930   2.996 122.578  0.00  0.00    +0.120 C 
BRANCH  22  23
ATOM     23  C   LIG A   1      -8.271   3.004 123.307  0.00  0.00    +0.008 C 
ATOM     24  C   LIG A   1      -9.193   1.888 122.824  0.00  0.00    +0.004 C 
ENDBRANCH  22  23
ENDBRANCH  20  22
ENDBRANCH  19  20
ENDBRANCH   8  19
BRANCH  11  25
ATOM     25  C   LIG A   1      -6.700  -0.267 124.543  0.00  0.00    +0.034 C 
BRANCH  25  26
ATOM     26  C   LIG A   1      -5.885  -1.448 124.016  0.00  0.00    -0.023 C 
ATOM     27  C   LIG A   1      -6.116  -2.772 124.031  0.00  0.00    -0.055 C 
ATOM     28  C   LIG A   1      -5.119  -3.742 123.433  0.00  0.00    +0.043 C 
BRANCH  27  29
ATOM     29  C   LIG A   1      -7.272  -3.441 124.609  0.00  0.00    -0.005 C 
ATOM     30  C   LIG A   1      -8.497  -3.448 124.075  0.00  0.00    +0.008 C 
ENDBRANCH  27  29
ENDBRANCH  25  26
ENDBRANCH  11  25
TORSDOF 10
ENDMDL
MODEL 4
REMARK VINA RESULT:      -7.2      2.525      5.712
REMARK  Name = NuBBE_53
REMARK  14 active torsions:
REMARK  status: ('A' for Active; 'I' for Inactive)
REMARK    1  A    between atoms: C_1  and  C_2
REMARK    2  A    between atoms: C_5  and  O_7
REMARK    3  A    between atoms: C_8  and  C_9
REMARK    4  A    between atoms: C_11  and  C_12
REMARK    5  A    between atoms: C_15  and  O_17
REMARK    6  A    between atoms: O_17  and  C_18
REMARK    7  A    between atoms: C_18  and  C_19
REMARK    8  A    between atoms: C_19  and  C_20
REMARK    9  A    between atoms: C_20  and  C_21
REMARK   10  A    between atoms: C_26  and  C_27
REMARK   11  A    between atoms: C_26  and  C_28
REMARK   12  A    between atoms: C_28  and  C_29
REMARK   13  A    between atoms: C_30  and  C_31
REMARK   14  A    between atoms: C_30  and  C_33
REMARK                            x       y       z     vdW  Elec       q    Type
REMARK                         _______ _______ _______ _____ _____    ______ ____
ROOT
ATOM      1  C   LIG A   1      -8.006  -0.130 128.399  0.00  0.00    +0.008 C 
ATOM      2  C   LIG A   1      -7.040   0.721 127.559  0.00  0.00    -0.005 C 
ATOM      3  C   LIG A   1      -7.841   1.831 126.846  0.00  0.00    +0.036 C 
ATOM      4  C   LIG A   1      -8.687   1.357 125.656  0.00  0.00    +0.133 C 
ATOM      5  C   LIG A   1      -7.844   0.605 124.596  0.00  0.00    +0.083 C 
ATOM      6  C   LIG A   1      -8.688   0.022 123.451  0.00  0.00    +0.007 C 
ATOM      7  C   LIG A   1      -8.438  -1.163 122.877  0.00  0.00    +0.024 C 
ATOM      8  C   LIG A   1      -7.306  -2.069 123.263  0.00  0.00    +0.200 C 
ATOM      9  C   LIG A   1      -6.311  -1.437 124.261  0.00  0.00    +0.054 C 
ATOM     10  C   LIG A   1      -7.020  -0.550 125.314  0.00  0.00    +0.019 C 
ATOM     11  C   LIG A   1      -6.131  -0.110 126.575  0.00  0.00    -0.022 C 
ATOM     12  C   LIG A   1      -4.927   0.768 126.136  0.00  0.00    +0.012 C 
ENDROOT
BRANCH   4  13
ATOM     13  O   LIG A   1      -9.751   0.520 126.114  0.00  0.00    -0.391 OA
ATOM     14  H   LIG A   1      -9.388  -0.376 126.235  0.00  0.00    +0.210 HD
ENDBRANCH   4  13
BRANCH   5  15
ATOM     15  C   LIG A   1      -6.977   1.644 123.870  0.00  0.00    +0.237 C 
ATOM     16  O   LIG A   1      -7.280   2.825 123.707  0.00  0.00    -0.300 OA
ENDBRANCH   5  15
BRANCH   6  17
ATOM     17  C   LIG A   1      -9.825   0.778 122.859  0.00  0.00    +0.255 C 
ATOM     18  O   LIG A   1     -10.987   0.641 123.220  0.00  0.00    -0.296 OA
ENDBRANCH   6  17
BRANCH   8  19
ATOM     19  O   LIG A   1      -7.880  -3.246 123.872  0.00  0.00    -0.457 OA
BRANCH  19  20
ATOM     20  C   LIG A   1      -9.219  -3.194 124.104  0.00  0.00    +0.308 C 
ATOM     21  O   LIG A   1     -10.093  -3.370 123.265  0.00  0.00    -0.251 OA
BRANCH  20  22
ATOM     22  C   LIG A   1      -9.506  -2.974 125.570  0.00  0.00    +0.120 C 
BRANCH  22  23
ATOM     23  C   LIG A   1      -8.444  -3.676 126.412  0.00  0.00    +0.008 C 
ATOM     24  C   LIG A   1      -8.816  -3.714 127.891  0.00  0.00    +0.004 C 
ENDBRANCH  22  23
ENDBRANCH  20  22
ENDBRANCH  19  20
ENDBRANCH   8  19
BRANCH  11  25
ATOM     25  C   LIG A   1      -5.532  -1.390 127.318  0.00  0.00    +0.034 C 
BRANCH  25  26
ATOM     26  C   LIG A   1      -4.986  -1.209 128.735  0.00  0.00    -0.023 C 
ATOM     27  C   LIG A   1      -4.855  -2.069 129.759  0.00  0.00    -0.055 C 
ATOM     28  C   LIG A   1      -4.277  -1.617 131.084  0.00  0.00    +0.043 C 
BRANCH  27  29
ATOM     29  C   LIG A   1      -5.244  -3.471 129.766  0.00  0.00    -0.005 C 
ATOM     30  C   LIG A   1      -6.169  -4.004 130.570  0.00  0.00    +0.008 C 
ENDBRANCH  27  29
ENDBRANCH  25  26
ENDBRANCH  11  25
TORSDOF 10
ENDMDL
MODEL 5
REMARK VINA RESULT:      -7.2      2.262      4.422
REMARK  Name = NuBBE_53
REMARK  14 active torsions:
REMARK  status: ('A' for Active; 'I' for Inactive)
REMARK    1  A    between atoms: C_1  and  C_2
REMARK    2  A    between atoms: C_5  and  O_7
REMARK    3  A    between atoms: C_8  and  C_9
REMARK    4  A    between atoms: C_11  and  C_12
REMARK    5  A    between atoms: C_15  and  O_17
REMARK    6  A    between atoms: O_17  and  C_18
REMARK    7  A    between atoms: C_18  and  C_19
REMARK    8  A    between atoms: C_19  and  C_20
REMARK    9  A    between atoms: C_20  and  C_21
REMARK   10  A    between atoms: C_26  and  C_27
REMARK   11  A    between atoms: C_26  and  C_28
REMARK   12  A    between atoms: C_28  and  C_29
REMARK   13  A    between atoms: C_30  and  C_31
REMARK   14  A    between atoms: C_30  and  C_33
REMARK                            x       y       z     vdW  Elec       q    Type
REMARK                         _______ _______ _______ _____ _____    ______ ____
ROOT
ATOM      1  C   LIG A   1      -5.445  -2.892 124.267  0.00  0.00    +0.008 C 
ATOM      2  C   LIG A   1      -6.839  -2.751 124.899  0.00  0.00    -0.005 C 
ATOM      3  C   LIG A   1      -7.847  -2.348 123.802  0.00  0.00    +0.036 C 
ATOM      4  C   LIG A   1      -7.751  -0.887 123.338  0.00  0.00    +0.133 C 
ATOM      5  C   LIG A   1      -7.881   0.114 124.512  0.00  0.00    +0.083 C 
ATOM      6  C   LIG A   1      -7.674   1.577 124.088  0.00  0.00    +0.007 C 
ATOM      7  C   LIG A   1      -7.035   2.482 124.843  0.00  0.00    +0.024 C 
ATOM      8  C   LIG A   1      -6.450   2.198 126.194  0.00  0.00    +0.200 C 
ATOM      9  C   LIG A   1      -6.813   0.803 126.752  0.00  0.00    +0.054 C 
ATOM     10  C   LIG A   1      -6.839  -0.282 125.647  0.00  0.00    +0.019 C 
ATOM     11  C   LIG A   1      -6.888  -1.802 126.157  0.00  0.00    -0.022 C 
ATOM     12  C   LIG A   1      -8.190  -2.087 126.954  0.00  0.00    +0.012 C 
ENDROOT
BRANCH   4  13
ATOM     13  O   LIG A   1      -6.517  -0.673 122.650  0.00  0.00    -0.391 OA
ATOM     14  H   LIG A   1      -5.832  -1.196 123.105  0.00  0.00    +0.210 HD
ENDBRANCH   4  13
BRANCH   5  15
ATOM     15  C   LIG A   1      -9.347   0.108 124.968  0.00  0.00    +0.237 C 
ATOM     16  O   LIG A   1     -10.309   0.375 124.250  0.00  0.00    -0.300 OA
ENDBRANCH   5  15
BRANCH   6  17
ATOM     17  C   LIG A   1      -8.229   2.104 122.812  0.00  0.00    +0.255 C 
ATOM     18  O   LIG A   1      -8.905   3.122 122.738  0.00  0.00    -0.296 OA
ENDBRANCH   6  17
BRANCH   8  19
ATOM     19  O   LIG A   1      -5.014   2.282 126.073  0.00  0.00    -0.457 OA
BRANCH  19  20
ATOM     20  C   LIG A   1      -4.450   3.426 126.544  0.00  0.00    +0.308 C 
ATOM     21  O   LIG A   1      -4.649   4.551 126.102  0.00  0.00    -0.251 OA
BRANCH  20  22
ATOM     22  C   LIG A   1      -3.596   3.148 127.758  0.00  0.00    +0.120 C 
BRANCH  22  23
ATOM     23  C   LIG A   1      -2.193   3.707 127.538  0.00  0.00    +0.008 C 
ATOM     24  C   LIG A   1      -1.443   2.961 126.439  0.00  0.00    +0.004 C 
ENDBRANCH  22  23
ENDBRANCH  20  22
ENDBRANCH  19  20
ENDBRANCH   8  19
BRANCH  11  25
ATOM     25  C   LIG A   1      -5.663  -2.110 127.134  0.00  0.00    +0.034 C 
BRANCH  25  26
ATOM     26  C   LIG A   1      -5.963  -2.778 128.475  0.00  0.00    -0.023 C 
ATOM     27  C   LIG A   1      -5.159  -3.171 129.478  0.00  0.00    -0.055 C 
ATOM     28  C   LIG A   1      -5.729  -3.827 130.719  0.00  0.00    +0.043 C 
BRANCH  27  29
ATOM     29  C   LIG A   1      -3.709  -3.059 129.518  0.00  0.00    -0.005 C 
ATOM     30  C   LIG A   1      -2.860  -3.920 128.949  0.00  0.00    +0.008 C 
ENDBRANCH  27  29
ENDBRANCH  25  26
ENDBRANCH  11  25
TORSDOF 10
ENDMDL
MODEL 6
REMARK VINA RESULT:      -7.2      3.641      6.840
REMARK  Name = NuBBE_53
REMARK  14 active torsions:
REMARK  status: ('A' for Active; 'I' for Inactive)
REMARK    1  A    between atoms: C_1  and  C_2
REMARK    2  A    between atoms: C_5  and  O_7
REMARK    3  A    between atoms: C_8  and  C_9
REMARK    4  A    between atoms: C_11  and  C_12
REMARK    5  A    between atoms: C_15  and  O_17
REMARK    6  A    between atoms: O_17  and  C_18
REMARK    7  A    between atoms: C_18  and  C_19
REMARK    8  A    between atoms: C_19  and  C_20
REMARK    9  A    between atoms: C_20  and  C_21
REMARK   10  A    between atoms: C_26  and  C_27
REMARK   11  A    between atoms: C_26  and  C_28
REMARK   12  A    between atoms: C_28  and  C_29
REMARK   13  A    between atoms: C_30  and  C_31
REMARK   14  A    between atoms: C_30  and  C_33
REMARK                            x       y       z     vdW  Elec       q    Type
REMARK                         _______ _______ _______ _____ _____    ______ ____
ROOT
ATOM      1  C   LIG A   1      -9.889   1.375 131.687  0.00  0.00    +0.008 C 
ATOM      2  C   LIG A   1      -8.355   1.470 131.699  0.00  0.00    -0.005 C 
ATOM      3  C   LIG A   1      -7.943   2.937 131.459  0.00  0.00    +0.036 C 
ATOM      4  C   LIG A   1      -8.107   3.429 130.013  0.00  0.00    +0.133 C 
ATOM      5  C   LIG A   1      -7.350   2.537 128.998  0.00  0.00    +0.083 C 
ATOM      6  C   LIG A   1      -7.593   2.943 127.535  0.00  0.00    +0.007 C 
ATOM      7  C   LIG A   1      -7.717   2.060 126.534  0.00  0.00    +0.024 C 
ATOM      8  C   LIG A   1      -7.627   0.572 126.700  0.00  0.00    +0.200 C 
ATOM      9  C   LIG A   1      -7.179   0.126 128.110  0.00  0.00    +0.054 C 
ATOM     10  C   LIG A   1      -7.774   1.021 129.225  0.00  0.00    +0.019 C 
ATOM     11  C   LIG A   1      -7.636   0.462 130.722  0.00  0.00    -0.022 C 
ATOM     12  C   LIG A   1      -6.146   0.332 131.140  0.00  0.00    +0.012 C 
ENDROOT
BRANCH   4  13
ATOM     13  O   LIG A   1      -9.494   3.488 129.671  0.00  0.00    -0.391 OA
ATOM     14  H   LIG A   1      -9.992   3.054 130.387  0.00  0.00    +0.210 HD
ENDBRANCH   4  13
BRANCH   5  15
ATOM     15  C   LIG A   1      -5.849   2.809 129.170  0.00  0.00    +0.237 C 
ATOM     16  O   LIG A   1      -5.369   3.818 129.684  0.00  0.00    -0.300 OA
ENDBRANCH   5  15
BRANCH   6  17
ATOM     17  C   LIG A   1      -7.652   4.371 127.123  0.00  0.00    +0.255 C 
ATOM     18  O   LIG A   1      -8.683   5.031 127.116  0.00  0.00    -0.296 OA
ENDBRANCH   6  17
BRANCH   8  19
ATOM     19  O   LIG A   1      -8.939   0.026 126.444  0.00  0.00    -0.457 OA
BRANCH  19  20
ATOM     20  C   LIG A   1      -9.114  -0.529 125.215  0.00  0.00    +0.308 C 
ATOM     21  O   LIG A   1      -9.772  -0.044 124.303  0.00  0.00    -0.251 OA
BRANCH  20  22
ATOM     22  C   LIG A   1      -8.314  -1.803 125.078  0.00  0.00    +0.120 C 
BRANCH  22  23
ATOM     23  C   LIG A   1      -9.261  -2.991 124.926  0.00  0.00    +0.008 C 
ATOM     24  C   LIG A   1      -9.512  -3.342 123.463  0.00  0.00    +0.004 C 
ENDBRANCH  22  23
ENDBRANCH  20  22
ENDBRANCH  19  20
ENDBRANCH   8  19
BRANCH  11  25
ATOM     25  C   LIG A   1      -8.286  -0.991 130.845  0.00  0.00    +0.034 C 
BRANCH  25  26
ATOM     26  C   LIG A   1      -7.347  -2.194 130.927  0.00  0.00    -0.023 C 
ATOM     27  C   LIG A   1      -7.071  -3.175 130.051  0.00  0.00    -0.055 C 
ATOM     28  C   LIG A   1      -6.084  -4.271 130.396  0.00  0.00    +0.043 C 
BRANCH  27  29
ATOM     29  C   LIG A   1      -7.655  -3.342 128.729  0.00  0.00    -0.005 C 
ATOM     30  C   LIG A   1      -8.884  -3.812 128.490  0.00  0.00    +0.008 C 
ENDBRANCH  27  29
ENDBRANCH  25  26
ENDBRANCH  11  25
TORSDOF 10
ENDMDL
MODEL 7
REMARK VINA RESULT:      -7.1      2.358      5.068
REMARK  Name = NuBBE_53
REMARK  14 active torsions:
REMARK  status: ('A' for Active; 'I' for Inactive)
REMARK    1  A    between atoms: C_1  and  C_2
REMARK    2  A    between atoms: C_5  and  O_7
REMARK    3  A    between atoms: C_8  and  C_9
REMARK    4  A    between atoms: C_11  and  C_12
REMARK    5  A    between atoms: C_15  and  O_17
REMARK    6  A    between atoms: O_17  and  C_18
REMARK    7  A    between atoms: C_18  and  C_19
REMARK    8  A    between atoms: C_19  and  C_20
REMARK    9  A    between atoms: C_20  and  C_21
REMARK   10  A    between atoms: C_26  and  C_27
REMARK   11  A    between atoms: C_26  and  C_28
REMARK   12  A    between atoms: C_28  and  C_29
REMARK   13  A    between atoms: C_30  and  C_31
REMARK   14  A    between atoms: C_30  and  C_33
REMARK                            x       y       z     vdW  Elec       q    Type
REMARK                         _______ _______ _______ _____ _____    ______ ____
ROOT
ATOM      1  C   LIG A   1      -6.541  -1.728 125.119  0.00  0.00    +0.008 C 
ATOM      2  C   LIG A   1      -7.714  -0.843 125.567  0.00  0.00    -0.005 C 
ATOM      3  C   LIG A   1      -8.435  -0.296 124.317  0.00  0.00    +0.036 C 
ATOM      4  C   LIG A   1      -7.688   0.822 123.575  0.00  0.00    +0.133 C 
ATOM      5  C   LIG A   1      -7.342   2.014 124.500  0.00  0.00    +0.083 C 
ATOM      6  C   LIG A   1      -6.494   3.094 123.807  0.00  0.00    +0.007 C 
ATOM      7  C   LIG A   1      -5.510   3.767 124.419  0.00  0.00    +0.024 C 
ATOM      8  C   LIG A   1      -5.111   3.569 125.851  0.00  0.00    +0.200 C 
ATOM      9  C   LIG A   1      -6.065   2.648 126.644  0.00  0.00    +0.054 C 
ATOM     10  C   LIG A   1      -6.588   1.468 125.789  0.00  0.00    +0.019 C 
ATOM     11  C   LIG A   1      -7.319   0.288 126.593  0.00  0.00    -0.022 C 
ATOM     12  C   LIG A   1      -8.604   0.800 127.299  0.00  0.00    +0.012 C 
ENDROOT
BRANCH   4  13
ATOM     13  O   LIG A   1      -6.495   0.303 122.983  0.00  0.00    -0.391 OA
ATOM     14  H   LIG A   1      -6.621   0.307 122.016  0.00  0.00    +0.210 HD
ENDBRANCH   4  13
BRANCH   5  15
ATOM     15  C   LIG A   1      -8.648   2.764 124.800  0.00  0.00    +0.237 C 
ATOM     16  O   LIG A   1      -8.720   3.936 125.164  0.00  0.00    -0.300 OA
ENDBRANCH   5  15
BRANCH   6  17
ATOM     17  C   LIG A   1      -6.756   3.506 122.401  0.00  0.00    +0.255 C 
ATOM     18  O   LIG A   1      -6.147   3.054 121.440  0.00  0.00    -0.296 OA
ENDBRANCH   6  17
BRANCH   8  19
ATOM     19  O   LIG A   1      -3.794   2.977 125.857  0.00  0.00    -0.457 OA
BRANCH  19  20
ATOM     20  C   LIG A   1      -2.879   3.587 126.657  0.00  0.00    +0.308 C 
ATOM     21  O   LIG A   1      -1.724   3.218 126.825  0.00  0.00    -0.251 OA
BRANCH  20  22
ATOM     22  C   LIG A   1      -3.445   4.850 127.261  0.00  0.00    +0.120 C 
BRANCH  22  23
ATOM     23  C   LIG A   1      -2.831   5.080 128.639  0.00  0.00    +0.008 C 
ATOM     24  C   LIG A   1      -2.122   6.428 128.734  0.00  0.00    +0.004 C 
ENDBRANCH  22  23
ENDBRANCH  20  22
ENDBRANCH  19  20
ENDBRANCH   8  19
BRANCH  11  25
ATOM     25  C   LIG A   1      -6.363  -0.300 127.728  0.00  0.00    +0.034 C 
BRANCH  25  26
ATOM     26  C   LIG A   1      -6.998  -0.746 129.044  0.00  0.00    -0.023 C 
ATOM     27  C   LIG A   1      -7.506  -1.927 129.438  0.00  0.00    -0.055 C 
ATOM     28  C   LIG A   1      -8.092  -2.098 130.824  0.00  0.00    +0.043 C 
BRANCH  27  29
ATOM     29  C   LIG A   1      -7.590  -3.140 128.639  0.00  0.00    -0.005 C 
ATOM     30  C   LIG A   1      -8.691  -3.567 128.012  0.00  0.00    +0.008 C 
ENDBRANCH  27  29
ENDBRANCH  25  26
ENDBRANCH  11  25
TORSDOF 10
ENDMDL
MODEL 8
REMARK VINA RESULT:      -7.1      4.896      8.180
REMARK  Name = NuBBE_53
REMARK  14 active torsions:
REMARK  status: ('A' for Active; 'I' for Inactive)
REMARK    1  A    between atoms: C_1  and  C_2
REMARK    2  A    between atoms: C_5  and  O_7
REMARK    3  A    between atoms: C_8  and  C_9
REMARK    4  A    between atoms: C_11  and  C_12
REMARK    5  A    between atoms: C_15  and  O_17
REMARK    6  A    between atoms: O_17  and  C_18
REMARK    7  A    between atoms: C_18  and  C_19
REMARK    8  A    between atoms: C_19  and  C_20
REMARK    9  A    between atoms: C_20  and  C_21
REMARK   10  A    between atoms: C_26  and  C_27
REMARK   11  A    between atoms: C_26  and  C_28
REMARK   12  A    between atoms: C_28  and  C_29
REMARK   13  A    between atoms: C_30  and  C_31
REMARK   14  A    between atoms: C_30  and  C_33
REMARK                            x       y       z     vdW  Elec       q    Type
REMARK                         _______ _______ _______ _____ _____    ______ ____
ROOT
ATOM      1  C   LIG A   1      -4.106   7.826 129.915  0.00  0.00    +0.008 C 
ATOM      2  C   LIG A   1      -3.758   6.401 130.374  0.00  0.00    -0.005 C 
ATOM      3  C   LIG A   1      -2.986   5.686 129.246  0.00  0.00    +0.036 C 
ATOM      4  C   LIG A   1      -3.843   5.248 128.049  0.00  0.00    +0.133 C 
ATOM      5  C   LIG A   1      -5.030   4.348 128.475  0.00  0.00    +0.083 C 
ATOM      6  C   LIG A   1      -5.968   3.990 127.310  0.00  0.00    +0.007 C 
ATOM      7  C   LIG A   1      -7.300   3.906 127.432  0.00  0.00    +0.024 C 
ATOM      8  C   LIG A   1      -8.050   4.135 128.710  0.00  0.00    +0.200 C 
ATOM      9  C   LIG A   1      -7.141   4.292 129.950  0.00  0.00    +0.054 C 
ATOM     10  C   LIG A   1      -5.844   5.077 129.630  0.00  0.00    +0.019 C 
ATOM     11  C   LIG A   1      -4.992   5.570 130.897  0.00  0.00    -0.022 C 
ATOM     12  C   LIG A   1      -4.473   4.366 131.729  0.00  0.00    +0.012 C 
ENDROOT
BRANCH   4  13
ATOM     13  O   LIG A   1      -4.328   6.395 127.348  0.00  0.00    -0.391 OA
ATOM     14  H   LIG A   1      -3.708   7.127 127.518  0.00  0.00    +0.210 HD
ENDBRANCH   4  13
BRANCH   5  15
ATOM     15  C   LIG A   1      -4.458   2.979 128.869  0.00  0.00    +0.237 C 
ATOM     16  O   LIG A   1      -3.417   2.496 128.426  0.00  0.00    -0.300 OA
ENDBRANCH   5  15
BRANCH   6  17
ATOM     17  C   LIG A   1      -5.440   3.655 125.960  0.00  0.00    +0.255 C 
ATOM     18  O   LIG A   1      -5.359   4.466 125.045  0.00  0.00    -0.296 OA
ENDBRANCH   6  17
BRANCH   8  19
ATOM     19  O   LIG A   1      -8.819   5.347 128.551  0.00  0.00    -0.457 OA
BRANCH  19  20
ATOM     20  C   LIG A   1      -9.768   5.570 129.499  0.00  0.00    +0.308 C 
ATOM     21  O   LIG A   1     -10.561   4.737 129.921  0.00  0.00    -0.251 OA
BRANCH  20  22
ATOM     22  C   LIG A   1      -9.670   6.975 130.043  0.00  0.00    +0.120 C 
BRANCH  22  23
ATOM     23  C   LIG A   1     -10.834   7.812 129.519  0.00  0.00    +0.008 C 
ATOM     24  C   LIG A   1     -10.529   8.431 128.158  0.00  0.00    +0.004 C 
ENDBRANCH  22  23
ENDBRANCH  20  22
ENDBRANCH  19  20
ENDBRANCH   8  19
BRANCH  11  25
ATOM     25  C   LIG A   1      -5.890   6.460 131.871  0.00  0.00    +0.034 C 
BRANCH  25  26
ATOM     26  C   LIG A   1      -6.141   5.946 133.288  0.00  0.00    -0.023 C 
ATOM     27  C   LIG A   1      -7.239   5.437 133.874  0.00  0.00    -0.055 C 
ATOM     28  C   LIG A   1      -7.215   5.002 135.325  0.00  0.00    +0.043 C 
BRANCH  27  29
ATOM     29  C   LIG A   1      -8.544   5.259 133.257  0.00  0.00    -0.005 C 
ATOM     30  C   LIG A   1      -9.299   4.162 133.368  0.00  0.00    +0.008 C 
ENDBRANCH  27  29
ENDBRANCH  25  26
ENDBRANCH  11  25
TORSDOF 10
ENDMDL
MODEL 9
REMARK VINA RESULT:      -7.0      3.624      7.580
REMARK  Name = NuBBE_53
REMARK  14 active torsions:
REMARK  status: ('A' for Active; 'I' for Inactive)
REMARK    1  A    between atoms: C_1  and  C_2
REMARK    2  A    between atoms: C_5  and  O_7
REMARK    3  A    between atoms: C_8  and  C_9
REMARK    4  A    between atoms: C_11  and  C_12
REMARK    5  A    between atoms: C_15  and  O_17
REMARK    6  A    between atoms: O_17  and  C_18
REMARK    7  A    between atoms: C_18  and  C_19
REMARK    8  A    between atoms: C_19  and  C_20
REMARK    9  A    between atoms: C_20  and  C_21
REMARK   10  A    between atoms: C_26  and  C_27
REMARK   11  A    between atoms: C_26  and  C_28
REMARK   12  A    between atoms: C_28  and  C_29
REMARK   13  A    between atoms: C_30  and  C_31
REMARK   14  A    between atoms: C_30  and  C_33
REMARK                            x       y       z     vdW  Elec       q    Type
REMARK                         _______ _______ _______ _____ _____    ______ ____
ROOT
ATOM      1  C   LIG A   1      -5.320  -0.258 125.951  0.00  0.00    +0.008 C 
ATOM      2  C   LIG A   1      -6.366   0.752 125.453  0.00  0.00    -0.005 C 
ATOM      3  C   LIG A   1      -5.713   2.147 125.367  0.00  0.00    +0.036 C 
ATOM      4  C   LIG A   1      -5.477   2.838 126.718  0.00  0.00    +0.133 C 
ATOM      5  C   LIG A   1      -6.776   2.957 127.553  0.00  0.00    +0.083 C 
ATOM      6  C   LIG A   1      -6.544   3.542 128.956  0.00  0.00    +0.007 C 
ATOM      7  C   LIG A   1      -7.196   3.122 130.049  0.00  0.00    +0.024 C 
ATOM      8  C   LIG A   1      -8.238   2.043 130.052  0.00  0.00    +0.200 C 
ATOM      9  C   LIG A   1      -8.654   1.571 128.641  0.00  0.00    +0.054 C 
ATOM     10  C   LIG A   1      -7.455   1.524 127.661  0.00  0.00    +0.019 C 
ATOM     11  C   LIG A   1      -7.710   0.752 126.278  0.00  0.00    -0.022 C 
ATOM     12  C   LIG A   1      -8.816   1.449 125.439  0.00  0.00    +0.012 C 
ENDROOT
BRANCH   4  13
ATOM     13  O   LIG A   1      -4.483   2.130 127.462  0.00  0.00    -0.391 OA
ATOM     14  H   LIG A   1      -4.754   1.194 127.498  0.00  0.00    +0.210 HD
ENDBRANCH   4  13
BRANCH   5  15
ATOM     15  C   LIG A   1      -7.656   4.028 126.892  0.00  0.00    +0.237 C 
ATOM     16  O   LIG A   1      -8.430   4.773 127.491  0.00  0.00    -0.300 OA
ENDBRANCH   5  15
BRANCH   6  17
ATOM     17  C   LIG A   1      -5.601   4.671 129.183  0.00  0.00    +0.255 C 
ATOM     18  O   LIG A   1      -4.429   4.519 129.503  0.00  0.00    -0.296 OA
ENDBRANCH   6  17
BRANCH   8  19
ATOM     19  O   LIG A   1      -7.692   0.915 130.769  0.00  0.00    -0.457 OA
BRANCH  19  20
ATOM     20  C   LIG A   1      -8.601   0.125 131.401  0.00  0.00    +0.308 C 
ATOM     21  O   LIG A   1      -9.681   0.497 131.843  0.00  0.00    -0.251 OA
BRANCH  20  22
ATOM     22  C   LIG A   1      -8.147  -1.315 131.417  0.00  0.00    +0.120 C 
BRANCH  22  23
ATOM     23  C   LIG A   1      -7.492  -1.662 130.082  0.00  0.00    +0.008 C 
ATOM     24  C   LIG A   1      -8.050  -2.951 129.486  0.00  0.00    +0.004 C 
ENDBRANCH  22  23
ENDBRANCH  20  22
ENDBRANCH  19  20
ENDBRANCH   8  19
BRANCH  11  25
ATOM     25  C   LIG A   1      -8.199  -0.744 126.547  0.00  0.00    +0.034 C 
BRANCH  25  26
ATOM     26  C   LIG A   1      -8.911  -1.482 125.414  0.00  0.00    -0.023 C 
ATOM     27  C   LIG A   1      -8.558  -2.553 124.682  0.00  0.00    -0.055 C 
ATOM     28  C   LIG A   1      -9.467  -3.086 123.595  0.00  0.00    +0.043 C 
BRANCH  27  29
ATOM     29  C   LIG A   1      -7.316  -3.303 124.793  0.00  0.00    -0.005 C 
ATOM     30  C   LIG A   1      -6.259  -3.155 123.989  0.00  0.00    +0.008 C 
ENDBRANCH  27  29
ENDBRANCH  25  26
ENDBRANCH  11  25
TORSDOF 10
ENDMDL
