MODEL 1
REMARK VINA RESULT:      -6.8      0.000      0.000
REMARK  Name = NuBBE_1401
REMARK  13 active torsions:
REMARK  status: ('A' for Active; 'I' for Inactive)
REMARK    1  A    between atoms: C_1  and  C_2
REMARK    2  A    between atoms: C_1  and  C_17
REMARK    3  A    between atoms: C_2  and  S_3
REMARK    4  A    between atoms: S_3  and  C_4
REMARK    5  A    between atoms: N_7  and  C_8
REMARK    6  A    between atoms: C_9  and  S_15
REMARK    7  A    between atoms: N_13  and  C_14
REMARK    8  A    between atoms: S_15  and  C_16
REMARK    9  A    between atoms: C_20  and  O_23
REMARK   10  A    between atoms: O_23  and  C_24
REMARK   11  A    between atoms: C_24  and  C_25
REMARK   12  A    between atoms: C_26  and  C_27
REMARK   13  A    between atoms: C_26  and  C_28
REMARK                            x       y       z     vdW  Elec       q    Type
REMARK                         _______ _______ _______ _____ _____    ______ ____
ROOT
ATOM      1  C   LIG A   1      -6.471  -1.754 132.012  0.00  0.00    +0.164 C 
ATOM      2  C   LIG A   1      -5.203  -1.966 131.102  0.00  0.00    +0.251 C 
ATOM      3  O   LIG A   1      -4.760  -1.057 130.395  0.00  0.00    -0.272 OA
ATOM      4  N   LIG A   1      -4.604  -3.212 131.092  0.00  0.00    -0.282 N 
ATOM      5  C   LIG A   1      -3.515  -3.461 130.159  0.00  0.00    +0.134 C 
ATOM      6  C   LIG A   1      -4.858  -4.204 132.122  0.00  0.00    +0.220 C 
ATOM      7  C   LIG A   1      -6.147  -4.068 132.961  0.00  0.00    +0.248 C 
ATOM      8  O   LIG A   1      -6.462  -4.920 133.786  0.00  0.00    -0.273 OA
ATOM      9  N   LIG A   1      -6.977  -2.982 132.687  0.00  0.00    -0.280 N 
ATOM     10  C   LIG A   1      -8.166  -2.905 133.534  0.00  0.00    +0.134 C 
ENDROOT
BRANCH   1  11
ATOM     11  S   LIG A   1      -5.977  -0.554 133.391  0.00  0.00    -0.129 S 
ATOM     12  C   LIG A   1      -6.695   1.031 132.861  0.00  0.00    +0.087 C 
ENDBRANCH   1  11
BRANCH   6  13
ATOM     13  S   LIG A   1      -3.404  -4.523 133.189  0.00  0.00    -0.133 S 
ATOM     14  C   LIG A   1      -3.426  -3.061 134.242  0.00  0.00    +0.086 C 
ENDBRANCH   6  13
BRANCH   1  15
ATOM     15  C   LIG A   1      -7.576  -1.137 131.095  0.00  0.00    +0.082 C 
BRANCH  15  16
ATOM     16  C   LIG A   1      -7.808  -1.846 129.767  0.00  0.00    -0.044 A 
ATOM     17  C   LIG A   1      -8.239  -3.177 129.689  0.00  0.00    +0.007 A 
ATOM     18  C   LIG A   1      -8.543  -3.754 128.446  0.00  0.00    +0.046 A 
ATOM     19  C   LIG A   1      -8.400  -3.022 127.266  0.00  0.00    +0.121 A 
ATOM     20  C   LIG A   1      -7.950  -1.706 127.339  0.00  0.00    +0.046 A 
ATOM     21  C   LIG A   1      -7.647  -1.131 128.574  0.00  0.00    +0.007 A 
BRANCH  19  22
ATOM     22  O   LIG A   1      -8.730  -3.675 126.104  0.00  0.00    -0.488 OA
BRANCH  22  23
ATOM     23  C   LIG A   1      -8.349  -3.002 124.902  0.00  0.00    +0.256 C 
BRANCH  23  24
ATOM     24  C   LIG A   1      -7.105  -3.628 124.345  0.00  0.00    +0.012 C 
ATOM     25  C   LIG A   1      -5.843  -3.159 124.297  0.00  0.00    -0.076 C 
ATOM     26  C   LIG A   1      -5.405  -1.777 124.696  0.00  0.00    +0.038 C 
ATOM     27  C   LIG A   1      -4.738  -4.043 123.781  0.00  0.00    +0.038 C 
ENDBRANCH  23  24
ENDBRANCH  22  23
ENDBRANCH  19  22
ENDBRANCH  15  16
ENDBRANCH   1  15
TORSDOF 7
ENDMDL
MODEL 2
REMARK VINA RESULT:      -6.5      1.858      2.823
REMARK  Name = NuBBE_1401
REMARK  13 active torsions:
REMARK  status: ('A' for Active; 'I' for Inactive)
REMARK    1  A    between atoms: C_1  and  C_2
REMARK    2  A    between atoms: C_1  and  C_17
REMARK    3  A    between atoms: C_2  and  S_3
REMARK    4  A    between atoms: S_3  and  C_4
REMARK    5  A    between atoms: N_7  and  C_8
REMARK    6  A    between atoms: C_9  and  S_15
REMARK    7  A    between atoms: N_13  and  C_14
REMARK    8  A    between atoms: S_15  and  C_16
REMARK    9  A    between atoms: C_20  and  O_23
REMARK   10  A    between atoms: O_23  and  C_24
REMARK   11  A    between atoms: C_24  and  C_25
REMARK   12  A    between atoms: C_26  and  C_27
REMARK   13  A    between atoms: C_26  and  C_28
REMARK                            x       y       z     vdW  Elec       q    Type
REMARK                         _______ _______ _______ _____ _____    ______ ____
ROOT
ATOM      1  C   LIG A   1      -6.486  -2.795 132.362  0.00  0.00    +0.164 C 
ATOM      2  C   LIG A   1      -6.272  -1.286 132.760  0.00  0.00    +0.251 C 
ATOM      3  O   LIG A   1      -7.141  -0.649 133.360  0.00  0.00    -0.272 OA
ATOM      4  N   LIG A   1      -5.086  -0.675 132.398  0.00  0.00    -0.282 N 
ATOM      5  C   LIG A   1      -4.927   0.752 132.641  0.00  0.00    +0.134 C 
ATOM      6  C   LIG A   1      -3.912  -1.432 132.000  0.00  0.00    +0.220 C 
ATOM      7  C   LIG A   1      -4.114  -2.884 131.513  0.00  0.00    +0.248 C 
ATOM      8  O   LIG A   1      -3.175  -3.546 131.082  0.00  0.00    -0.273 OA
ATOM      9  N   LIG A   1      -5.416  -3.382 131.510  0.00  0.00    -0.280 N 
ATOM     10  C   LIG A   1      -5.527  -4.768 131.060  0.00  0.00    +0.134 C 
ENDROOT
BRANCH   1  11
ATOM     11  S   LIG A   1      -6.502  -3.800 133.967  0.00  0.00    -0.129 S 
ATOM     12  C   LIG A   1      -8.256  -3.817 134.448  0.00  0.00    +0.087 C 
ENDBRANCH   1  11
BRANCH   6  13
ATOM     13  S   LIG A   1      -2.539  -1.323 133.207  0.00  0.00    -0.133 S 
ATOM     14  C   LIG A   1      -3.108  -2.470 134.475  0.00  0.00    +0.086 C 
ENDBRANCH   6  13
BRANCH   1  15
ATOM     15  C   LIG A   1      -7.868  -2.870 131.636  0.00  0.00    +0.082 C 
BRANCH  15  16
ATOM     16  C   LIG A   1      -7.870  -2.451 130.171  0.00  0.00    -0.044 A 
ATOM     17  C   LIG A   1      -7.456  -1.181 129.750  0.00  0.00    +0.007 A 
ATOM     18  C   LIG A   1      -7.372  -0.878 128.382  0.00  0.00    +0.046 A 
ATOM     19  C   LIG A   1      -7.722  -1.826 127.418  0.00  0.00    +0.121 A 
ATOM     20  C   LIG A   1      -8.157  -3.082 127.835  0.00  0.00    +0.046 A 
ATOM     21  C   LIG A   1      -8.241  -3.386 129.195  0.00  0.00    +0.007 A 
BRANCH  19  22
ATOM     22  O   LIG A   1      -7.598  -1.434 126.108  0.00  0.00    -0.488 OA
BRANCH  22  23
ATOM     23  C   LIG A   1      -6.270  -1.105 125.698  0.00  0.00    +0.256 C 
BRANCH  23  24
ATOM     24  C   LIG A   1      -5.591  -2.327 125.154  0.00  0.00    +0.012 C 
ATOM     25  C   LIG A   1      -5.418  -2.730 123.880  0.00  0.00    -0.076 C 
ATOM     26  C   LIG A   1      -6.011  -2.075 122.665  0.00  0.00    +0.038 C 
ATOM     27  C   LIG A   1      -4.589  -3.954 123.591  0.00  0.00    +0.038 C 
ENDBRANCH  23  24
ENDBRANCH  22  23
ENDBRANCH  19  22
ENDBRANCH  15  16
ENDBRANCH   1  15
TORSDOF 7
ENDMDL
MODEL 3
REMARK VINA RESULT:      -6.4      6.610      9.205
REMARK  Name = NuBBE_1401
REMARK  13 active torsions:
REMARK  status: ('A' for Active; 'I' for Inactive)
REMARK    1  A    between atoms: C_1  and  C_2
REMARK    2  A    between atoms: C_1  and  C_17
REMARK    3  A    between atoms: C_2  and  S_3
REMARK    4  A    between atoms: S_3  and  C_4
REMARK    5  A    between atoms: N_7  and  C_8
REMARK    6  A    between atoms: C_9  and  S_15
REMARK    7  A    between atoms: N_13  and  C_14
REMARK    8  A    between atoms: S_15  and  C_16
REMARK    9  A    between atoms: C_20  and  O_23
REMARK   10  A    between atoms: O_23  and  C_24
REMARK   11  A    between atoms: C_24  and  C_25
REMARK   12  A    between atoms: C_26  and  C_27
REMARK   13  A    between atoms: C_26  and  C_28
REMARK                            x       y       z     vdW  Elec       q    Type
REMARK                         _______ _______ _______ _____ _____    ______ ____
ROOT
ATOM      1  C   LIG A   1      -6.826   2.560 128.594  0.00  0.00    +0.164 C 
ATOM      2  C   LIG A   1      -6.888   3.810 127.637  0.00  0.00    +0.251 C 
ATOM      3  O   LIG A   1      -6.241   4.833 127.874  0.00  0.00    -0.272 OA
ATOM      4  N   LIG A   1      -7.709   3.746 126.527  0.00  0.00    -0.282 N 
ATOM      5  C   LIG A   1      -7.878   4.937 125.708  0.00  0.00    +0.134 C 
ATOM      6  C   LIG A   1      -8.225   2.488 126.014  0.00  0.00    +0.220 C 
ATOM      7  C   LIG A   1      -8.263   1.275 126.969  0.00  0.00    +0.248 C 
ATOM      8  O   LIG A   1      -8.767   0.210 126.624  0.00  0.00    -0.273 OA
ATOM      9  N   LIG A   1      -7.776   1.462 128.261  0.00  0.00    -0.280 N 
ATOM     10  C   LIG A   1      -7.822   0.266 129.100  0.00  0.00    +0.134 C 
ENDROOT
BRANCH   1  11
ATOM     11  S   LIG A   1      -5.088   1.824 128.444  0.00  0.00    -0.129 S 
ATOM     12  C   LIG A   1      -4.255   2.372 129.965  0.00  0.00    +0.087 C 
ENDBRANCH   1  11
BRANCH   6  13
ATOM     13  S   LIG A   1      -7.521   2.029 124.387  0.00  0.00    -0.133 S 
ATOM     14  C   LIG A   1      -9.014   1.935 123.382  0.00  0.00    +0.086 C 
ENDBRANCH   6  13
BRANCH   1  15
ATOM     15  C   LIG A   1      -7.090   3.094 130.039  0.00  0.00    +0.082 C 
BRANCH  15  16
ATOM     16  C   LIG A   1      -8.392   3.860 130.234  0.00  0.00    -0.044 A 
ATOM     17  C   LIG A   1      -9.647   3.240 130.177  0.00  0.00    +0.007 A 
ATOM     18  C   LIG A   1     -10.812   3.965 130.472  0.00  0.00    +0.046 A 
ATOM     19  C   LIG A   1     -10.745   5.321 130.802  0.00  0.00    +0.121 A 
ATOM     20  C   LIG A   1      -9.501   5.945 130.835  0.00  0.00    +0.046 A 
ATOM     21  C   LIG A   1      -8.341   5.226 130.544  0.00  0.00    +0.007 A 
BRANCH  19  22
ATOM     22  O   LIG A   1     -11.940   5.937 131.079  0.00  0.00    -0.488 OA
BRANCH  22  23
ATOM     23  C   LIG A   1     -12.117   7.216 130.466  0.00  0.00    +0.256 C 
BRANCH  23  24
ATOM     24  C   LIG A   1     -12.529   7.039 129.035  0.00  0.00    +0.012 C 
ATOM     25  C   LIG A   1     -11.919   7.433 127.900  0.00  0.00    -0.076 C 
ATOM     26  C   LIG A   1     -10.692   8.297 127.819  0.00  0.00    +0.038 C 
ATOM     27  C   LIG A   1     -12.489   7.026 126.567  0.00  0.00    +0.038 C 
ENDBRANCH  23  24
ENDBRANCH  22  23
ENDBRANCH  19  22
ENDBRANCH  15  16
ENDBRANCH   1  15
TORSDOF 7
ENDMDL
MODEL 4
REMARK VINA RESULT:      -6.4      4.073      7.720
REMARK  Name = NuBBE_1401
REMARK  13 active torsions:
REMARK  status: ('A' for Active; 'I' for Inactive)
REMARK    1  A    between atoms: C_1  and  C_2
REMARK    2  A    between atoms: C_1  and  C_17
REMARK    3  A    between atoms: C_2  and  S_3
REMARK    4  A    between atoms: S_3  and  C_4
REMARK    5  A    between atoms: N_7  and  C_8
REMARK    6  A    between atoms: C_9  and  S_15
REMARK    7  A    between atoms: N_13  and  C_14
REMARK    8  A    between atoms: S_15  and  C_16
REMARK    9  A    between atoms: C_20  and  O_23
REMARK   10  A    between atoms: O_23  and  C_24
REMARK   11  A    between atoms: C_24  and  C_25
REMARK   12  A    between atoms: C_26  and  C_27
REMARK   13  A    between atoms: C_26  and  C_28
REMARK                            x       y       z     vdW  Elec       q    Type
REMARK                         _______ _______ _______ _____ _____    ______ ____
ROOT
ATOM      1  C   LIG A   1      -6.991  -1.192 125.191  0.00  0.00    +0.164 C 
ATOM      2  C   LIG A   1      -6.202   0.019 125.818  0.00  0.00    +0.251 C 
ATOM      3  O   LIG A   1      -4.973   0.000 125.919  0.00  0.00    -0.272 OA
ATOM      4  N   LIG A   1      -6.923   1.103 126.279  0.00  0.00    -0.282 N 
ATOM      5  C   LIG A   1      -6.220   2.169 126.978  0.00  0.00    +0.134 C 
ATOM      6  C   LIG A   1      -8.306   1.336 125.897  0.00  0.00    +0.220 C 
ATOM      7  C   LIG A   1      -9.126   0.138 125.371  0.00  0.00    +0.248 C 
ATOM      8  O   LIG A   1     -10.321   0.250 125.115  0.00  0.00    -0.273 OA
ATOM      9  N   LIG A   1      -8.475  -1.091 125.276  0.00  0.00    -0.280 N 
ATOM     10  C   LIG A   1      -9.306  -2.172 124.750  0.00  0.00    +0.134 C 
ENDROOT
BRANCH   1  11
ATOM     11  S   LIG A   1      -6.566  -1.244 123.346  0.00  0.00    -0.129 S 
ATOM     12  C   LIG A   1      -5.478  -2.693 123.195  0.00  0.00    +0.087 C 
ENDBRANCH   1  11
BRANCH   6  13
ATOM     13  S   LIG A   1      -8.520   2.807 124.827  0.00  0.00    -0.133 S 
ATOM     14  C   LIG A   1      -7.666   2.270 123.333  0.00  0.00    +0.086 C 
ENDBRANCH   6  13
BRANCH   1  15
ATOM     15  C   LIG A   1      -6.487  -2.477 125.923  0.00  0.00    +0.082 C 
BRANCH  15  16
ATOM     16  C   LIG A   1      -6.749  -2.532 127.422  0.00  0.00    -0.044 A 
ATOM     17  C   LIG A   1      -8.026  -2.748 127.956  0.00  0.00    +0.007 A 
ATOM     18  C   LIG A   1      -8.202  -2.900 129.340  0.00  0.00    +0.046 A 
ATOM     19  C   LIG A   1      -7.114  -2.814 130.212  0.00  0.00    +0.121 A 
ATOM     20  C   LIG A   1      -5.847  -2.575 129.685  0.00  0.00    +0.046 A 
ATOM     21  C   LIG A   1      -5.670  -2.425 128.309  0.00  0.00    +0.007 A 
BRANCH  19  22
ATOM     22  O   LIG A   1      -7.390  -2.982 131.546  0.00  0.00    -0.488 OA
BRANCH  22  23
ATOM     23  C   LIG A   1      -7.005  -1.893 132.386  0.00  0.00    +0.256 C 
BRANCH  23  24
ATOM     24  C   LIG A   1      -8.104  -0.873 132.429  0.00  0.00    +0.012 C 
ATOM     25  C   LIG A   1      -8.315   0.209 131.655  0.00  0.00    -0.076 C 
ATOM     26  C   LIG A   1      -7.376   0.734 130.606  0.00  0.00    +0.038 C 
ATOM     27  C   LIG A   1      -9.573   1.018 131.833  0.00  0.00    +0.038 C 
ENDBRANCH  23  24
ENDBRANCH  22  23
ENDBRANCH  19  22
ENDBRANCH  15  16
ENDBRANCH   1  15
TORSDOF 7
ENDMDL
MODEL 5
REMARK VINA RESULT:      -6.4      6.645      9.277
REMARK  Name = NuBBE_1401
REMARK  13 active torsions:
REMARK  status: ('A' for Active; 'I' for Inactive)
REMARK    1  A    between atoms: C_1  and  C_2
REMARK    2  A    between atoms: C_1  and  C_17
REMARK    3  A    between atoms: C_2  and  S_3
REMARK    4  A    between atoms: S_3  and  C_4
REMARK    5  A    between atoms: N_7  and  C_8
REMARK    6  A    between atoms: C_9  and  S_15
REMARK    7  A    between atoms: N_13  and  C_14
REMARK    8  A    between atoms: S_15  and  C_16
REMARK    9  A    between atoms: C_20  and  O_23
REMARK   10  A    between atoms: O_23  and  C_24
REMARK   11  A    between atoms: C_24  and  C_25
REMARK   12  A    between atoms: C_26  and  C_27
REMARK   13  A    between atoms: C_26  and  C_28
REMARK                            x       y       z     vdW  Elec       q    Type
REMARK                         _______ _______ _______ _____ _____    ______ ____
ROOT
ATOM      1  C   LIG A   1      -5.814   4.727 131.353  0.00  0.00    +0.164 C 
ATOM      2  C   LIG A   1      -6.416   4.281 129.967  0.00  0.00    +0.251 C 
ATOM      3  O   LIG A   1      -6.417   5.038 128.994  0.00  0.00    -0.272 OA
ATOM      4  N   LIG A   1      -6.970   3.019 129.869  0.00  0.00    -0.282 N 
ATOM      5  C   LIG A   1      -7.646   2.642 128.637  0.00  0.00    +0.134 C 
ATOM      6  C   LIG A   1      -6.710   1.977 130.848  0.00  0.00    +0.220 C 
ATOM      7  C   LIG A   1      -6.211   2.403 132.246  0.00  0.00    +0.248 C 
ATOM      8  O   LIG A   1      -6.057   1.580 133.144  0.00  0.00    -0.273 OA
ATOM      9  N   LIG A   1      -6.022   3.766 132.471  0.00  0.00    -0.280 N 
ATOM     10  C   LIG A   1      -5.529   4.091 133.808  0.00  0.00    +0.134 C 
ENDROOT
BRANCH   1  11
ATOM     11  S   LIG A   1      -3.940   4.883 131.126  0.00  0.00    -0.129 S 
ATOM     12  C   LIG A   1      -3.669   6.677 131.000  0.00  0.00    +0.087 C 
ENDBRANCH   1  11
BRANCH   6  13
ATOM     13  S   LIG A   1      -5.711   0.595 130.182  0.00  0.00    -0.133 S 
ATOM     14  C   LIG A   1      -4.103   1.389 130.005  0.00  0.00    +0.086 C 
ENDBRANCH   6  13
BRANCH   1  15
ATOM     15  C   LIG A   1      -6.459   6.110 131.692  0.00  0.00    +0.082 C 
BRANCH  15  16
ATOM     16  C   LIG A   1      -7.981   6.140 131.729  0.00  0.00    -0.044 A 
ATOM     17  C   LIG A   1      -8.722   5.517 132.740  0.00  0.00    +0.007 A 
ATOM     18  C   LIG A   1     -10.118   5.663 132.793  0.00  0.00    +0.046 A 
ATOM     19  C   LIG A   1     -10.794   6.411 131.826  0.00  0.00    +0.121 A 
ATOM     20  C   LIG A   1     -10.061   7.012 130.806  0.00  0.00    +0.046 A 
ATOM     21  C   LIG A   1      -8.673   6.868 130.752  0.00  0.00    +0.007 A 
BRANCH  19  22
ATOM     22  O   LIG A   1     -12.156   6.499 131.970  0.00  0.00    -0.488 OA
BRANCH  22  23
ATOM     23  C   LIG A   1     -12.755   7.649 131.370  0.00  0.00    +0.256 C 
BRANCH  23  24
ATOM     24  C   LIG A   1     -13.395   7.266 130.070  0.00  0.00    +0.012 C 
ATOM     25  C   LIG A   1     -13.181   7.734 128.824  0.00  0.00    -0.076 C 
ATOM     26  C   LIG A   1     -12.299   8.896 128.465  0.00  0.00    +0.038 C 
ATOM     27  C   LIG A   1     -13.882   7.093 127.656  0.00  0.00    +0.038 C 
ENDBRANCH  23  24
ENDBRANCH  22  23
ENDBRANCH  19  22
ENDBRANCH  15  16
ENDBRANCH   1  15
TORSDOF 7
ENDMDL
MODEL 6
REMARK VINA RESULT:      -6.4      1.797      2.648
REMARK  Name = NuBBE_1401
REMARK  13 active torsions:
REMARK  status: ('A' for Active; 'I' for Inactive)
REMARK    1  A    between atoms: C_1  and  C_2
REMARK    2  A    between atoms: C_1  and  C_17
REMARK    3  A    between atoms: C_2  and  S_3
REMARK    4  A    between atoms: S_3  and  C_4
REMARK    5  A    between atoms: N_7  and  C_8
REMARK    6  A    between atoms: C_9  and  S_15
REMARK    7  A    between atoms: N_13  and  C_14
REMARK    8  A    between atoms: S_15  and  C_16
REMARK    9  A    between atoms: C_20  and  O_23
REMARK   10  A    between atoms: O_23  and  C_24
REMARK   11  A    between atoms: C_24  and  C_25
REMARK   12  A    between atoms: C_26  and  C_27
REMARK   13  A    between atoms: C_26  and  C_28
REMARK                            x       y       z     vdW  Elec       q    Type
REMARK                         _______ _______ _______ _____ _____    ______ ____
ROOT
ATOM      1  C   LIG A   1      -6.427  -2.514 130.498  0.00  0.00    +0.164 C 
ATOM      2  C   LIG A   1      -5.887  -3.871 131.086  0.00  0.00    +0.251 C 
ATOM      3  O   LIG A   1      -5.976  -4.926 130.453  0.00  0.00    -0.272 OA
ATOM      4  N   LIG A   1      -5.326  -3.862 132.349  0.00  0.00    -0.282 N 
ATOM      5  C   LIG A   1      -4.943  -5.127 132.958  0.00  0.00    +0.134 C 
ATOM      6  C   LIG A   1      -4.892  -2.636 132.998  0.00  0.00    +0.220 C 
ATOM      7  C   LIG A   1      -5.487  -1.301 132.499  0.00  0.00    +0.248 C 
ATOM      8  O   LIG A   1      -5.228  -0.241 133.061  0.00  0.00    -0.273 OA
ATOM      9  N   LIG A   1      -6.389  -1.358 131.438  0.00  0.00    -0.280 N 
ATOM     10  C   LIG A   1      -6.891  -0.056 131.005  0.00  0.00    +0.134 C 
ENDROOT
BRANCH   1  11
ATOM     11  S   LIG A   1      -5.312  -2.051 129.039  0.00  0.00    -0.129 S 
ATOM     12  C   LIG A   1      -3.688  -2.722 129.509  0.00  0.00    +0.087 C 
ENDBRANCH   1  11
BRANCH   6  13
ATOM     13  S   LIG A   1      -3.074  -2.523 133.185  0.00  0.00    -0.133 S 
ATOM     14  C   LIG A   1      -2.931  -2.214 134.955  0.00  0.00    +0.086 C 
ENDBRANCH   6  13
BRANCH   1  15
ATOM     15  C   LIG A   1      -7.891  -2.787 130.025  0.00  0.00    +0.082 C 
BRANCH  15  16
ATOM     16  C   LIG A   1      -8.147  -2.624 128.532  0.00  0.00    -0.044 A 
ATOM     17  C   LIG A   1      -8.493  -3.700 127.705  0.00  0.00    +0.007 A 
ATOM     18  C   LIG A   1      -8.824  -3.484 126.358  0.00  0.00    +0.046 A 
ATOM     19  C   LIG A   1      -8.792  -2.199 125.813  0.00  0.00    +0.121 A 
ATOM     20  C   LIG A   1      -8.425  -1.130 126.627  0.00  0.00    +0.046 A 
ATOM     21  C   LIG A   1      -8.095  -1.343 127.967  0.00  0.00    +0.007 A 
BRANCH  19  22
ATOM     22  O   LIG A   1      -9.139  -2.092 124.489  0.00  0.00    -0.488 OA
BRANCH  22  23
ATOM     23  C   LIG A   1      -8.193  -1.405 123.668  0.00  0.00    +0.256 C 
BRANCH  23  24
ATOM     24  C   LIG A   1      -7.034  -2.307 123.367  0.00  0.00    +0.012 C 
ATOM     25  C   LIG A   1      -5.821  -2.387 123.948  0.00  0.00    -0.076 C 
ATOM     26  C   LIG A   1      -5.288  -1.450 124.995  0.00  0.00    +0.038 C 
ATOM     27  C   LIG A   1      -4.864  -3.471 123.529  0.00  0.00    +0.038 C 
ENDBRANCH  23  24
ENDBRANCH  22  23
ENDBRANCH  19  22
ENDBRANCH  15  16
ENDBRANCH   1  15
TORSDOF 7
ENDMDL
MODEL 7
REMARK VINA RESULT:      -6.2      1.695      3.710
REMARK  Name = NuBBE_1401
REMARK  13 active torsions:
REMARK  status: ('A' for Active; 'I' for Inactive)
REMARK    1  A    between atoms: C_1  and  C_2
REMARK    2  A    between atoms: C_1  and  C_17
REMARK    3  A    between atoms: C_2  and  S_3
REMARK    4  A    between atoms: S_3  and  C_4
REMARK    5  A    between atoms: N_7  and  C_8
REMARK    6  A    between atoms: C_9  and  S_15
REMARK    7  A    between atoms: N_13  and  C_14
REMARK    8  A    between atoms: S_15  and  C_16
REMARK    9  A    between atoms: C_20  and  O_23
REMARK   10  A    between atoms: O_23  and  C_24
REMARK   11  A    between atoms: C_24  and  C_25
REMARK   12  A    between atoms: C_26  and  C_27
REMARK   13  A    between atoms: C_26  and  C_28
REMARK                            x       y       z     vdW  Elec       q    Type
REMARK                         _______ _______ _______ _____ _____    ______ ____
ROOT
ATOM      1  C   LIG A   1      -5.777  -2.217 131.616  0.00  0.00    +0.164 C 
ATOM      2  C   LIG A   1      -7.211  -1.658 131.952  0.00  0.00    +0.251 C 
ATOM      3  O   LIG A   1      -8.132  -2.410 132.280  0.00  0.00    -0.272 OA
ATOM      4  N   LIG A   1      -7.425  -0.297 131.848  0.00  0.00    -0.282 N 
ATOM      5  C   LIG A   1      -8.775   0.218 132.027  0.00  0.00    +0.134 C 
ATOM      6  C   LIG A   1      -6.333   0.660 131.797  0.00  0.00    +0.220 C 
ATOM      7  C   LIG A   1      -4.939   0.149 131.375  0.00  0.00    +0.248 C 
ATOM      8  O   LIG A   1      -3.997   0.922 131.228  0.00  0.00    -0.273 OA
ATOM      9  N   LIG A   1      -4.814  -1.210 131.089  0.00  0.00    -0.280 N 
ATOM     10  C   LIG A   1      -3.462  -1.624 130.719  0.00  0.00    +0.134 C 
ENDROOT
BRANCH   1  11
ATOM     11  S   LIG A   1      -5.036  -2.868 133.233  0.00  0.00    -0.129 S 
ATOM     12  C   LIG A   1      -4.732  -4.628 132.889  0.00  0.00    +0.087 C 
ENDBRANCH   1  11
BRANCH   6  13
ATOM     13  S   LIG A   1      -6.228   1.714 133.291  0.00  0.00    -0.133 S 
ATOM     14  C   LIG A   1      -5.730   0.503 134.530  0.00  0.00    +0.086 C 
ENDBRANCH   6  13
BRANCH   1  15
ATOM     15  C   LIG A   1      -5.982  -3.372 130.583  0.00  0.00    +0.082 C 
BRANCH  15  16
ATOM     16  C   LIG A   1      -6.719  -2.995 129.305  0.00  0.00    -0.044 A 
ATOM     17  C   LIG A   1      -6.206  -2.074 128.383  0.00  0.00    +0.007 A 
ATOM     18  C   LIG A   1      -6.869  -1.840 127.167  0.00  0.00    +0.046 A 
ATOM     19  C   LIG A   1      -8.062  -2.501 126.867  0.00  0.00    +0.121 A 
ATOM     20  C   LIG A   1      -8.587  -3.399 127.793  0.00  0.00    +0.046 A 
ATOM     21  C   LIG A   1      -7.929  -3.633 129.002  0.00  0.00    +0.007 A 
BRANCH  19  22
ATOM     22  O   LIG A   1      -8.628  -2.207 125.651  0.00  0.00    -0.488 OA
BRANCH  22  23
ATOM     23  C   LIG A   1      -8.604  -3.273 124.700  0.00  0.00    +0.256 C 
BRANCH  23  24
ATOM     24  C   LIG A   1      -7.184  -3.650 124.398  0.00  0.00    +0.012 C 
ATOM     25  C   LIG A   1      -6.237  -2.985 123.708  0.00  0.00    -0.076 C 
ATOM     26  C   LIG A   1      -6.445  -1.711 122.938  0.00  0.00    +0.038 C 
ATOM     27  C   LIG A   1      -4.836  -3.535 123.645  0.00  0.00    +0.038 C 
ENDBRANCH  23  24
ENDBRANCH  22  23
ENDBRANCH  19  22
ENDBRANCH  15  16
ENDBRANCH   1  15
TORSDOF 7
ENDMDL
MODEL 8
REMARK VINA RESULT:      -6.1      5.209      6.841
REMARK  Name = NuBBE_1401
REMARK  13 active torsions:
REMARK  status: ('A' for Active; 'I' for Inactive)
REMARK    1  A    between atoms: C_1  and  C_2
REMARK    2  A    between atoms: C_1  and  C_17
REMARK    3  A    between atoms: C_2  and  S_3
REMARK    4  A    between atoms: S_3  and  C_4
REMARK    5  A    between atoms: N_7  and  C_8
REMARK    6  A    between atoms: C_9  and  S_15
REMARK    7  A    between atoms: N_13  and  C_14
REMARK    8  A    between atoms: S_15  and  C_16
REMARK    9  A    between atoms: C_20  and  O_23
REMARK   10  A    between atoms: O_23  and  C_24
REMARK   11  A    between atoms: C_24  and  C_25
REMARK   12  A    between atoms: C_26  and  C_27
REMARK   13  A    between atoms: C_26  and  C_28
REMARK                            x       y       z     vdW  Elec       q    Type
REMARK                         _______ _______ _______ _____ _____    ______ ____
ROOT
ATOM      1  C   LIG A   1      -6.389   3.176 127.298  0.00  0.00    +0.164 C 
ATOM      2  C   LIG A   1      -6.943   3.488 128.739  0.00  0.00    +0.251 C 
ATOM      3  O   LIG A   1      -7.903   2.870 129.206  0.00  0.00    -0.272 OA
ATOM      4  N   LIG A   1      -6.341   4.496 129.468  0.00  0.00    -0.282 N 
ATOM      5  C   LIG A   1      -6.923   4.884 130.745  0.00  0.00    +0.134 C 
ATOM      6  C   LIG A   1      -5.030   5.023 129.130  0.00  0.00    +0.220 C 
ATOM      7  C   LIG A   1      -4.511   4.811 127.691  0.00  0.00    +0.248 C 
ATOM      8  O   LIG A   1      -3.452   5.307 127.318  0.00  0.00    -0.273 OA
ATOM      9  N   LIG A   1      -5.330   4.104 126.812  0.00  0.00    -0.280 N 
ATOM     10  C   LIG A   1      -4.765   3.923 125.477  0.00  0.00    +0.134 C 
ENDROOT
BRANCH   1  11
ATOM     11  S   LIG A   1      -5.601   1.455 127.361  0.00  0.00    -0.129 S 
ATOM     12  C   LIG A   1      -4.920   1.355 129.044  0.00  0.00    +0.087 C 
ENDBRANCH   1  11
BRANCH   6  13
ATOM     13  S   LIG A   1      -3.744   4.608 130.366  0.00  0.00    -0.133 S 
ATOM     14  C   LIG A   1      -3.133   6.249 130.789  0.00  0.00    +0.086 C 
ENDBRANCH   6  13
BRANCH   1  15
ATOM     15  C   LIG A   1      -7.620   3.198 126.335  0.00  0.00    +0.082 C 
BRANCH  15  16
ATOM     16  C   LIG A   1      -8.013   1.855 125.731  0.00  0.00    -0.044 A 
ATOM     17  C   LIG A   1      -8.858   0.952 126.387  0.00  0.00    +0.007 A 
ATOM     18  C   LIG A   1      -9.279  -0.224 125.745  0.00  0.00    +0.046 A 
ATOM     19  C   LIG A   1      -8.843  -0.526 124.453  0.00  0.00    +0.121 A 
ATOM     20  C   LIG A   1      -7.983   0.360 123.808  0.00  0.00    +0.046 A 
ATOM     21  C   LIG A   1      -7.564   1.529 124.444  0.00  0.00    +0.007 A 
BRANCH  19  22
ATOM     22  O   LIG A   1      -9.317  -1.695 123.911  0.00  0.00    -0.488 OA
BRANCH  22  23
ATOM     23  C   LIG A   1      -8.873  -2.887 124.562  0.00  0.00    +0.256 C 
BRANCH  23  24
ATOM     24  C   LIG A   1      -7.527  -3.281 124.033  0.00  0.00    +0.012 C 
ATOM     25  C   LIG A   1      -6.298  -3.080 124.548  0.00  0.00    -0.076 C 
ATOM     26  C   LIG A   1      -5.982  -2.259 125.766  0.00  0.00    +0.038 C 
ATOM     27  C   LIG A   1      -5.097  -3.685 123.870  0.00  0.00    +0.038 C 
ENDBRANCH  23  24
ENDBRANCH  22  23
ENDBRANCH  19  22
ENDBRANCH  15  16
ENDBRANCH   1  15
TORSDOF 7
ENDMDL
MODEL 9
REMARK VINA RESULT:      -5.9      2.115      2.603
REMARK  Name = NuBBE_1401
REMARK  13 active torsions:
REMARK  status: ('A' for Active; 'I' for Inactive)
REMARK    1  A    between atoms: C_1  and  C_2
REMARK    2  A    between atoms: C_1  and  C_17
REMARK    3  A    between atoms: C_2  and  S_3
REMARK    4  A    between atoms: S_3  and  C_4
REMARK    5  A    between atoms: N_7  and  C_8
REMARK    6  A    between atoms: C_9  and  S_15
REMARK    7  A    between atoms: N_13  and  C_14
REMARK    8  A    between atoms: S_15  and  C_16
REMARK    9  A    between atoms: C_20  and  O_23
REMARK   10  A    between atoms: O_23  and  C_24
REMARK   11  A    between atoms: C_24  and  C_25
REMARK   12  A    between atoms: C_26  and  C_27
REMARK   13  A    between atoms: C_26  and  C_28
REMARK                            x       y       z     vdW  Elec       q    Type
REMARK                         _______ _______ _______ _____ _____    ______ ____
ROOT
ATOM      1  C   LIG A   1      -5.386  -3.288 132.487  0.00  0.00    +0.164 C 
ATOM      2  C   LIG A   1      -3.886  -3.608 132.848  0.00  0.00    +0.251 C 
ATOM      3  O   LIG A   1      -3.012  -3.653 131.979  0.00  0.00    -0.272 OA
ATOM      4  N   LIG A   1      -3.569  -3.863 134.169  0.00  0.00    -0.282 N 
ATOM      5  C   LIG A   1      -2.217  -4.288 134.498  0.00  0.00    +0.134 C 
ATOM      6  C   LIG A   1      -4.456  -3.505 135.263  0.00  0.00    +0.220 C 
ATOM      7  C   LIG A   1      -5.950  -3.283 134.945  0.00  0.00    +0.248 C 
ATOM      8  O   LIG A   1      -6.765  -3.065 135.837  0.00  0.00    -0.273 OA
ATOM      9  N   LIG A   1      -6.349  -3.419 133.616  0.00  0.00    -0.280 N 
ATOM     10  C   LIG A   1      -7.771  -3.172 133.387  0.00  0.00    +0.134 C 
ENDROOT
BRANCH   1  11
ATOM     11  S   LIG A   1      -5.456  -1.478 131.935  0.00  0.00    -0.129 S 
ATOM     12  C   LIG A   1      -4.147  -0.678 132.913  0.00  0.00    +0.087 C 
ENDBRANCH   1  11
BRANCH   6  13
ATOM     13  S   LIG A   1      -3.796  -2.160 136.316  0.00  0.00    -0.133 S 
ATOM     14  C   LIG A   1      -3.550  -3.034 137.873  0.00  0.00    +0.086 C 
ENDBRANCH   6  13
BRANCH   1  15
ATOM     15  C   LIG A   1      -5.776  -4.250 131.319  0.00  0.00    +0.082 C 
BRANCH  15  16
ATOM     16  C   LIG A   1      -6.098  -3.581 129.989  0.00  0.00    -0.044 A 
ATOM     17  C   LIG A   1      -7.412  -3.372 129.551  0.00  0.00    +0.007 A 
ATOM     18  C   LIG A   1      -7.661  -2.654 128.370  0.00  0.00    +0.046 A 
ATOM     19  C   LIG A   1      -6.607  -2.157 127.600  0.00  0.00    +0.121 A 
ATOM     20  C   LIG A   1      -5.299  -2.385 128.022  0.00  0.00    +0.046 A 
ATOM     21  C   LIG A   1      -5.049  -3.098 129.196  0.00  0.00    +0.007 A 
BRANCH  19  22
ATOM     22  O   LIG A   1      -6.956  -1.464 126.468  0.00  0.00    -0.488 OA
BRANCH  22  23
ATOM     23  C   LIG A   1      -7.431  -2.269 125.388  0.00  0.00    +0.256 C 
BRANCH  23  24
ATOM     24  C   LIG A   1      -6.304  -3.089 124.834  0.00  0.00    +0.012 C 
ATOM     25  C   LIG A   1      -5.628  -2.965 123.675  0.00  0.00    -0.076 C 
ATOM     26  C   LIG A   1      -5.958  -2.007 122.566  0.00  0.00    +0.038 C 
ATOM     27  C   LIG A   1      -4.446  -3.859 123.403  0.00  0.00    +0.038 C 
ENDBRANCH  23  24
ENDBRANCH  22  23
ENDBRANCH  19  22
ENDBRANCH  15  16
ENDBRANCH   1  15
TORSDOF 7
ENDMDL
