MODEL 1
REMARK VINA RESULT:      -8.5      0.000      0.000
REMARK  Name = NuBBE_583
REMARK  6 active torsions:
REMARK  status: ('A' for Active; 'I' for Inactive)
REMARK    1  A    between atoms: O_1  and  C_2
REMARK    2  A    between atoms: C_5  and  C_7
REMARK    3  A    between atoms: C_7  and  C_8
REMARK    4  A    between atoms: C_17  and  C_22
REMARK    5  A    between atoms: C_19  and  O_21
REMARK    6  A    between atoms: C_23  and  C_24
REMARK                            x       y       z     vdW  Elec       q    Type
REMARK                         _______ _______ _______ _____ _____    ______ ____
ROOT
ATOM      1  C   LIG A   1      -7.672   2.499 126.756  0.00  0.00    +0.148 C 
ATOM      2  C   LIG A   1      -6.623   1.399 126.735  0.00  0.00    +0.065 C 
ATOM      3  C   LIG A   1      -6.780   0.444 125.549  0.00  0.00    +0.125 C 
ATOM      4  O   LIG A   1      -6.809   1.184 124.334  0.00  0.00    -0.366 OA
ATOM      5  C   LIG A   1      -7.851   2.162 124.232  0.00  0.00    +0.172 C 
ATOM      6  C   LIG A   1      -7.814   3.185 125.390  0.00  0.00    +0.175 C 
ENDROOT
BRANCH   1   7
ATOM      7  O   LIG A   1      -8.944   1.967 127.148  0.00  0.00    -0.389 OA
ATOM      8  H   LIG A   1      -9.029   1.088 126.733  0.00  0.00    +0.210 HD
ENDBRANCH   1   7
BRANCH   6   9
ATOM      9  O   LIG A   1      -9.013   3.978 125.410  0.00  0.00    -0.386 OA
ATOM     10  H   LIG A   1      -9.730   3.343 125.626  0.00  0.00    +0.210 HD
ENDBRANCH   6   9
BRANCH   5  11
ATOM     11  C   LIG A   1      -7.708   2.864 122.898  0.00  0.00    +0.007 C 
ATOM     12  C   LIG A   1      -6.560   3.336 122.378  0.00  0.00    +0.006 C 
BRANCH  12  13
ATOM     13  C   LIG A   1      -6.427   3.987 121.068  0.00  0.00    -0.025 A 
ATOM     14  C   LIG A   1      -7.495   3.911 120.162  0.00  0.00    +0.008 A 
ATOM     15  C   LIG A   1      -7.420   4.541 118.917  0.00  0.00    +0.001 A 
ATOM     16  C   LIG A   1      -6.282   5.263 118.568  0.00  0.00    +0.000 A 
ATOM     17  C   LIG A   1      -5.224   5.367 119.469  0.00  0.00    +0.001 A 
ATOM     18  C   LIG A   1      -5.300   4.739 120.714  0.00  0.00    +0.008 A 
ENDBRANCH  12  13
ENDBRANCH   5  11
BRANCH   3  19
ATOM     19  C   LIG A   1      -7.938  -0.563 125.650  0.00  0.00    +0.076 C 
BRANCH  19  20
ATOM     20  C   LIG A   1      -7.520  -2.036 125.446  0.00  0.00    +0.183 C 
ATOM     21  O   LIG A   1      -6.532  -2.093 124.376  0.00  0.00    -0.458 OA
ATOM     22  C   LIG A   1      -6.903  -2.169 123.074  0.00  0.00    +0.332 C 
ATOM     23  C   LIG A   1      -8.324  -2.470 122.803  0.00  0.00    +0.087 C 
ATOM     24  C   LIG A   1      -9.144  -2.895 123.770  0.00  0.00    -0.016 C 
ATOM     25  C   LIG A   1      -8.655  -3.026 125.174  0.00  0.00    +0.072 C 
ATOM     26  O   LIG A   1      -6.114  -2.019 122.151  0.00  0.00    -0.246 OA
ENDBRANCH  19  20
ENDBRANCH   3  19
TORSDOF 6
ENDMDL
MODEL 2
REMARK VINA RESULT:      -8.4      1.120      1.367
REMARK  Name = NuBBE_583
REMARK  6 active torsions:
REMARK  status: ('A' for Active; 'I' for Inactive)
REMARK    1  A    between atoms: O_1  and  C_2
REMARK    2  A    between atoms: C_5  and  C_7
REMARK    3  A    between atoms: C_7  and  C_8
REMARK    4  A    between atoms: C_17  and  C_22
REMARK    5  A    between atoms: C_19  and  O_21
REMARK    6  A    between atoms: C_23  and  C_24
REMARK                            x       y       z     vdW  Elec       q    Type
REMARK                         _______ _______ _______ _____ _____    ______ ____
ROOT
ATOM      1  C   LIG A   1      -7.843   2.322 126.585  0.00  0.00    +0.148 C 
ATOM      2  C   LIG A   1      -6.524   1.571 126.667  0.00  0.00    +0.065 C 
ATOM      3  C   LIG A   1      -6.243   0.717 125.427  0.00  0.00    +0.125 C 
ATOM      4  O   LIG A   1      -6.334   1.521 124.257  0.00  0.00    -0.366 OA
ATOM      5  C   LIG A   1      -7.595   2.169 124.050  0.00  0.00    +0.172 C 
ATOM      6  C   LIG A   1      -8.005   3.056 125.247  0.00  0.00    +0.175 C 
ENDROOT
BRANCH   1   7
ATOM      7  O   LIG A   1      -8.942   1.420 126.762  0.00  0.00    -0.389 OA
ATOM      8  H   LIG A   1      -8.617   0.672 127.299  0.00  0.00    +0.210 HD
ENDBRANCH   1   7
BRANCH   6   9
ATOM      9  O   LIG A   1      -9.376   3.472 125.128  0.00  0.00    -0.386 OA
ATOM     10  H   LIG A   1      -9.389   4.395 125.461  0.00  0.00    +0.210 HD
ENDBRANCH   6   9
BRANCH   5  11
ATOM     11  C   LIG A   1      -7.495   2.996 122.784  0.00  0.00    +0.007 C 
ATOM     12  C   LIG A   1      -6.377   3.199 122.064  0.00  0.00    +0.006 C 
BRANCH  12  13
ATOM     13  C   LIG A   1      -6.298   3.977 120.821  0.00  0.00    -0.025 A 
ATOM     14  C   LIG A   1      -7.356   3.896 119.904  0.00  0.00    +0.008 A 
ATOM     15  C   LIG A   1      -7.334   4.644 118.723  0.00  0.00    +0.001 A 
ATOM     16  C   LIG A   1      -6.259   5.486 118.451  0.00  0.00    +0.000 A 
ATOM     17  C   LIG A   1      -5.214   5.594 119.366  0.00  0.00    +0.001 A 
ATOM     18  C   LIG A   1      -5.237   4.850 120.548  0.00  0.00    +0.008 A 
ENDBRANCH  12  13
ENDBRANCH   5  11
BRANCH   3  19
ATOM     19  C   LIG A   1      -7.059  -0.581 125.311  0.00  0.00    +0.076 C 
BRANCH  19  20
ATOM     20  C   LIG A   1      -6.835  -1.357 123.993  0.00  0.00    +0.183 C 
ATOM     21  O   LIG A   1      -8.034  -1.232 123.173  0.00  0.00    -0.458 OA
ATOM     22  C   LIG A   1      -9.084  -2.077 123.323  0.00  0.00    +0.332 C 
ATOM     23  C   LIG A   1      -8.857  -3.283 124.145  0.00  0.00    +0.087 C 
ATOM     24  C   LIG A   1      -7.626  -3.657 124.510  0.00  0.00    -0.016 C 
ATOM     25  C   LIG A   1      -6.442  -2.829 124.139  0.00  0.00    +0.072 C 
ATOM     26  O   LIG A   1     -10.170  -1.880 122.797  0.00  0.00    -0.246 OA
ENDBRANCH  19  20
ENDBRANCH   3  19
TORSDOF 6
ENDMDL
MODEL 3
REMARK VINA RESULT:      -7.9      8.842     10.768
REMARK  Name = NuBBE_583
REMARK  6 active torsions:
REMARK  status: ('A' for Active; 'I' for Inactive)
REMARK    1  A    between atoms: O_1  and  C_2
REMARK    2  A    between atoms: C_5  and  C_7
REMARK    3  A    between atoms: C_7  and  C_8
REMARK    4  A    between atoms: C_17  and  C_22
REMARK    5  A    between atoms: C_19  and  O_21
REMARK    6  A    between atoms: C_23  and  C_24
REMARK                            x       y       z     vdW  Elec       q    Type
REMARK                         _______ _______ _______ _____ _____    ______ ____
ROOT
ATOM      1  C   LIG A   1      -9.563   4.766 132.384  0.00  0.00    +0.148 C 
ATOM      2  C   LIG A   1      -9.818   4.568 130.899  0.00  0.00    +0.065 C 
ATOM      3  C   LIG A   1      -9.336   5.744 130.045  0.00  0.00    +0.125 C 
ATOM      4  O   LIG A   1      -7.968   6.016 130.325  0.00  0.00    -0.366 OA
ATOM      5  C   LIG A   1      -7.668   6.330 131.691  0.00  0.00    +0.172 C 
ATOM      6  C   LIG A   1      -8.124   5.220 132.665  0.00  0.00    +0.175 C 
ENDROOT
BRANCH   1   7
ATOM      7  O   LIG A   1     -10.473   5.735 132.920  0.00  0.00    -0.389 OA
ATOM      8  H   LIG A   1     -10.120   6.014 133.786  0.00  0.00    +0.210 HD
ENDBRANCH   1   7
BRANCH   6   9
ATOM      9  O   LIG A   1      -8.056   5.677 134.027  0.00  0.00    -0.386 OA
ATOM     10  H   LIG A   1      -7.251   6.236 134.064  0.00  0.00    +0.210 HD
ENDBRANCH   6   9
BRANCH   5  11
ATOM     11  C   LIG A   1      -6.175   6.558 131.804  0.00  0.00    +0.007 C 
ATOM     12  C   LIG A   1      -5.240   5.597 131.914  0.00  0.00    +0.006 C 
BRANCH  12  13
ATOM     13  C   LIG A   1      -3.792   5.828 131.991  0.00  0.00    -0.025 A 
ATOM     14  C   LIG A   1      -3.307   7.137 131.856  0.00  0.00    +0.008 A 
ATOM     15  C   LIG A   1      -1.938   7.403 131.953  0.00  0.00    +0.001 A 
ATOM     16  C   LIG A   1      -1.041   6.366 132.195  0.00  0.00    +0.000 A 
ATOM     17  C   LIG A   1      -1.513   5.065 132.355  0.00  0.00    +0.001 A 
ATOM     18  C   LIG A   1      -2.881   4.799 132.261  0.00  0.00    +0.008 A 
ENDBRANCH  12  13
ENDBRANCH   5  11
BRANCH   3  19
ATOM     19  C   LIG A   1     -10.208   7.010 130.099  0.00  0.00    +0.076 C 
BRANCH  19  20
ATOM     20  C   LIG A   1     -11.728   6.738 130.033  0.00  0.00    +0.183 C 
ATOM     21  O   LIG A   1     -12.056   6.265 128.694  0.00  0.00    -0.458 OA
ATOM     22  C   LIG A   1     -12.313   7.130 127.682  0.00  0.00    +0.332 C 
ATOM     23  C   LIG A   1     -12.519   8.545 128.051  0.00  0.00    +0.087 C 
ATOM     24  C   LIG A   1     -12.697   8.916 129.324  0.00  0.00    -0.016 C 
ATOM     25  C   LIG A   1     -12.637   7.906 130.422  0.00  0.00    +0.072 C 
ATOM     26  O   LIG A   1     -12.395   6.775 126.514  0.00  0.00    -0.246 OA
ENDBRANCH  19  20
ENDBRANCH   3  19
TORSDOF 6
ENDMDL
MODEL 4
REMARK VINA RESULT:      -7.7      6.459      9.709
REMARK  Name = NuBBE_583
REMARK  6 active torsions:
REMARK  status: ('A' for Active; 'I' for Inactive)
REMARK    1  A    between atoms: O_1  and  C_2
REMARK    2  A    between atoms: C_5  and  C_7
REMARK    3  A    between atoms: C_7  and  C_8
REMARK    4  A    between atoms: C_17  and  C_22
REMARK    5  A    between atoms: C_19  and  O_21
REMARK    6  A    between atoms: C_23  and  C_24
REMARK                            x       y       z     vdW  Elec       q    Type
REMARK                         _______ _______ _______ _____ _____    ______ ____
ROOT
ATOM      1  C   LIG A   1      -7.292   6.246 131.352  0.00  0.00    +0.148 C 
ATOM      2  C   LIG A   1      -8.522   6.150 132.240  0.00  0.00    +0.065 C 
ATOM      3  C   LIG A   1      -9.773   5.695 131.484  0.00  0.00    +0.125 C 
ATOM      4  O   LIG A   1      -9.507   4.478 130.798  0.00  0.00    -0.366 OA
ATOM      5  C   LIG A   1      -8.431   4.525 129.851  0.00  0.00    +0.172 C 
ATOM      6  C   LIG A   1      -7.104   4.990 130.492  0.00  0.00    +0.175 C 
ENDROOT
BRANCH   1   7
ATOM      7  O   LIG A   1      -7.384   7.392 130.496  0.00  0.00    -0.389 OA
ATOM      8  H   LIG A   1      -6.504   7.525 130.097  0.00  0.00    +0.210 HD
ENDBRANCH   1   7
BRANCH   6   9
ATOM      9  O   LIG A   1      -6.125   5.283 129.480  0.00  0.00    -0.386 OA
ATOM     10  H   LIG A   1      -6.324   6.201 129.197  0.00  0.00    +0.210 HD
ENDBRANCH   6   9
BRANCH   5  11
ATOM     11  C   LIG A   1      -8.277   3.145 129.247  0.00  0.00    +0.007 C 
ATOM     12  C   LIG A   1      -8.009   2.015 129.928  0.00  0.00    +0.006 C 
BRANCH  12  13
ATOM     13  C   LIG A   1      -7.892   0.676 129.335  0.00  0.00    -0.025 A 
ATOM     14  C   LIG A   1      -7.876  -0.441 130.183  0.00  0.00    +0.008 A 
ATOM     15  C   LIG A   1      -7.796  -1.734 129.658  0.00  0.00    +0.001 A 
ATOM     16  C   LIG A   1      -7.742  -1.924 128.280  0.00  0.00    +0.000 A 
ATOM     17  C   LIG A   1      -7.782  -0.824 127.426  0.00  0.00    +0.001 A 
ATOM     18  C   LIG A   1      -7.865   0.468 127.951  0.00  0.00    +0.008 A 
ENDBRANCH  12  13
ENDBRANCH   5  11
BRANCH   3  19
ATOM     19  C   LIG A   1     -10.424   6.751 130.574  0.00  0.00    +0.076 C 
BRANCH  19  20
ATOM     20  C   LIG A   1     -11.942   6.557 130.360  0.00  0.00    +0.183 C 
ATOM     21  O   LIG A   1     -12.165   6.135 128.983  0.00  0.00    -0.458 OA
ATOM     22  C   LIG A   1     -12.285   7.036 127.977  0.00  0.00    +0.332 C 
ATOM     23  C   LIG A   1     -12.458   8.450 128.367  0.00  0.00    +0.087 C 
ATOM     24  C   LIG A   1     -12.736   8.797 129.629  0.00  0.00    -0.016 C 
ATOM     25  C   LIG A   1     -12.827   7.759 130.697  0.00  0.00    +0.072 C 
ATOM     26  O   LIG A   1     -12.275   6.715 126.797  0.00  0.00    -0.246 OA
ENDBRANCH  19  20
ENDBRANCH   3  19
TORSDOF 6
ENDMDL
MODEL 5
REMARK VINA RESULT:      -7.5      3.590      7.670
REMARK  Name = NuBBE_583
REMARK  6 active torsions:
REMARK  status: ('A' for Active; 'I' for Inactive)
REMARK    1  A    between atoms: O_1  and  C_2
REMARK    2  A    between atoms: C_5  and  C_7
REMARK    3  A    between atoms: C_7  and  C_8
REMARK    4  A    between atoms: C_17  and  C_22
REMARK    5  A    between atoms: C_19  and  O_21
REMARK    6  A    between atoms: C_23  and  C_24
REMARK                            x       y       z     vdW  Elec       q    Type
REMARK                         _______ _______ _______ _____ _____    ______ ____
ROOT
ATOM      1  C   LIG A   1      -5.958   4.588 124.363  0.00  0.00    +0.148 C 
ATOM      2  C   LIG A   1      -4.692   4.213 125.116  0.00  0.00    +0.065 C 
ATOM      3  C   LIG A   1      -4.973   3.499 126.442  0.00  0.00    +0.125 C 
ATOM      4  O   LIG A   1      -5.818   2.378 126.217  0.00  0.00    -0.366 OA
ATOM      5  C   LIG A   1      -7.085   2.671 125.615  0.00  0.00    +0.172 C 
ATOM      6  C   LIG A   1      -6.940   3.413 124.267  0.00  0.00    +0.175 C 
ENDROOT
BRANCH   1   7
ATOM      7  O   LIG A   1      -6.609   5.693 125.003  0.00  0.00    -0.389 OA
ATOM      8  H   LIG A   1      -5.952   6.410 125.078  0.00  0.00    +0.210 HD
ENDBRANCH   1   7
BRANCH   6   9
ATOM      9  O   LIG A   1      -8.209   3.925 123.826  0.00  0.00    -0.386 OA
ATOM     10  H   LIG A   1      -8.129   4.899 123.910  0.00  0.00    +0.210 HD
ENDBRANCH   6   9
BRANCH   5  11
ATOM     11  C   LIG A   1      -7.829   1.365 125.426  0.00  0.00    +0.007 C 
ATOM     12  C   LIG A   1      -7.415   0.326 124.677  0.00  0.00    +0.006 C 
BRANCH  12  13
ATOM     13  C   LIG A   1      -8.129  -0.948 124.526  0.00  0.00    -0.025 A 
ATOM     14  C   LIG A   1      -8.213  -1.531 123.253  0.00  0.00    +0.008 A 
ATOM     15  C   LIG A   1      -8.858  -2.758 123.073  0.00  0.00    +0.001 A 
ATOM     16  C   LIG A   1      -9.417  -3.419 124.163  0.00  0.00    +0.000 A 
ATOM     17  C   LIG A   1      -9.319  -2.862 125.436  0.00  0.00    +0.001 A 
ATOM     18  C   LIG A   1      -8.672  -1.638 125.617  0.00  0.00    +0.008 A 
ENDBRANCH  12  13
ENDBRANCH   5  11
BRANCH   3  19
ATOM     19  C   LIG A   1      -5.477   4.393 127.588  0.00  0.00    +0.076 C 
BRANCH  19  20
ATOM     20  C   LIG A   1      -4.563   4.405 128.834  0.00  0.00    +0.183 C 
ATOM     21  O   LIG A   1      -4.858   5.602 129.613  0.00  0.00    -0.458 OA
ATOM     22  C   LIG A   1      -4.258   6.787 129.341  0.00  0.00    +0.332 C 
ATOM     23  C   LIG A   1      -3.104   6.754 128.419  0.00  0.00    +0.087 C 
ATOM     24  C   LIG A   1      -2.522   5.601 128.071  0.00  0.00    -0.016 C 
ATOM     25  C   LIG A   1      -3.060   4.301 128.567  0.00  0.00    +0.072 C 
ATOM     26  O   LIG A   1      -4.624   7.842 129.839  0.00  0.00    -0.246 OA
ENDBRANCH  19  20
ENDBRANCH   3  19
TORSDOF 6
ENDMDL
MODEL 6
REMARK VINA RESULT:      -7.4      3.228      8.180
REMARK  Name = NuBBE_583
REMARK  6 active torsions:
REMARK  status: ('A' for Active; 'I' for Inactive)
REMARK    1  A    between atoms: O_1  and  C_2
REMARK    2  A    between atoms: C_5  and  C_7
REMARK    3  A    between atoms: C_7  and  C_8
REMARK    4  A    between atoms: C_17  and  C_22
REMARK    5  A    between atoms: C_19  and  O_21
REMARK    6  A    between atoms: C_23  and  C_24
REMARK                            x       y       z     vdW  Elec       q    Type
REMARK                         _______ _______ _______ _____ _____    ______ ____
ROOT
ATOM      1  C   LIG A   1      -8.689  -2.520 123.441  0.00  0.00    +0.148 C 
ATOM      2  C   LIG A   1      -7.543  -1.672 122.915  0.00  0.00    +0.065 C 
ATOM      3  C   LIG A   1      -7.452  -0.301 123.591  0.00  0.00    +0.125 C 
ATOM      4  O   LIG A   1      -7.399  -0.462 125.003  0.00  0.00    -0.366 OA
ATOM      5  C   LIG A   1      -8.511  -1.152 125.588  0.00  0.00    +0.172 C 
ATOM      6  C   LIG A   1      -8.722  -2.555 124.975  0.00  0.00    +0.175 C 
ENDROOT
BRANCH   1   7
ATOM      7  O   LIG A   1      -9.942  -2.021 122.956  0.00  0.00    -0.389 OA
ATOM      8  H   LIG A   1     -10.255  -2.645 122.274  0.00  0.00    +0.210 HD
ENDBRANCH   1   7
BRANCH   6   9
ATOM      9  O   LIG A   1      -9.986  -3.105 125.384  0.00  0.00    -0.386 OA
ATOM     10  H   LIG A   1     -10.599  -2.339 125.399  0.00  0.00    +0.210 HD
ENDBRANCH   6   9
BRANCH   5  11
ATOM     11  C   LIG A   1      -8.267  -1.253 127.080  0.00  0.00    +0.007 C 
ATOM     12  C   LIG A   1      -7.851  -2.352 127.735  0.00  0.00    +0.006 C 
BRANCH  12  13
ATOM     13  C   LIG A   1      -7.588  -2.431 129.178  0.00  0.00    -0.025 A 
ATOM     14  C   LIG A   1      -6.837  -3.507 129.672  0.00  0.00    +0.008 A 
ATOM     15  C   LIG A   1      -6.539  -3.603 131.034  0.00  0.00    +0.001 A 
ATOM     16  C   LIG A   1      -6.981  -2.619 131.915  0.00  0.00    +0.000 A 
ATOM     17  C   LIG A   1      -7.707  -1.532 131.433  0.00  0.00    +0.001 A 
ATOM     18  C   LIG A   1      -8.002  -1.435 130.071  0.00  0.00    +0.008 A 
ENDBRANCH  12  13
ENDBRANCH   5  11
BRANCH   3  19
ATOM     19  C   LIG A   1      -8.510   0.729 123.157  0.00  0.00    +0.076 C 
BRANCH  19  20
ATOM     20  C   LIG A   1      -8.190   2.182 123.573  0.00  0.00    +0.183 C 
ATOM     21  O   LIG A   1      -8.922   3.087 122.695  0.00  0.00    -0.458 OA
ATOM     22  C   LIG A   1      -8.416   3.472 121.497  0.00  0.00    +0.332 C 
ATOM     23  C   LIG A   1      -6.993   3.165 121.244  0.00  0.00    +0.087 C 
ATOM     24  C   LIG A   1      -6.181   2.764 122.228  0.00  0.00    -0.016 C 
ATOM     25  C   LIG A   1      -6.708   2.560 123.610  0.00  0.00    +0.072 C 
ATOM     26  O   LIG A   1      -9.081   4.063 120.658  0.00  0.00    -0.246 OA
ENDBRANCH  19  20
ENDBRANCH   3  19
TORSDOF 6
ENDMDL
MODEL 7
REMARK VINA RESULT:      -7.2      3.501      5.873
REMARK  Name = NuBBE_583
REMARK  6 active torsions:
REMARK  status: ('A' for Active; 'I' for Inactive)
REMARK    1  A    between atoms: O_1  and  C_2
REMARK    2  A    between atoms: C_5  and  C_7
REMARK    3  A    between atoms: C_7  and  C_8
REMARK    4  A    between atoms: C_17  and  C_22
REMARK    5  A    between atoms: C_19  and  O_21
REMARK    6  A    between atoms: C_23  and  C_24
REMARK                            x       y       z     vdW  Elec       q    Type
REMARK                         _______ _______ _______ _____ _____    ______ ____
ROOT
ATOM      1  C   LIG A   1      -7.058   3.320 122.836  0.00  0.00    +0.148 C 
ATOM      2  C   LIG A   1      -8.089   2.473 123.564  0.00  0.00    +0.065 C 
ATOM      3  C   LIG A   1      -7.485   1.630 124.690  0.00  0.00    +0.125 C 
ATOM      4  O   LIG A   1      -6.751   2.465 125.577  0.00  0.00    -0.366 OA
ATOM      5  C   LIG A   1      -5.680   3.208 124.981  0.00  0.00    +0.172 C 
ATOM      6  C   LIG A   1      -6.160   4.095 123.810  0.00  0.00    +0.175 C 
ENDROOT
BRANCH   1   7
ATOM      7  O   LIG A   1      -6.240   2.496 121.996  0.00  0.00    -0.389 OA
ATOM      8  H   LIG A   1      -5.559   2.092 122.565  0.00  0.00    +0.210 HD
ENDBRANCH   1   7
BRANCH   6   9
ATOM      9  O   LIG A   1      -5.041   4.612 123.071  0.00  0.00    -0.386 OA
ATOM     10  H   LIG A   1      -5.398   5.384 122.582  0.00  0.00    +0.210 HD
ENDBRANCH   6   9
BRANCH   5  11
ATOM     11  C   LIG A   1      -5.039   4.054 126.062  0.00  0.00    +0.007 C 
ATOM     12  C   LIG A   1      -4.206   3.607 127.019  0.00  0.00    +0.006 C 
BRANCH  12  13
ATOM     13  C   LIG A   1      -3.564   4.442 128.043  0.00  0.00    -0.025 A 
ATOM     14  C   LIG A   1      -3.592   4.016 129.379  0.00  0.00    +0.008 A 
ATOM     15  C   LIG A   1      -2.968   4.767 130.379  0.00  0.00    +0.001 A 
ATOM     16  C   LIG A   1      -2.301   5.945 130.053  0.00  0.00    +0.000 A 
ATOM     17  C   LIG A   1      -2.246   6.366 128.727  0.00  0.00    +0.001 A 
ATOM     18  C   LIG A   1      -2.867   5.615 127.726  0.00  0.00    +0.008 A 
ENDBRANCH  12  13
ENDBRANCH   5  11
BRANCH   3  19
ATOM     19  C   LIG A   1      -6.680   0.397 124.244  0.00  0.00    +0.076 C 
BRANCH  19  20
ATOM     20  C   LIG A   1      -7.438  -0.542 123.278  0.00  0.00    +0.183 C 
ATOM     21  O   LIG A   1      -8.680  -0.959 123.917  0.00  0.00    -0.458 OA
ATOM     22  C   LIG A   1      -8.722  -2.025 124.754  0.00  0.00    +0.332 C 
ATOM     23  C   LIG A   1      -7.533  -2.902 124.774  0.00  0.00    +0.087 C 
ATOM     24  C   LIG A   1      -6.578  -2.805 123.843  0.00  0.00    -0.016 C 
ATOM     25  C   LIG A   1      -6.661  -1.762 122.779  0.00  0.00    +0.072 C 
ATOM     26  O   LIG A   1      -9.692  -2.279 125.453  0.00  0.00    -0.246 OA
ENDBRANCH  19  20
ENDBRANCH   3  19
TORSDOF 6
ENDMDL
MODEL 8
REMARK VINA RESULT:      -7.1      2.840      6.542
REMARK  Name = NuBBE_583
REMARK  6 active torsions:
REMARK  status: ('A' for Active; 'I' for Inactive)
REMARK    1  A    between atoms: O_1  and  C_2
REMARK    2  A    between atoms: C_5  and  C_7
REMARK    3  A    between atoms: C_7  and  C_8
REMARK    4  A    between atoms: C_17  and  C_22
REMARK    5  A    between atoms: C_19  and  O_21
REMARK    6  A    between atoms: C_23  and  C_24
REMARK                            x       y       z     vdW  Elec       q    Type
REMARK                         _______ _______ _______ _____ _____    ______ ____
ROOT
ATOM      1  C   LIG A   1      -8.824   2.509 123.142  0.00  0.00    +0.148 C 
ATOM      2  C   LIG A   1      -9.258   1.064 122.960  0.00  0.00    +0.065 C 
ATOM      3  C   LIG A   1      -8.522   0.096 123.891  0.00  0.00    +0.125 C 
ATOM      4  O   LIG A   1      -8.650   0.531 125.239  0.00  0.00    -0.366 OA
ATOM      5  C   LIG A   1      -8.151   1.847 125.513  0.00  0.00    +0.172 C 
ATOM      6  C   LIG A   1      -8.808   2.924 124.620  0.00  0.00    +0.175 C 
ENDROOT
BRANCH   1   7
ATOM      7  O   LIG A   1      -7.520   2.712 122.583  0.00  0.00    -0.389 OA
ATOM      8  H   LIG A   1      -7.610   2.650 121.613  0.00  0.00    +0.210 HD
ENDBRANCH   1   7
BRANCH   6   9
ATOM      9  O   LIG A   1      -8.104   4.173 124.726  0.00  0.00    -0.386 OA
ATOM     10  H   LIG A   1      -8.275   4.480 125.643  0.00  0.00    +0.210 HD
ENDBRANCH   6   9
BRANCH   5  11
ATOM     11  C   LIG A   1      -8.397   2.147 126.977  0.00  0.00    +0.007 C 
ATOM     12  C   LIG A   1      -8.358   1.251 127.980  0.00  0.00    +0.006 C 
BRANCH  12  13
ATOM     13  C   LIG A   1      -8.567   1.559 129.401  0.00  0.00    -0.025 A 
ATOM     14  C   LIG A   1      -9.133   2.794 129.750  0.00  0.00    +0.008 A 
ATOM     15  C   LIG A   1      -9.376   3.114 131.088  0.00  0.00    +0.001 A 
ATOM     16  C   LIG A   1      -9.067   2.199 132.091  0.00  0.00    +0.000 A 
ATOM     17  C   LIG A   1      -8.528   0.959 131.756  0.00  0.00    +0.001 A 
ATOM     18  C   LIG A   1      -8.287   0.638 130.418  0.00  0.00    +0.008 A 
ENDBRANCH  12  13
ENDBRANCH   5  11
BRANCH   3  19
ATOM     19  C   LIG A   1      -7.064  -0.217 123.512  0.00  0.00    +0.076 C 
BRANCH  19  20
ATOM     20  C   LIG A   1      -6.887  -1.507 122.679  0.00  0.00    +0.183 C 
ATOM     21  O   LIG A   1      -8.194  -2.128 122.503  0.00  0.00    -0.458 OA
ATOM     22  C   LIG A   1      -8.707  -2.972 123.432  0.00  0.00    +0.332 C 
ATOM     23  C   LIG A   1      -7.783  -3.448 124.482  0.00  0.00    +0.087 C 
ATOM     24  C   LIG A   1      -6.461  -3.268 124.383  0.00  0.00    -0.016 C 
ATOM     25  C   LIG A   1      -5.883  -2.526 123.224  0.00  0.00    +0.072 C 
ATOM     26  O   LIG A   1      -9.870  -3.349 123.412  0.00  0.00    -0.246 OA
ENDBRANCH  19  20
ENDBRANCH   3  19
TORSDOF 6
ENDMDL
MODEL 9
REMARK VINA RESULT:      -7.1      3.400      8.579
REMARK  Name = NuBBE_583
REMARK  6 active torsions:
REMARK  status: ('A' for Active; 'I' for Inactive)
REMARK    1  A    between atoms: O_1  and  C_2
REMARK    2  A    between atoms: C_5  and  C_7
REMARK    3  A    between atoms: C_7  and  C_8
REMARK    4  A    between atoms: C_17  and  C_22
REMARK    5  A    between atoms: C_19  and  O_21
REMARK    6  A    between atoms: C_23  and  C_24
REMARK                            x       y       z     vdW  Elec       q    Type
REMARK                         _______ _______ _______ _____ _____    ______ ____
ROOT
ATOM      1  C   LIG A   1      -8.720  -2.114 123.744  0.00  0.00    +0.148 C 
ATOM      2  C   LIG A   1      -7.357  -1.558 123.363  0.00  0.00    +0.065 C 
ATOM      3  C   LIG A   1      -6.765  -0.637 124.434  0.00  0.00    +0.125 C 
ATOM      4  O   LIG A   1      -6.743  -1.307 125.688  0.00  0.00    -0.366 OA
ATOM      5  C   LIG A   1      -8.015  -1.757 126.171  0.00  0.00    +0.172 C 
ATOM      6  C   LIG A   1      -8.729  -2.690 125.166  0.00  0.00    +0.175 C 
ENDROOT
BRANCH   1   7
ATOM      7  O   LIG A   1      -9.720  -1.093 123.644  0.00  0.00    -0.389 OA
ATOM      8  H   LIG A   1     -10.125  -1.171 122.760  0.00  0.00    +0.210 HD
ENDBRANCH   1   7
BRANCH   6   9
ATOM      9  O   LIG A   1     -10.097  -2.904 125.553  0.00  0.00    -0.386 OA
ATOM     10  H   LIG A   1     -10.420  -3.610 124.953  0.00  0.00    +0.210 HD
ENDBRANCH   6   9
BRANCH   5  11
ATOM     11  C   LIG A   1      -7.792  -2.467 127.490  0.00  0.00    +0.007 C 
ATOM     12  C   LIG A   1      -6.959  -2.065 128.468  0.00  0.00    +0.006 C 
BRANCH  12  13
ATOM     13  C   LIG A   1      -6.774  -2.744 129.757  0.00  0.00    -0.025 A 
ATOM     14  C   LIG A   1      -5.827  -3.774 129.850  0.00  0.00    +0.008 A 
ATOM     15  C   LIG A   1      -5.599  -4.425 131.065  0.00  0.00    +0.001 A 
ATOM     16  C   LIG A   1      -6.309  -4.047 132.202  0.00  0.00    +0.000 A 
ATOM     17  C   LIG A   1      -7.234  -3.009 132.129  0.00  0.00    +0.001 A 
ATOM     18  C   LIG A   1      -7.460  -2.356 130.914  0.00  0.00    +0.008 A 
ENDBRANCH  12  13
ENDBRANCH   5  11
BRANCH   3  19
ATOM     19  C   LIG A   1      -7.392   0.765 124.529  0.00  0.00    +0.076 C 
BRANCH  19  20
ATOM     20  C   LIG A   1      -6.947   1.577 125.766  0.00  0.00    +0.183 C 
ATOM     21  O   LIG A   1      -7.951   2.599 126.034  0.00  0.00    -0.458 OA
ATOM     22  C   LIG A   1      -7.918   3.804 125.412  0.00  0.00    +0.332 C 
ATOM     23  C   LIG A   1      -6.684   4.137 124.672  0.00  0.00    +0.087 C 
ATOM     24  C   LIG A   1      -5.567   3.414 124.814  0.00  0.00    -0.016 C 
ATOM     25  C   LIG A   1      -5.554   2.207 125.691  0.00  0.00    +0.072 C 
ATOM     26  O   LIG A   1      -8.845   4.600 125.463  0.00  0.00    -0.246 OA
ENDBRANCH  19  20
ENDBRANCH   3  19
TORSDOF 6
ENDMDL
