MODEL 1
REMARK VINA RESULT:      -7.1      0.000      0.000
REMARK  Name = NuBBE_2221
REMARK  15 active torsions:
REMARK  status: ('A' for Active; 'I' for Inactive)
REMARK    1  A    between atoms: C_1  and  C_3
REMARK    2  A    between atoms: C_1  and  C_17
REMARK    3  A    between atoms: C_3  and  O_4
REMARK    4  A    between atoms: C_3  and  C_16
REMARK    5  A    between atoms: O_4  and  C_5
REMARK    6  A    between atoms: C_6  and  O_7
REMARK    7  A    between atoms: O_7  and  C_8
REMARK    8  A    between atoms: C_10  and  C_13
REMARK    9  A    between atoms: C_14  and  C_15
REMARK   10  A    between atoms: C_19  and  O_20
REMARK   11  A    between atoms: O_20  and  C_21
REMARK   12  A    between atoms: C_22  and  O_27
REMARK   13  A    between atoms: C_23  and  O_25
REMARK   14  A    between atoms: O_25  and  C_26
REMARK   15  A    between atoms: O_27  and  C_28
REMARK                            x       y       z     vdW  Elec       q    Type
REMARK                         _______ _______ _______ _____ _____    ______ ____
ROOT
ATOM      1  C   LIG A   1      -9.177  -0.396 123.408  0.00  0.00    +0.203 C 
ATOM      2  O   LIG A   1      -9.969  -0.410 122.483  0.00  0.00    -0.288 OA
ENDROOT
BRANCH   1   3
ATOM      3  C   LIG A   1      -8.495   0.927 123.699  0.00  0.00    +0.028 A 
ATOM      4  C   LIG A   1      -8.740   1.662 124.854  0.00  0.00    +0.061 A 
ATOM      5  C   LIG A   1      -8.083   2.887 125.090  0.00  0.00    +0.166 A 
ATOM      6  C   LIG A   1      -7.154   3.399 124.153  0.00  0.00    +0.203 A 
ATOM      7  C   LIG A   1      -6.880   2.653 122.983  0.00  0.00    +0.166 A 
ATOM      8  C   LIG A   1      -7.530   1.413 122.790  0.00  0.00    +0.061 A 
BRANCH   5   9
ATOM      9  O   LIG A   1      -8.517   3.494 126.249  0.00  0.00    -0.491 OA
ATOM     10  C   LIG A   1      -7.907   3.142 127.488  0.00  0.00    +0.277 C 
ENDBRANCH   5   9
BRANCH   7  11
ATOM     11  O   LIG A   1      -5.939   3.139 122.104  0.00  0.00    -0.491 OA
ATOM     12  C   LIG A   1      -6.394   3.804 120.924  0.00  0.00    +0.277 C 
ENDBRANCH   7  11
BRANCH   6  13
ATOM     13  O   LIG A   1      -6.531   4.563 124.513  0.00  0.00    -0.488 OA
ATOM     14  C   LIG A   1      -5.320   4.561 125.248  0.00  0.00    +0.277 C 
ENDBRANCH   6  13
ENDBRANCH   1   3
BRANCH   1  15
ATOM     15  C   LIG A   1      -8.815  -1.706 124.213  0.00  0.00    +0.241 C 
ATOM     16  C   LIG A   1      -9.216  -2.941 123.387  0.00  0.00    +0.061 C 
BRANCH  15  17
ATOM     17  O   LIG A   1      -9.461  -1.790 125.480  0.00  0.00    -0.478 OA
BRANCH  17  18
ATOM     18  C   LIG A   1      -8.857  -2.329 126.590  0.00  0.00    +0.163 A 
ATOM     19  C   LIG A   1      -7.867  -1.560 127.231  0.00  0.00    +0.162 A 
ATOM     20  C   LIG A   1      -7.346  -1.954 128.488  0.00  0.00    +0.057 A 
ATOM     21  C   LIG A   1      -7.683  -3.195 129.050  0.00  0.00    -0.022 A 
ATOM     22  C   LIG A   1      -8.608  -3.984 128.355  0.00  0.00    +0.012 A 
ATOM     23  C   LIG A   1      -9.172  -3.570 127.138  0.00  0.00    +0.050 A 
BRANCH  21  24
ATOM     24  C   LIG A   1      -7.044  -3.678 130.298  0.00  0.00    +0.003 C 
ATOM     25  C   LIG A   1      -5.902  -4.393 130.303  0.00  0.00    -0.030 C 
ATOM     26  C   LIG A   1      -5.141  -4.847 131.506  0.00  0.00    +0.035 C 
ENDBRANCH  21  24
BRANCH  19  27
ATOM     27  O   LIG A   1      -7.371  -0.377 126.730  0.00  0.00    -0.491 OA
ATOM     28  C   LIG A   1      -5.990  -0.399 126.348  0.00  0.00    +0.277 C 
ENDBRANCH  19  27
ENDBRANCH  17  18
ENDBRANCH  15  17
ENDBRANCH   1  15
TORSDOF 9
ENDMDL
MODEL 2
REMARK VINA RESULT:      -7.1      2.090      3.707
REMARK  Name = NuBBE_2221
REMARK  15 active torsions:
REMARK  status: ('A' for Active; 'I' for Inactive)
REMARK    1  A    between atoms: C_1  and  C_3
REMARK    2  A    between atoms: C_1  and  C_17
REMARK    3  A    between atoms: C_3  and  O_4
REMARK    4  A    between atoms: C_3  and  C_16
REMARK    5  A    between atoms: O_4  and  C_5
REMARK    6  A    between atoms: C_6  and  O_7
REMARK    7  A    between atoms: O_7  and  C_8
REMARK    8  A    between atoms: C_10  and  C_13
REMARK    9  A    between atoms: C_14  and  C_15
REMARK   10  A    between atoms: C_19  and  O_20
REMARK   11  A    between atoms: O_20  and  C_21
REMARK   12  A    between atoms: C_22  and  O_27
REMARK   13  A    between atoms: C_23  and  O_25
REMARK   14  A    between atoms: O_25  and  C_26
REMARK   15  A    between atoms: O_27  and  C_28
REMARK                            x       y       z     vdW  Elec       q    Type
REMARK                         _______ _______ _______ _____ _____    ______ ____
ROOT
ATOM      1  C   LIG A   1      -6.979  -1.355 123.708  0.00  0.00    +0.203 C 
ATOM      2  O   LIG A   1      -7.650  -1.952 122.886  0.00  0.00    -0.288 OA
ENDROOT
BRANCH   1   3
ATOM      3  C   LIG A   1      -7.421   0.054 124.053  0.00  0.00    +0.028 A 
ATOM      4  C   LIG A   1      -7.233   1.133 123.196  0.00  0.00    +0.061 A 
ATOM      5  C   LIG A   1      -7.660   2.429 123.552  0.00  0.00    +0.166 A 
ATOM      6  C   LIG A   1      -8.293   2.662 124.796  0.00  0.00    +0.203 A 
ATOM      7  C   LIG A   1      -8.509   1.571 125.670  0.00  0.00    +0.166 A 
ATOM      8  C   LIG A   1      -8.099   0.279 125.271  0.00  0.00    +0.061 A 
BRANCH   5   9
ATOM      9  O   LIG A   1      -7.317   3.368 122.604  0.00  0.00    -0.491 OA
ATOM     10  C   LIG A   1      -5.972   3.836 122.545  0.00  0.00    +0.277 C 
ENDBRANCH   5   9
BRANCH   7  11
ATOM     11  O   LIG A   1      -9.169   1.805 126.855  0.00  0.00    -0.491 OA
ATOM     12  C   LIG A   1      -8.390   2.019 128.033  0.00  0.00    +0.277 C 
ENDBRANCH   7  11
BRANCH   6  13
ATOM     13  O   LIG A   1      -8.722   3.944 125.010  0.00  0.00    -0.488 OA
ATOM     14  C   LIG A   1      -7.929   4.887 125.709  0.00  0.00    +0.277 C 
ENDBRANCH   6  13
ENDBRANCH   1   3
BRANCH   1  15
ATOM     15  C   LIG A   1      -5.667  -1.983 124.325  0.00  0.00    +0.241 C 
ATOM     16  C   LIG A   1      -4.941  -2.809 123.248  0.00  0.00    +0.061 C 
BRANCH  15  17
ATOM     17  O   LIG A   1      -5.916  -2.829 125.444  0.00  0.00    -0.478 OA
BRANCH  17  18
ATOM     18  C   LIG A   1      -6.387  -2.357 126.645  0.00  0.00    +0.163 A 
ATOM     19  C   LIG A   1      -7.625  -2.851 127.098  0.00  0.00    +0.162 A 
ATOM     20  C   LIG A   1      -8.078  -2.571 128.411  0.00  0.00    +0.057 A 
ATOM     21  C   LIG A   1      -7.387  -1.669 129.234  0.00  0.00    -0.022 A 
ATOM     22  C   LIG A   1      -6.199  -1.122 128.732  0.00  0.00    +0.012 A 
ATOM     23  C   LIG A   1      -5.716  -1.444 127.454  0.00  0.00    +0.050 A 
BRANCH  21  24
ATOM     24  C   LIG A   1      -7.921  -1.264 130.558  0.00  0.00    +0.003 C 
ATOM     25  C   LIG A   1      -8.346  -0.014 130.821  0.00  0.00    -0.030 C 
ATOM     26  C   LIG A   1      -8.977   0.464 132.089  0.00  0.00    +0.035 C 
ENDBRANCH  21  24
BRANCH  19  27
ATOM     27  O   LIG A   1      -8.451  -3.657 126.347  0.00  0.00    -0.491 OA
ATOM     28  C   LIG A   1      -9.578  -3.004 125.751  0.00  0.00    +0.277 C 
ENDBRANCH  19  27
ENDBRANCH  17  18
ENDBRANCH  15  17
ENDBRANCH   1  15
TORSDOF 9
ENDMDL
MODEL 3
REMARK VINA RESULT:      -7.1      2.087      2.881
REMARK  Name = NuBBE_2221
REMARK  15 active torsions:
REMARK  status: ('A' for Active; 'I' for Inactive)
REMARK    1  A    between atoms: C_1  and  C_3
REMARK    2  A    between atoms: C_1  and  C_17
REMARK    3  A    between atoms: C_3  and  O_4
REMARK    4  A    between atoms: C_3  and  C_16
REMARK    5  A    between atoms: O_4  and  C_5
REMARK    6  A    between atoms: C_6  and  O_7
REMARK    7  A    between atoms: O_7  and  C_8
REMARK    8  A    between atoms: C_10  and  C_13
REMARK    9  A    between atoms: C_14  and  C_15
REMARK   10  A    between atoms: C_19  and  O_20
REMARK   11  A    between atoms: O_20  and  C_21
REMARK   12  A    between atoms: C_22  and  O_27
REMARK   13  A    between atoms: C_23  and  O_25
REMARK   14  A    between atoms: O_25  and  C_26
REMARK   15  A    between atoms: O_27  and  C_28
REMARK                            x       y       z     vdW  Elec       q    Type
REMARK                         _______ _______ _______ _____ _____    ______ ____
ROOT
ATOM      1  C   LIG A   1      -6.963  -1.369 123.623  0.00  0.00    +0.203 C 
ATOM      2  O   LIG A   1      -7.623  -1.976 122.800  0.00  0.00    -0.288 OA
ENDROOT
BRANCH   1   3
ATOM      3  C   LIG A   1      -7.392   0.054 123.924  0.00  0.00    +0.028 A 
ATOM      4  C   LIG A   1      -8.071   0.406 125.085  0.00  0.00    +0.061 A 
ATOM      5  C   LIG A   1      -8.450   1.743 125.330  0.00  0.00    +0.166 A 
ATOM      6  C   LIG A   1      -8.148   2.760 124.395  0.00  0.00    +0.203 A 
ATOM      7  C   LIG A   1      -7.441   2.421 123.218  0.00  0.00    +0.166 A 
ATOM      8  C   LIG A   1      -7.046   1.079 123.016  0.00  0.00    +0.061 A 
BRANCH   5   9
ATOM      9  O   LIG A   1      -9.175   1.871 126.496  0.00  0.00    -0.491 OA
ATOM     10  C   LIG A   1      -8.551   1.563 127.739  0.00  0.00    +0.277 C 
ENDBRANCH   5   9
BRANCH   7  11
ATOM     11  O   LIG A   1      -7.112   3.429 122.340  0.00  0.00    -0.491 OA
ATOM     12  C   LIG A   1      -5.792   3.974 122.400  0.00  0.00    +0.277 C 
ENDBRANCH   7  11
BRANCH   6  13
ATOM     13  O   LIG A   1      -8.508   4.028 124.763  0.00  0.00    -0.488 OA
ATOM     14  C   LIG A   1      -7.682   4.825 125.594  0.00  0.00    +0.277 C 
ENDBRANCH   6  13
ENDBRANCH   1   3
BRANCH   1  15
ATOM     15  C   LIG A   1      -5.674  -1.999 124.285  0.00  0.00    +0.241 C 
ATOM     16  C   LIG A   1      -4.913  -2.828 123.235  0.00  0.00    +0.061 C 
BRANCH  15  17
ATOM     17  O   LIG A   1      -5.963  -2.845 125.395  0.00  0.00    -0.478 OA
BRANCH  17  18
ATOM     18  C   LIG A   1      -6.392  -2.361 126.607  0.00  0.00    +0.163 A 
ATOM     19  C   LIG A   1      -7.626  -2.832 127.096  0.00  0.00    +0.162 A 
ATOM     20  C   LIG A   1      -8.038  -2.541 128.420  0.00  0.00    +0.057 A 
ATOM     21  C   LIG A   1      -7.309  -1.650 129.221  0.00  0.00    -0.022 A 
ATOM     22  C   LIG A   1      -6.126  -1.126 128.686  0.00  0.00    +0.012 A 
ATOM     23  C   LIG A   1      -5.683  -1.459 127.396  0.00  0.00    +0.050 A 
BRANCH  21  24
ATOM     24  C   LIG A   1      -7.799  -1.233 130.558  0.00  0.00    +0.003 C 
ATOM     25  C   LIG A   1      -8.337  -0.021 130.792  0.00  0.00    -0.030 C 
ATOM     26  C   LIG A   1      -8.934   0.455 132.076  0.00  0.00    +0.035 C 
ENDBRANCH  21  24
BRANCH  19  27
ATOM     27  O   LIG A   1      -8.487  -3.625 126.370  0.00  0.00    -0.491 OA
ATOM     28  C   LIG A   1      -9.557  -2.936 125.713  0.00  0.00    +0.277 C 
ENDBRANCH  19  27
ENDBRANCH  17  18
ENDBRANCH  15  17
ENDBRANCH   1  15
TORSDOF 9
ENDMDL
MODEL 4
REMARK VINA RESULT:      -7.0      1.294      2.481
REMARK  Name = NuBBE_2221
REMARK  15 active torsions:
REMARK  status: ('A' for Active; 'I' for Inactive)
REMARK    1  A    between atoms: C_1  and  C_3
REMARK    2  A    between atoms: C_1  and  C_17
REMARK    3  A    between atoms: C_3  and  O_4
REMARK    4  A    between atoms: C_3  and  C_16
REMARK    5  A    between atoms: O_4  and  C_5
REMARK    6  A    between atoms: C_6  and  O_7
REMARK    7  A    between atoms: O_7  and  C_8
REMARK    8  A    between atoms: C_10  and  C_13
REMARK    9  A    between atoms: C_14  and  C_15
REMARK   10  A    between atoms: C_19  and  O_20
REMARK   11  A    between atoms: O_20  and  C_21
REMARK   12  A    between atoms: C_22  and  O_27
REMARK   13  A    between atoms: C_23  and  O_25
REMARK   14  A    between atoms: O_25  and  C_26
REMARK   15  A    between atoms: O_27  and  C_28
REMARK                            x       y       z     vdW  Elec       q    Type
REMARK                         _______ _______ _______ _____ _____    ______ ____
ROOT
ATOM      1  C   LIG A   1      -9.285   0.525 123.736  0.00  0.00    +0.203 C 
ATOM      2  O   LIG A   1     -10.456   0.745 123.487  0.00  0.00    -0.288 OA
ENDROOT
BRANCH   1   3
ATOM      3  C   LIG A   1      -8.301   1.631 123.412  0.00  0.00    +0.028 A 
ATOM      4  C   LIG A   1      -8.374   2.387 122.247  0.00  0.00    +0.061 A 
ATOM      5  C   LIG A   1      -7.440   3.410 121.982  0.00  0.00    +0.166 A 
ATOM      6  C   LIG A   1      -6.402   3.693 122.901  0.00  0.00    +0.203 A 
ATOM      7  C   LIG A   1      -6.326   2.946 124.100  0.00  0.00    +0.166 A 
ATOM      8  C   LIG A   1      -7.295   1.949 124.351  0.00  0.00    +0.061 A 
BRANCH   5   9
ATOM      9  O   LIG A   1      -7.640   3.989 120.747  0.00  0.00    -0.491 OA
ATOM     10  C   LIG A   1      -8.945   3.972 120.175  0.00  0.00    +0.277 C 
ENDBRANCH   5   9
BRANCH   7  11
ATOM     11  O   LIG A   1      -5.340   3.265 125.006  0.00  0.00    -0.491 OA
ATOM     12  C   LIG A   1      -5.573   4.351 125.905  0.00  0.00    +0.277 C 
ENDBRANCH   7  11
BRANCH   6  13
ATOM     13  O   LIG A   1      -5.593   4.746 122.572  0.00  0.00    -0.488 OA
ATOM     14  C   LIG A   1      -4.457   4.581 121.741  0.00  0.00    +0.277 C 
ENDBRANCH   6  13
ENDBRANCH   1   3
BRANCH   1  15
ATOM     15  C   LIG A   1      -8.802  -0.873 124.293  0.00  0.00    +0.241 C 
ATOM     16  C   LIG A   1      -9.038  -1.957 123.226  0.00  0.00    +0.061 C 
BRANCH  15  17
ATOM     17  O   LIG A   1      -9.469  -1.270 125.487  0.00  0.00    -0.478 OA
BRANCH  17  18
ATOM     18  C   LIG A   1      -8.849  -1.978 126.487  0.00  0.00    +0.163 A 
ATOM     19  C   LIG A   1      -7.915  -1.292 127.288  0.00  0.00    +0.162 A 
ATOM     20  C   LIG A   1      -7.388  -1.892 128.458  0.00  0.00    +0.057 A 
ATOM     21  C   LIG A   1      -7.657  -3.235 128.763  0.00  0.00    -0.022 A 
ATOM     22  C   LIG A   1      -8.523  -3.926 127.907  0.00  0.00    +0.012 A 
ATOM     23  C   LIG A   1      -9.095  -3.317 126.778  0.00  0.00    +0.050 A 
BRANCH  21  24
ATOM     24  C   LIG A   1      -7.006  -3.913 129.911  0.00  0.00    +0.003 C 
ATOM     25  C   LIG A   1      -5.677  -3.872 130.123  0.00  0.00    -0.030 C 
ATOM     26  C   LIG A   1      -4.944  -4.447 131.292  0.00  0.00    +0.035 C 
ENDBRANCH  21  24
BRANCH  19  27
ATOM     27  O   LIG A   1      -7.484  -0.009 127.035  0.00  0.00    -0.491 OA
ATOM     28  C   LIG A   1      -6.078   0.213 127.193  0.00  0.00    +0.277 C 
ENDBRANCH  19  27
ENDBRANCH  17  18
ENDBRANCH  15  17
ENDBRANCH   1  15
TORSDOF 9
ENDMDL
MODEL 5
REMARK VINA RESULT:      -6.8      4.971      9.259
REMARK  Name = NuBBE_2221
REMARK  15 active torsions:
REMARK  status: ('A' for Active; 'I' for Inactive)
REMARK    1  A    between atoms: C_1  and  C_3
REMARK    2  A    between atoms: C_1  and  C_17
REMARK    3  A    between atoms: C_3  and  O_4
REMARK    4  A    between atoms: C_3  and  C_16
REMARK    5  A    between atoms: O_4  and  C_5
REMARK    6  A    between atoms: C_6  and  O_7
REMARK    7  A    between atoms: O_7  and  C_8
REMARK    8  A    between atoms: C_10  and  C_13
REMARK    9  A    between atoms: C_14  and  C_15
REMARK   10  A    between atoms: C_19  and  O_20
REMARK   11  A    between atoms: O_20  and  C_21
REMARK   12  A    between atoms: C_22  and  O_27
REMARK   13  A    between atoms: C_23  and  O_25
REMARK   14  A    between atoms: O_25  and  C_26
REMARK   15  A    between atoms: O_27  and  C_28
REMARK                            x       y       z     vdW  Elec       q    Type
REMARK                         _______ _______ _______ _____ _____    ______ ____
ROOT
ATOM      1  C   LIG A   1      -8.403   3.519 130.176  0.00  0.00    +0.203 C 
ATOM      2  O   LIG A   1      -7.846   2.764 130.952  0.00  0.00    -0.288 OA
ENDROOT
BRANCH   1   3
ATOM      3  C   LIG A   1      -8.168   3.270 128.699  0.00  0.00    +0.028 A 
ATOM      4  C   LIG A   1      -7.671   4.246 127.841  0.00  0.00    +0.061 A 
ATOM      5  C   LIG A   1      -7.464   3.974 126.472  0.00  0.00    +0.166 A 
ATOM      6  C   LIG A   1      -7.759   2.697 125.938  0.00  0.00    +0.203 A 
ATOM      7  C   LIG A   1      -8.247   1.690 126.803  0.00  0.00    +0.166 A 
ATOM      8  C   LIG A   1      -8.413   1.982 128.175  0.00  0.00    +0.061 A 
BRANCH   5   9
ATOM      9  O   LIG A   1      -7.039   5.088 125.781  0.00  0.00    -0.491 OA
ATOM     10  C   LIG A   1      -5.644   5.371 125.709  0.00  0.00    +0.277 C 
ENDBRANCH   5   9
BRANCH   7  11
ATOM     11  O   LIG A   1      -8.484   0.439 126.279  0.00  0.00    -0.491 OA
ATOM     12  C   LIG A   1      -9.787   0.155 125.766  0.00  0.00    +0.277 C 
ENDBRANCH   7  11
BRANCH   6  13
ATOM     13  O   LIG A   1      -7.462   2.528 124.614  0.00  0.00    -0.488 OA
ATOM     14  C   LIG A   1      -8.398   2.834 123.595  0.00  0.00    +0.277 C 
ENDBRANCH   6  13
ENDBRANCH   1   3
BRANCH   1  15
ATOM     15  C   LIG A   1      -9.260   4.746 130.680  0.00  0.00    +0.241 C 
ATOM     16  C   LIG A   1      -9.693   4.503 132.137  0.00  0.00    +0.061 C 
BRANCH  15  17
ATOM     17  O   LIG A   1     -10.430   4.979 129.901  0.00  0.00    -0.478 OA
BRANCH  17  18
ATOM     18  C   LIG A   1     -11.073   6.193 129.867  0.00  0.00    +0.163 A 
ATOM     19  C   LIG A   1     -10.753   7.069 128.813  0.00  0.00    +0.162 A 
ATOM     20  C   LIG A   1     -11.514   8.244 128.593  0.00  0.00    +0.057 A 
ATOM     21  C   LIG A   1     -12.498   8.646 129.509  0.00  0.00    -0.022 A 
ATOM     22  C   LIG A   1     -12.744   7.801 130.598  0.00  0.00    +0.012 A 
ATOM     23  C   LIG A   1     -12.033   6.605 130.786  0.00  0.00    +0.050 A 
BRANCH  21  24
ATOM     24  C   LIG A   1     -13.208   9.940 129.363  0.00  0.00    +0.003 C 
ATOM     25  C   LIG A   1     -13.271  10.853 130.351  0.00  0.00    -0.030 C 
ATOM     26  C   LIG A   1     -13.885  12.213 130.269  0.00  0.00    +0.035 C 
ENDBRANCH  21  24
BRANCH  19  27
ATOM     27  O   LIG A   1      -9.738   6.845 127.910  0.00  0.00    -0.491 OA
ATOM     28  C   LIG A   1     -10.154   6.585 126.564  0.00  0.00    +0.277 C 
ENDBRANCH  19  27
ENDBRANCH  17  18
ENDBRANCH  15  17
ENDBRANCH   1  15
TORSDOF 9
ENDMDL
MODEL 6
REMARK VINA RESULT:      -6.8      2.196      5.082
REMARK  Name = NuBBE_2221
REMARK  15 active torsions:
REMARK  status: ('A' for Active; 'I' for Inactive)
REMARK    1  A    between atoms: C_1  and  C_3
REMARK    2  A    between atoms: C_1  and  C_17
REMARK    3  A    between atoms: C_3  and  O_4
REMARK    4  A    between atoms: C_3  and  C_16
REMARK    5  A    between atoms: O_4  and  C_5
REMARK    6  A    between atoms: C_6  and  O_7
REMARK    7  A    between atoms: O_7  and  C_8
REMARK    8  A    between atoms: C_10  and  C_13
REMARK    9  A    between atoms: C_14  and  C_15
REMARK   10  A    between atoms: C_19  and  O_20
REMARK   11  A    between atoms: O_20  and  C_21
REMARK   12  A    between atoms: C_22  and  O_27
REMARK   13  A    between atoms: C_23  and  O_25
REMARK   14  A    between atoms: O_25  and  C_26
REMARK   15  A    between atoms: O_27  and  C_28
REMARK                            x       y       z     vdW  Elec       q    Type
REMARK                         _______ _______ _______ _____ _____    ______ ____
ROOT
ATOM      1  C   LIG A   1      -5.850   3.932 123.678  0.00  0.00    +0.203 C 
ATOM      2  O   LIG A   1      -5.398   4.923 123.135  0.00  0.00    -0.288 OA
ENDROOT
BRANCH   1   3
ATOM      3  C   LIG A   1      -5.465   3.715 125.129  0.00  0.00    +0.028 A 
ATOM      4  C   LIG A   1      -5.266   2.452 125.674  0.00  0.00    +0.061 A 
ATOM      5  C   LIG A   1      -4.906   2.292 127.029  0.00  0.00    +0.166 A 
ATOM      6  C   LIG A   1      -4.738   3.420 127.867  0.00  0.00    +0.203 A 
ATOM      7  C   LIG A   1      -4.919   4.712 127.321  0.00  0.00    +0.166 A 
ATOM      8  C   LIG A   1      -5.248   4.841 125.954  0.00  0.00    +0.061 A 
BRANCH   5   9
ATOM      9  O   LIG A   1      -4.828   0.965 127.392  0.00  0.00    -0.491 OA
ATOM     10  C   LIG A   1      -5.398  -0.023 126.539  0.00  0.00    +0.277 C 
ENDBRANCH   5   9
BRANCH   7  11
ATOM     11  O   LIG A   1      -4.705   5.800 128.137  0.00  0.00    -0.491 OA
ATOM     12  C   LIG A   1      -3.502   6.551 127.962  0.00  0.00    +0.277 C 
ENDBRANCH   7  11
BRANCH   6  13
ATOM     13  O   LIG A   1      -4.328   3.151 129.144  0.00  0.00    -0.488 OA
ATOM     14  C   LIG A   1      -5.251   3.025 130.212  0.00  0.00    +0.277 C 
ENDBRANCH   6  13
ENDBRANCH   1   3
BRANCH   1  15
ATOM     15  C   LIG A   1      -6.727   2.879 122.891  0.00  0.00    +0.241 C 
ATOM     16  C   LIG A   1      -7.065   3.435 121.497  0.00  0.00    +0.061 C 
BRANCH  15  17
ATOM     17  O   LIG A   1      -7.948   2.552 123.549  0.00  0.00    -0.478 OA
BRANCH  17  18
ATOM     18  C   LIG A   1      -8.180   1.325 124.122  0.00  0.00    +0.163 A 
ATOM     19  C   LIG A   1      -8.701   1.306 125.430  0.00  0.00    +0.162 A 
ATOM     20  C   LIG A   1      -9.156   0.096 126.009  0.00  0.00    +0.057 A 
ATOM     21  C   LIG A   1      -8.954  -1.132 125.362  0.00  0.00    -0.022 A 
ATOM     22  C   LIG A   1      -8.357  -1.100 124.095  0.00  0.00    +0.012 A 
ATOM     23  C   LIG A   1      -7.959   0.104 123.492  0.00  0.00    +0.050 A 
BRANCH  21  24
ATOM     24  C   LIG A   1      -9.304  -2.418 126.015  0.00  0.00    +0.003 C 
ATOM     25  C   LIG A   1      -8.601  -2.927 127.045  0.00  0.00    -0.030 C 
ATOM     26  C   LIG A   1      -8.926  -4.163 127.819  0.00  0.00    +0.035 C 
ENDBRANCH  21  24
BRANCH  19  27
ATOM     27  O   LIG A   1      -8.850   2.429 126.213  0.00  0.00    -0.491 OA
ATOM     28  C   LIG A   1      -8.424   2.294 127.574  0.00  0.00    +0.277 C 
ENDBRANCH  19  27
ENDBRANCH  17  18
ENDBRANCH  15  17
ENDBRANCH   1  15
TORSDOF 9
ENDMDL
MODEL 7
REMARK VINA RESULT:      -6.7      2.399      7.483
REMARK  Name = NuBBE_2221
REMARK  15 active torsions:
REMARK  status: ('A' for Active; 'I' for Inactive)
REMARK    1  A    between atoms: C_1  and  C_3
REMARK    2  A    between atoms: C_1  and  C_17
REMARK    3  A    between atoms: C_3  and  O_4
REMARK    4  A    between atoms: C_3  and  C_16
REMARK    5  A    between atoms: O_4  and  C_5
REMARK    6  A    between atoms: C_6  and  O_7
REMARK    7  A    between atoms: O_7  and  C_8
REMARK    8  A    between atoms: C_10  and  C_13
REMARK    9  A    between atoms: C_14  and  C_15
REMARK   10  A    between atoms: C_19  and  O_20
REMARK   11  A    between atoms: O_20  and  C_21
REMARK   12  A    between atoms: C_22  and  O_27
REMARK   13  A    between atoms: C_23  and  O_25
REMARK   14  A    between atoms: O_25  and  C_26
REMARK   15  A    between atoms: O_27  and  C_28
REMARK                            x       y       z     vdW  Elec       q    Type
REMARK                         _______ _______ _______ _____ _____    ______ ____
ROOT
ATOM      1  C   LIG A   1      -5.510  -0.681 128.295  0.00  0.00    +0.203 C 
ATOM      2  O   LIG A   1      -5.069  -1.281 129.258  0.00  0.00    -0.288 OA
ENDROOT
BRANCH   1   3
ATOM      3  C   LIG A   1      -6.215  -1.512 127.240  0.00  0.00    +0.028 A 
ATOM      4  C   LIG A   1      -7.445  -2.122 127.461  0.00  0.00    +0.061 A 
ATOM      5  C   LIG A   1      -8.071  -2.885 126.453  0.00  0.00    +0.166 A 
ATOM      6  C   LIG A   1      -7.458  -3.048 125.188  0.00  0.00    +0.203 A 
ATOM      7  C   LIG A   1      -6.215  -2.418 124.943  0.00  0.00    +0.166 A 
ATOM      8  C   LIG A   1      -5.630  -1.634 125.961  0.00  0.00    +0.061 A 
BRANCH   5   9
ATOM      9  O   LIG A   1      -9.243  -3.463 126.891  0.00  0.00    -0.491 OA
ATOM     10  C   LIG A   1      -9.244  -4.183 128.121  0.00  0.00    +0.277 C 
ENDBRANCH   5   9
BRANCH   7  11
ATOM     11  O   LIG A   1      -5.655  -2.546 123.692  0.00  0.00    -0.491 OA
ATOM     12  C   LIG A   1      -4.626  -3.521 123.508  0.00  0.00    +0.277 C 
ENDBRANCH   7  11
BRANCH   6  13
ATOM     13  O   LIG A   1      -8.182  -3.755 124.267  0.00  0.00    -0.488 OA
ATOM     14  C   LIG A   1      -9.156  -3.132 123.448  0.00  0.00    +0.277 C 
ENDBRANCH   6  13
ENDBRANCH   1   3
BRANCH   1  15
ATOM     15  C   LIG A   1      -5.289   0.872 128.110  0.00  0.00    +0.241 C 
ATOM     16  C   LIG A   1      -5.062   1.523 129.486  0.00  0.00    +0.061 C 
BRANCH  15  17
ATOM     17  O   LIG A   1      -6.385   1.530 127.481  0.00  0.00    -0.478 OA
BRANCH  17  18
ATOM     18  C   LIG A   1      -6.326   2.012 126.196  0.00  0.00    +0.163 A 
ATOM     19  C   LIG A   1      -7.325   1.591 125.297  0.00  0.00    +0.162 A 
ATOM     20  C   LIG A   1      -7.452   2.197 124.022  0.00  0.00    +0.057 A 
ATOM     21  C   LIG A   1      -6.495   3.114 123.563  0.00  0.00    -0.022 A 
ATOM     22  C   LIG A   1      -5.461   3.458 124.443  0.00  0.00    +0.012 A 
ATOM     23  C   LIG A   1      -5.366   2.905 125.729  0.00  0.00    +0.050 A 
BRANCH  21  24
ATOM     24  C   LIG A   1      -6.542   3.655 122.182  0.00  0.00    +0.003 C 
ATOM     25  C   LIG A   1      -5.486   4.253 121.597  0.00  0.00    -0.030 C 
ATOM     26  C   LIG A   1      -5.411   4.748 120.189  0.00  0.00    +0.035 C 
ENDBRANCH  21  24
BRANCH  19  27
ATOM     27  O   LIG A   1      -8.258   0.621 125.585  0.00  0.00    -0.491 OA
ATOM     28  C   LIG A   1      -9.554   0.818 125.008  0.00  0.00    +0.277 C 
ENDBRANCH  19  27
ENDBRANCH  17  18
ENDBRANCH  15  17
ENDBRANCH   1  15
TORSDOF 9
ENDMDL
MODEL 8
REMARK VINA RESULT:      -6.6      3.147      5.273
REMARK  Name = NuBBE_2221
REMARK  15 active torsions:
REMARK  status: ('A' for Active; 'I' for Inactive)
REMARK    1  A    between atoms: C_1  and  C_3
REMARK    2  A    between atoms: C_1  and  C_17
REMARK    3  A    between atoms: C_3  and  O_4
REMARK    4  A    between atoms: C_3  and  C_16
REMARK    5  A    between atoms: O_4  and  C_5
REMARK    6  A    between atoms: C_6  and  O_7
REMARK    7  A    between atoms: O_7  and  C_8
REMARK    8  A    between atoms: C_10  and  C_13
REMARK    9  A    between atoms: C_14  and  C_15
REMARK   10  A    between atoms: C_19  and  O_20
REMARK   11  A    between atoms: O_20  and  C_21
REMARK   12  A    between atoms: C_22  and  O_27
REMARK   13  A    between atoms: C_23  and  O_25
REMARK   14  A    between atoms: O_25  and  C_26
REMARK   15  A    between atoms: O_27  and  C_28
REMARK                            x       y       z     vdW  Elec       q    Type
REMARK                         _______ _______ _______ _____ _____    ______ ____
ROOT
ATOM      1  C   LIG A   1      -7.888   3.961 125.637  0.00  0.00    +0.203 C 
ATOM      2  O   LIG A   1      -8.721   4.832 125.462  0.00  0.00    -0.288 OA
ENDROOT
BRANCH   1   3
ATOM      3  C   LIG A   1      -6.937   4.154 126.802  0.00  0.00    +0.028 A 
ATOM      4  C   LIG A   1      -7.345   4.067 128.129  0.00  0.00    +0.061 A 
ATOM      5  C   LIG A   1      -6.429   4.250 129.186  0.00  0.00    +0.166 A 
ATOM      6  C   LIG A   1      -5.067   4.527 128.918  0.00  0.00    +0.203 A 
ATOM      7  C   LIG A   1      -4.634   4.599 127.574  0.00  0.00    +0.166 A 
ATOM      8  C   LIG A   1      -5.569   4.379 126.538  0.00  0.00    +0.061 A 
BRANCH   5   9
ATOM      9  O   LIG A   1      -7.042   4.198 130.419  0.00  0.00    -0.491 OA
ATOM     10  C   LIG A   1      -7.698   5.361 130.918  0.00  0.00    +0.277 C 
ENDBRANCH   5   9
BRANCH   7  11
ATOM     11  O   LIG A   1      -3.297   4.821 127.330  0.00  0.00    -0.491 OA
ATOM     12  C   LIG A   1      -2.448   3.689 127.132  0.00  0.00    +0.277 C 
ENDBRANCH   7  11
BRANCH   6  13
ATOM     13  O   LIG A   1      -4.257   4.624 130.017  0.00  0.00    -0.488 OA
ATOM     14  C   LIG A   1      -3.756   3.474 130.676  0.00  0.00    +0.277 C 
ENDBRANCH   6  13
ENDBRANCH   1   3
BRANCH   1  15
ATOM     15  C   LIG A   1      -7.750   2.733 124.653  0.00  0.00    +0.241 C 
ATOM     16  C   LIG A   1      -8.464   3.056 123.328  0.00  0.00    +0.061 C 
BRANCH  15  17
ATOM     17  O   LIG A   1      -8.300   1.526 125.172  0.00  0.00    -0.478 OA
BRANCH  17  18
ATOM     18  C   LIG A   1      -7.647   0.319 125.100  0.00  0.00    +0.163 A 
ATOM     19  C   LIG A   1      -8.293  -0.730 124.417  0.00  0.00    +0.162 A 
ATOM     20  C   LIG A   1      -7.604  -1.933 124.124  0.00  0.00    +0.057 A 
ATOM     21  C   LIG A   1      -6.323  -2.174 124.642  0.00  0.00    -0.022 A 
ATOM     22  C   LIG A   1      -5.730  -1.149 125.391  0.00  0.00    +0.012 A 
ATOM     23  C   LIG A   1      -6.386   0.068 125.633  0.00  0.00    +0.050 A 
BRANCH  21  24
ATOM     24  C   LIG A   1      -5.646  -3.481 124.456  0.00  0.00    +0.003 C 
ATOM     25  C   LIG A   1      -4.630  -3.658 123.590  0.00  0.00    -0.030 C 
ATOM     26  C   LIG A   1      -3.832  -4.908 123.397  0.00  0.00    +0.035 C 
ENDBRANCH  21  24
BRANCH  19  27
ATOM     27  O   LIG A   1      -9.587  -0.661 123.951  0.00  0.00    -0.491 OA
ATOM     28  C   LIG A   1      -9.730  -0.283 122.577  0.00  0.00    +0.277 C 
ENDBRANCH  19  27
ENDBRANCH  17  18
ENDBRANCH  15  17
ENDBRANCH   1  15
TORSDOF 9
ENDMDL
MODEL 9
REMARK VINA RESULT:      -6.6      3.522      6.882
REMARK  Name = NuBBE_2221
REMARK  15 active torsions:
REMARK  status: ('A' for Active; 'I' for Inactive)
REMARK    1  A    between atoms: C_1  and  C_3
REMARK    2  A    between atoms: C_1  and  C_17
REMARK    3  A    between atoms: C_3  and  O_4
REMARK    4  A    between atoms: C_3  and  C_16
REMARK    5  A    between atoms: O_4  and  C_5
REMARK    6  A    between atoms: C_6  and  O_7
REMARK    7  A    between atoms: O_7  and  C_8
REMARK    8  A    between atoms: C_10  and  C_13
REMARK    9  A    between atoms: C_14  and  C_15
REMARK   10  A    between atoms: C_19  and  O_20
REMARK   11  A    between atoms: O_20  and  C_21
REMARK   12  A    between atoms: C_22  and  O_27
REMARK   13  A    between atoms: C_23  and  O_25
REMARK   14  A    between atoms: O_25  and  C_26
REMARK   15  A    between atoms: O_27  and  C_28
REMARK                            x       y       z     vdW  Elec       q    Type
REMARK                         _______ _______ _______ _____ _____    ______ ____
ROOT
ATOM      1  C   LIG A   1      -6.290  -0.213 131.567  0.00  0.00    +0.203 C 
ATOM      2  O   LIG A   1      -5.237   0.223 131.996  0.00  0.00    -0.288 OA
ENDROOT
BRANCH   1   3
ATOM      3  C   LIG A   1      -7.358   0.806 131.222  0.00  0.00    +0.028 A 
ATOM      4  C   LIG A   1      -7.718   1.105 129.912  0.00  0.00    +0.061 A 
ATOM      5  C   LIG A   1      -8.720   2.058 129.632  0.00  0.00    +0.166 A 
ATOM      6  C   LIG A   1      -9.383   2.736 130.683  0.00  0.00    +0.203 A 
ATOM      7  C   LIG A   1      -9.041   2.429 132.020  0.00  0.00    +0.166 A 
ATOM      8  C   LIG A   1      -8.057   1.446 132.269  0.00  0.00    +0.061 A 
BRANCH   5   9
ATOM      9  O   LIG A   1      -8.877   2.263 128.278  0.00  0.00    -0.491 OA
ATOM     10  C   LIG A   1      -8.634   1.185 127.379  0.00  0.00    +0.277 C 
ENDBRANCH   5   9
BRANCH   7  11
ATOM     11  O   LIG A   1      -9.728   3.060 133.031  0.00  0.00    -0.491 OA
ATOM     12  C   LIG A   1      -8.983   3.823 133.983  0.00  0.00    +0.277 C 
ENDBRANCH   7  11
BRANCH   6  13
ATOM     13  O   LIG A   1     -10.379   3.592 130.298  0.00  0.00    -0.488 OA
ATOM     14  C   LIG A   1     -10.175   4.993 130.242  0.00  0.00    +0.277 C 
ENDBRANCH   6  13
ENDBRANCH   1   3
BRANCH   1  15
ATOM     15  C   LIG A   1      -6.563  -1.765 131.452  0.00  0.00    +0.241 C 
ATOM     16  C   LIG A   1      -5.865  -2.494 132.615  0.00  0.00    +0.061 C 
BRANCH  15  17
ATOM     17  O   LIG A   1      -6.101  -2.333 130.229  0.00  0.00    -0.478 OA
BRANCH  17  18
ATOM     18  C   LIG A   1      -6.930  -2.574 129.161  0.00  0.00    +0.163 A 
ATOM     19  C   LIG A   1      -6.615  -1.948 127.939  0.00  0.00    +0.162 A 
ATOM     20  C   LIG A   1      -7.296  -2.303 126.749  0.00  0.00    +0.057 A 
ATOM     21  C   LIG A   1      -8.402  -3.166 126.781  0.00  0.00    -0.022 A 
ATOM     22  C   LIG A   1      -8.751  -3.715 128.022  0.00  0.00    +0.012 A 
ATOM     23  C   LIG A   1      -8.041  -3.412 129.195  0.00  0.00    +0.050 A 
BRANCH  21  24
ATOM     24  C   LIG A   1      -9.205  -3.441 125.565  0.00  0.00    +0.003 C 
ATOM     25  C   LIG A   1      -8.919  -2.901 124.365  0.00  0.00    -0.030 C 
ATOM     26  C   LIG A   1      -9.613  -3.186 123.072  0.00  0.00    +0.035 C 
ENDBRANCH  21  24
BRANCH  19  27
ATOM     27  O   LIG A   1      -5.625  -1.002 127.794  0.00  0.00    -0.491 OA
ATOM     28  C   LIG A   1      -5.448  -0.491 126.468  0.00  0.00    +0.277 C 
ENDBRANCH  19  27
ENDBRANCH  17  18
ENDBRANCH  15  17
ENDBRANCH   1  15
TORSDOF 9
ENDMDL
