MODEL 1
REMARK VINA RESULT:     -10.5      0.000      0.000
REMARK  Name = NuBBE_1049
REMARK  13 active torsions:
REMARK  status: ('A' for Active; 'I' for Inactive)
REMARK    1  A    between atoms: C_1  and  C_2
REMARK    2  A    between atoms: C_6  and  C_29
REMARK    3  A    between atoms: C_7  and  C_8
REMARK    4  A    between atoms: C_9  and  C_11
REMARK    5  A    between atoms: C_11  and  C_13
REMARK    6  A    between atoms: C_11  and  C_14
REMARK    7  A    between atoms: C_15  and  O_17
REMARK    8  A    between atoms: C_18  and  O_20
REMARK    9  A    between atoms: C_21  and  C_22
REMARK   10  A    between atoms: C_21  and  C_23
REMARK   11  A    between atoms: C_34  and  C_35
REMARK   12  A    between atoms: C_34  and  C_41
REMARK   13  A    between atoms: C_36  and  O_40
REMARK                            x       y       z     vdW  Elec       q    Type
REMARK                         _______ _______ _______ _____ _____    ______ ____
ROOT
ATOM      1  C   LIG A   1      -3.054   4.319 132.690  0.00  0.00    +0.012 C 
ATOM      2  C   LIG A   1      -3.748   5.323 131.703  0.00  0.00    -0.022 C 
ATOM      3  C   LIG A   1      -5.319   5.182 131.989  0.00  0.00    +0.021 C 
ATOM      4  C   LIG A   1      -6.101   4.237 131.063  0.00  0.00    -0.063 C 
ATOM      5  C   LIG A   1      -7.613   4.034 131.411  0.00  0.00    -0.005 C 
ATOM      6  C   LIG A   1      -8.373   5.417 131.685  0.00  0.00    -0.020 C 
ATOM      7  C   LIG A   1      -8.942   5.558 133.112  0.00  0.00    +0.012 C 
ATOM      8  C   LIG A   1      -9.451   5.571 130.524  0.00  0.00    +0.001 C 
ATOM      9  C   LIG A   1      -9.029   4.538 129.479  0.00  0.00    +0.005 C 
ATOM     10  C   LIG A   1      -8.471   3.390 130.287  0.00  0.00    +0.012 C 
ATOM     11  C   LIG A   1      -7.392   6.612 131.496  0.00  0.00    +0.008 C 
ATOM     12  C   LIG A   1      -6.097   6.480 132.283  0.00  0.00    +0.009 C 
ATOM     13  C   LIG A   1      -7.645   3.035 132.594  0.00  0.00    +0.016 C 
ATOM     14  C   LIG A   1      -5.466   3.543 130.105  0.00  0.00    -0.026 C 
ATOM     15  C   LIG A   1      -3.997   3.591 129.836  0.00  0.00    +0.031 C 
ATOM     16  C   LIG A   1      -3.325   4.910 130.240  0.00  0.00    +0.007 C 
ATOM     17  C   LIG A   1      -3.359   6.066 129.148  0.00  0.00    -0.005 C 
ATOM     18  C   LIG A   1      -4.112   5.697 127.846  0.00  0.00    +0.014 C 
ATOM     19  C   LIG A   1      -3.994   7.352 129.720  0.00  0.00    +0.120 C 
ATOM     20  C   LIG A   1      -3.341   7.816 131.015  0.00  0.00    +0.032 C 
ATOM     21  C   LIG A   1      -3.123   6.704 132.040  0.00  0.00    +0.010 C 
ATOM     22  C   LIG A   1      -1.894   6.359 128.713  0.00  0.00    +0.014 C 
ENDROOT
BRANCH   8  23
ATOM     23  C   LIG A   1     -10.983   5.629 130.848  0.00  0.00    +0.021 C 
ATOM     24  C   LIG A   1     -11.178   6.189 132.274  0.00  0.00    +0.010 C 
BRANCH  23  25
ATOM     25  C   LIG A   1     -11.898   6.358 129.846  0.00  0.00    +0.153 C 
ATOM     26  C   LIG A   1     -12.172   7.825 130.166  0.00  0.00    +0.175 C 
ATOM     27  C   LIG A   1     -12.856   8.262 128.877  0.00  0.00    +0.177 C 
ATOM     28  C   LIG A   1     -12.091   7.454 127.800  0.00  0.00    +0.093 C 
ATOM     29  C   LIG A   1     -11.046   8.254 127.029  0.00  0.00    +0.044 C 
ATOM     30  C   LIG A   1     -13.072   6.791 126.830  0.00  0.00    +0.044 C 
ATOM     31  O   LIG A   1     -11.379   6.402 128.507  0.00  0.00    -0.365 OA
BRANCH  26  32
ATOM     32  O   LIG A   1     -12.999   8.012 131.304  0.00  0.00    -0.387 OA
ATOM     33  H   LIG A   1     -12.584   7.514 132.033  0.00  0.00    +0.210 HD
ENDBRANCH  26  32
BRANCH  27  34
ATOM     34  O   LIG A   1     -12.838   9.679 128.727  0.00  0.00    -0.386 OA
ATOM     35  H   LIG A   1     -11.929   9.959 128.522  0.00  0.00    +0.210 HD
ENDBRANCH  27  34
ENDBRANCH  23  25
ENDBRANCH   8  23
BRANCH  19  36
ATOM     36  O   LIG A   1      -3.928   8.425 128.779  0.00  0.00    -0.391 OA
ATOM     37  H   LIG A   1      -3.169   8.981 129.025  0.00  0.00    +0.210 HD
ENDBRANCH  19  36
TORSDOF 5
ENDMDL
MODEL 2
REMARK VINA RESULT:     -10.4      2.704      4.185
REMARK  Name = NuBBE_1049
REMARK  13 active torsions:
REMARK  status: ('A' for Active; 'I' for Inactive)
REMARK    1  A    between atoms: C_1  and  C_2
REMARK    2  A    between atoms: C_6  and  C_29
REMARK    3  A    between atoms: C_7  and  C_8
REMARK    4  A    between atoms: C_9  and  C_11
REMARK    5  A    between atoms: C_11  and  C_13
REMARK    6  A    between atoms: C_11  and  C_14
REMARK    7  A    between atoms: C_15  and  O_17
REMARK    8  A    between atoms: C_18  and  O_20
REMARK    9  A    between atoms: C_21  and  C_22
REMARK   10  A    between atoms: C_21  and  C_23
REMARK   11  A    between atoms: C_34  and  C_35
REMARK   12  A    between atoms: C_34  and  C_41
REMARK   13  A    between atoms: C_36  and  O_40
REMARK                            x       y       z     vdW  Elec       q    Type
REMARK                         _______ _______ _______ _____ _____    ______ ____
ROOT
ATOM      1  C   LIG A   1      -3.562   2.472 128.824  0.00  0.00    +0.012 C 
ATOM      2  C   LIG A   1      -4.968   2.288 128.150  0.00  0.00    -0.022 C 
ATOM      3  C   LIG A   1      -5.966   3.222 128.987  0.00  0.00    +0.021 C 
ATOM      4  C   LIG A   1      -6.772   2.535 130.102  0.00  0.00    -0.063 C 
ATOM      5  C   LIG A   1      -7.671   3.474 130.973  0.00  0.00    -0.005 C 
ATOM      6  C   LIG A   1      -8.550   4.480 130.090  0.00  0.00    -0.020 C 
ATOM      7  C   LIG A   1      -8.239   5.972 130.329  0.00  0.00    +0.012 C 
ATOM      8  C   LIG A   1     -10.069   4.073 130.331  0.00  0.00    +0.001 C 
ATOM      9  C   LIG A   1      -9.991   2.694 130.987  0.00  0.00    +0.005 C 
ATOM     10  C   LIG A   1      -8.743   2.750 131.835  0.00  0.00    +0.012 C 
ATOM     11  C   LIG A   1      -8.291   4.226 128.576  0.00  0.00    +0.008 C 
ATOM     12  C   LIG A   1      -6.820   4.228 128.190  0.00  0.00    +0.009 C 
ATOM     13  C   LIG A   1      -6.715   4.163 131.977  0.00  0.00    +0.016 C 
ATOM     14  C   LIG A   1      -6.592   1.232 130.366  0.00  0.00    -0.026 C 
ATOM     15  C   LIG A   1      -5.632   0.332 129.659  0.00  0.00    +0.031 C 
ATOM     16  C   LIG A   1      -5.321   0.752 128.216  0.00  0.00    +0.007 C 
ATOM     17  C   LIG A   1      -6.329   0.217 127.108  0.00  0.00    -0.005 C 
ATOM     18  C   LIG A   1      -7.509  -0.618 127.663  0.00  0.00    +0.014 C 
ATOM     19  C   LIG A   1      -6.916   1.382 126.281  0.00  0.00    +0.120 C 
ATOM     20  C   LIG A   1      -5.847   2.288 125.684  0.00  0.00    +0.032 C 
ATOM     21  C   LIG A   1      -4.750   2.694 126.667  0.00  0.00    +0.010 C 
ATOM     22  C   LIG A   1      -5.545  -0.743 126.168  0.00  0.00    +0.014 C 
ENDROOT
BRANCH   8  23
ATOM     23  C   LIG A   1     -11.082   5.080 130.977  0.00  0.00    +0.021 C 
ATOM     24  C   LIG A   1     -10.348   5.919 132.046  0.00  0.00    +0.010 C 
BRANCH  23  25
ATOM     25  C   LIG A   1     -11.889   5.988 130.030  0.00  0.00    +0.153 C 
ATOM     26  C   LIG A   1     -12.271   7.349 130.605  0.00  0.00    +0.175 C 
ATOM     27  C   LIG A   1     -12.798   8.037 129.352  0.00  0.00    +0.177 C 
ATOM     28  C   LIG A   1     -11.861   7.488 128.249  0.00  0.00    +0.093 C 
ATOM     29  C   LIG A   1     -10.761   8.451 127.813  0.00  0.00    +0.044 C 
ATOM     30  C   LIG A   1     -12.673   7.027 127.036  0.00  0.00    +0.044 C 
ATOM     31  O   LIG A   1     -11.201   6.323 128.815  0.00  0.00    -0.365 OA
BRANCH  26  32
ATOM     32  O   LIG A   1     -13.249   7.277 131.631  0.00  0.00    -0.387 OA
ATOM     33  H   LIG A   1     -14.114   7.413 131.199  0.00  0.00    +0.210 HD
ENDBRANCH  26  32
BRANCH  27  34
ATOM     34  O   LIG A   1     -12.827   9.453 129.502  0.00  0.00    -0.386 OA
ATOM     35  H   LIG A   1     -12.747   9.667 130.449  0.00  0.00    +0.210 HD
ENDBRANCH  27  34
ENDBRANCH  23  25
ENDBRANCH   8  23
BRANCH  19  36
ATOM     36  O   LIG A   1      -7.736   0.899 125.215  0.00  0.00    -0.391 OA
ATOM     37  H   LIG A   1      -7.758  -0.070 125.282  0.00  0.00    +0.210 HD
ENDBRANCH  19  36
TORSDOF 5
ENDMDL
MODEL 3
REMARK VINA RESULT:     -10.2      3.309      5.070
REMARK  Name = NuBBE_1049
REMARK  13 active torsions:
REMARK  status: ('A' for Active; 'I' for Inactive)
REMARK    1  A    between atoms: C_1  and  C_2
REMARK    2  A    between atoms: C_6  and  C_29
REMARK    3  A    between atoms: C_7  and  C_8
REMARK    4  A    between atoms: C_9  and  C_11
REMARK    5  A    between atoms: C_11  and  C_13
REMARK    6  A    between atoms: C_11  and  C_14
REMARK    7  A    between atoms: C_15  and  O_17
REMARK    8  A    between atoms: C_18  and  O_20
REMARK    9  A    between atoms: C_21  and  C_22
REMARK   10  A    between atoms: C_21  and  C_23
REMARK   11  A    between atoms: C_34  and  C_35
REMARK   12  A    between atoms: C_34  and  C_41
REMARK   13  A    between atoms: C_36  and  O_40
REMARK                            x       y       z     vdW  Elec       q    Type
REMARK                         _______ _______ _______ _____ _____    ______ ____
ROOT
ATOM      1  C   LIG A   1      -5.846  -0.502 134.098  0.00  0.00    +0.012 C 
ATOM      2  C   LIG A   1      -5.870  -0.203 132.557  0.00  0.00    -0.022 C 
ATOM      3  C   LIG A   1      -6.544   1.244 132.415  0.00  0.00    +0.021 C 
ATOM      4  C   LIG A   1      -8.052   1.269 132.113  0.00  0.00    -0.063 C 
ATOM      5  C   LIG A   1      -8.717   2.685 132.071  0.00  0.00    -0.005 C 
ATOM      6  C   LIG A   1      -7.882   3.732 131.194  0.00  0.00    -0.020 C 
ATOM      7  C   LIG A   1      -7.351   4.944 131.986  0.00  0.00    +0.012 C 
ATOM      8  C   LIG A   1      -8.803   4.106 129.951  0.00  0.00    +0.001 C 
ATOM      9  C   LIG A   1      -9.893   3.033 129.954  0.00  0.00    +0.005 C 
ATOM     10  C   LIG A   1     -10.125   2.735 131.416  0.00  0.00    +0.012 C 
ATOM     11  C   LIG A   1      -6.629   3.037 130.583  0.00  0.00    +0.008 C 
ATOM     12  C   LIG A   1      -5.772   2.300 131.600  0.00  0.00    +0.009 C 
ATOM     13  C   LIG A   1      -8.922   3.100 133.549  0.00  0.00    +0.016 C 
ATOM     14  C   LIG A   1      -8.747   0.124 132.027  0.00  0.00    -0.026 C 
ATOM     15  C   LIG A   1      -8.181  -1.246 132.212  0.00  0.00    +0.031 C 
ATOM     16  C   LIG A   1      -6.689  -1.362 131.869  0.00  0.00    +0.007 C 
ATOM     17  C   LIG A   1      -6.352  -1.647 130.340  0.00  0.00    -0.005 C 
ATOM     18  C   LIG A   1      -7.590  -1.719 129.413  0.00  0.00    +0.014 C 
ATOM     19  C   LIG A   1      -5.392  -0.577 129.775  0.00  0.00    +0.120 C 
ATOM     20  C   LIG A   1      -4.131  -0.405 130.611  0.00  0.00    +0.032 C 
ATOM     21  C   LIG A   1      -4.385  -0.301 132.113  0.00  0.00    +0.010 C 
ATOM     22  C   LIG A   1      -5.681  -3.047 130.249  0.00  0.00    +0.014 C 
ENDROOT
BRANCH   8  23
ATOM     23  C   LIG A   1      -9.293   5.577 129.722  0.00  0.00    +0.021 C 
ATOM     24  C   LIG A   1      -8.797   6.066 128.344  0.00  0.00    +0.010 C 
BRANCH  23  25
ATOM     25  C   LIG A   1     -10.796   5.864 129.895  0.00  0.00    +0.153 C 
ATOM     26  C   LIG A   1     -11.189   6.487 131.232  0.00  0.00    +0.175 C 
ATOM     27  C   LIG A   1     -12.638   6.858 130.944  0.00  0.00    +0.177 C 
ATOM     28  C   LIG A   1     -12.586   7.288 129.458  0.00  0.00    +0.093 C 
ATOM     29  C   LIG A   1     -12.590   8.796 129.232  0.00  0.00    +0.044 C 
ATOM     30  C   LIG A   1     -13.724   6.632 128.670  0.00  0.00    +0.044 C 
ATOM     31  O   LIG A   1     -11.329   6.785 128.930  0.00  0.00    -0.365 OA
BRANCH  26  32
ATOM     32  O   LIG A   1     -11.069   5.596 132.329  0.00  0.00    -0.387 OA
ATOM     33  H   LIG A   1     -10.297   5.029 132.143  0.00  0.00    +0.210 HD
ENDBRANCH  26  32
BRANCH  27  34
ATOM     34  O   LIG A   1     -13.122   7.834 131.862  0.00  0.00    -0.386 OA
ATOM     35  H   LIG A   1     -14.027   8.083 131.603  0.00  0.00    +0.210 HD
ENDBRANCH  27  34
ENDBRANCH  23  25
ENDBRANCH   8  23
BRANCH  19  36
ATOM     36  O   LIG A   1      -5.000  -0.888 128.436  0.00  0.00    -0.391 OA
ATOM     37  H   LIG A   1      -4.088  -1.222 128.471  0.00  0.00    +0.210 HD
ENDBRANCH  19  36
TORSDOF 5
ENDMDL
MODEL 4
REMARK VINA RESULT:     -10.1      4.753      6.855
REMARK  Name = NuBBE_1049
REMARK  13 active torsions:
REMARK  status: ('A' for Active; 'I' for Inactive)
REMARK    1  A    between atoms: C_1  and  C_2
REMARK    2  A    between atoms: C_6  and  C_29
REMARK    3  A    between atoms: C_7  and  C_8
REMARK    4  A    between atoms: C_9  and  C_11
REMARK    5  A    between atoms: C_11  and  C_13
REMARK    6  A    between atoms: C_11  and  C_14
REMARK    7  A    between atoms: C_15  and  O_17
REMARK    8  A    between atoms: C_18  and  O_20
REMARK    9  A    between atoms: C_21  and  C_22
REMARK   10  A    between atoms: C_21  and  C_23
REMARK   11  A    between atoms: C_34  and  C_35
REMARK   12  A    between atoms: C_34  and  C_41
REMARK   13  A    between atoms: C_36  and  O_40
REMARK                            x       y       z     vdW  Elec       q    Type
REMARK                         _______ _______ _______ _____ _____    ______ ____
ROOT
ATOM      1  C   LIG A   1      -5.992   3.545 133.269  0.00  0.00    +0.012 C 
ATOM      2  C   LIG A   1      -5.828   4.391 131.957  0.00  0.00    -0.022 C 
ATOM      3  C   LIG A   1      -6.463   3.493 130.791  0.00  0.00    +0.021 C 
ATOM      4  C   LIG A   1      -5.479   2.639 129.974  0.00  0.00    -0.063 C 
ATOM      5  C   LIG A   1      -6.120   1.696 128.902  0.00  0.00    -0.005 C 
ATOM      6  C   LIG A   1      -7.207   2.443 127.995  0.00  0.00    -0.020 C 
ATOM      7  C   LIG A   1      -8.635   1.871 128.112  0.00  0.00    +0.012 C 
ATOM      8  C   LIG A   1      -6.619   2.458 126.516  0.00  0.00    +0.001 C 
ATOM      9  C   LIG A   1      -5.145   2.095 126.694  0.00  0.00    +0.005 C 
ATOM     10  C   LIG A   1      -5.132   1.123 127.849  0.00  0.00    +0.012 C 
ATOM     11  C   LIG A   1      -7.311   3.940 128.411  0.00  0.00    +0.008 C 
ATOM     12  C   LIG A   1      -7.533   4.155 129.900  0.00  0.00    +0.009 C 
ATOM     13  C   LIG A   1      -6.662   0.474 129.684  0.00  0.00    +0.016 C 
ATOM     14  C   LIG A   1      -4.172   2.629 130.278  0.00  0.00    -0.026 C 
ATOM     15  C   LIG A   1      -3.539   3.398 131.392  0.00  0.00    +0.031 C 
ATOM     16  C   LIG A   1      -4.288   4.681 131.777  0.00  0.00    +0.007 C 
ATOM     17  C   LIG A   1      -3.913   5.979 130.936  0.00  0.00    -0.005 C 
ATOM     18  C   LIG A   1      -2.872   5.739 129.815  0.00  0.00    +0.014 C 
ATOM     19  C   LIG A   1      -5.170   6.607 130.295  0.00  0.00    +0.120 C 
ATOM     20  C   LIG A   1      -6.278   6.885 131.301  0.00  0.00    +0.032 C 
ATOM     21  C   LIG A   1      -6.563   5.727 132.255  0.00  0.00    +0.010 C 
ATOM     22  C   LIG A   1      -3.255   7.004 131.903  0.00  0.00    +0.014 C 
ENDROOT
BRANCH   8  23
ATOM     23  C   LIG A   1      -7.365   1.733 125.344  0.00  0.00    +0.021 C 
ATOM     24  C   LIG A   1      -6.881   2.319 123.999  0.00  0.00    +0.010 C 
BRANCH  23  25
ATOM     25  C   LIG A   1      -7.323   0.194 125.314  0.00  0.00    +0.153 C 
ATOM     26  C   LIG A   1      -8.566  -0.478 124.738  0.00  0.00    +0.175 C 
ATOM     27  C   LIG A   1      -8.073  -1.915 124.627  0.00  0.00    +0.177 C 
ATOM     28  C   LIG A   1      -6.589  -1.731 124.228  0.00  0.00    +0.093 C 
ATOM     29  C   LIG A   1      -6.296  -1.954 122.748  0.00  0.00    +0.044 C 
ATOM     30  C   LIG A   1      -5.688  -2.623 125.086  0.00  0.00    +0.044 C 
ATOM     31  O   LIG A   1      -6.255  -0.346 124.520  0.00  0.00    -0.365 OA
BRANCH  26  32
ATOM     32  O   LIG A   1      -9.710  -0.365 125.571  0.00  0.00    -0.387 OA
ATOM     33  H   LIG A   1     -10.245   0.366 125.208  0.00  0.00    +0.210 HD
ENDBRANCH  26  32
BRANCH  27  34
ATOM     34  O   LIG A   1      -8.873  -2.678 123.729  0.00  0.00    -0.386 OA
ATOM     35  H   LIG A   1      -9.048  -2.142 122.935  0.00  0.00    +0.210 HD
ENDBRANCH  27  34
ENDBRANCH  23  25
ENDBRANCH   8  23
BRANCH  19  36
ATOM     36  O   LIG A   1      -4.854   7.833 129.629  0.00  0.00    -0.391 OA
ATOM     37  H   LIG A   1      -4.912   7.666 128.673  0.00  0.00    +0.210 HD
ENDBRANCH  19  36
TORSDOF 5
ENDMDL
MODEL 5
REMARK VINA RESULT:     -10.0      7.653     11.211
REMARK  Name = NuBBE_1049
REMARK  13 active torsions:
REMARK  status: ('A' for Active; 'I' for Inactive)
REMARK    1  A    between atoms: C_1  and  C_2
REMARK    2  A    between atoms: C_6  and  C_29
REMARK    3  A    between atoms: C_7  and  C_8
REMARK    4  A    between atoms: C_9  and  C_11
REMARK    5  A    between atoms: C_11  and  C_13
REMARK    6  A    between atoms: C_11  and  C_14
REMARK    7  A    between atoms: C_15  and  O_17
REMARK    8  A    between atoms: C_18  and  O_20
REMARK    9  A    between atoms: C_21  and  C_22
REMARK   10  A    between atoms: C_21  and  C_23
REMARK   11  A    between atoms: C_34  and  C_35
REMARK   12  A    between atoms: C_34  and  C_41
REMARK   13  A    between atoms: C_36  and  O_40
REMARK                            x       y       z     vdW  Elec       q    Type
REMARK                         _______ _______ _______ _____ _____    ______ ____
ROOT
ATOM      1  C   LIG A   1      -8.366   0.899 126.028  0.00  0.00    +0.012 C 
ATOM      2  C   LIG A   1      -8.019  -0.632 126.055  0.00  0.00    -0.022 C 
ATOM      3  C   LIG A   1      -7.670  -0.961 127.584  0.00  0.00    +0.021 C 
ATOM      4  C   LIG A   1      -6.180  -0.949 127.963  0.00  0.00    -0.063 C 
ATOM      5  C   LIG A   1      -5.858  -1.178 129.477  0.00  0.00    -0.005 C 
ATOM      6  C   LIG A   1      -6.654  -2.422 130.095  0.00  0.00    -0.020 C 
ATOM      7  C   LIG A   1      -7.625  -2.052 131.236  0.00  0.00    +0.012 C 
ATOM      8  C   LIG A   1      -5.555  -3.505 130.487  0.00  0.00    +0.001 C 
ATOM      9  C   LIG A   1      -4.291  -3.036 129.765  0.00  0.00    +0.005 C 
ATOM     10  C   LIG A   1      -4.377  -1.529 129.794  0.00  0.00    +0.012 C 
ATOM     11  C   LIG A   1      -7.524  -3.099 128.995  0.00  0.00    +0.008 C 
ATOM     12  C   LIG A   1      -8.425  -2.135 128.238  0.00  0.00    +0.009 C 
ATOM     13  C   LIG A   1      -6.131   0.175 130.178  0.00  0.00    +0.016 C 
ATOM     14  C   LIG A   1      -5.248  -0.629 127.051  0.00  0.00    -0.026 C 
ATOM     15  C   LIG A   1      -5.524  -0.255 125.631  0.00  0.00    +0.031 C 
ATOM     16  C   LIG A   1      -6.815  -0.856 125.060  0.00  0.00    +0.007 C 
ATOM     17  C   LIG A   1      -6.682  -2.315 124.440  0.00  0.00    -0.005 C 
ATOM     18  C   LIG A   1      -5.265  -2.931 124.548  0.00  0.00    +0.014 C 
ATOM     19  C   LIG A   1      -7.680  -3.292 125.098  0.00  0.00    +0.120 C 
ATOM     20  C   LIG A   1      -9.117  -2.792 125.063  0.00  0.00    +0.032 C 
ATOM     21  C   LIG A   1      -9.282  -1.333 125.486  0.00  0.00    +0.010 C 
ATOM     22  C   LIG A   1      -6.979  -2.218 122.916  0.00  0.00    +0.014 C 
ENDROOT
BRANCH   8  23
ATOM     23  C   LIG A   1      -5.363  -3.960 131.974  0.00  0.00    +0.021 C 
ATOM     24  C   LIG A   1      -4.784  -5.392 131.994  0.00  0.00    +0.010 C 
BRANCH  23  25
ATOM     25  C   LIG A   1      -4.560  -3.033 132.906  0.00  0.00    +0.153 C 
ATOM     26  C   LIG A   1      -4.979  -3.067 134.374  0.00  0.00    +0.175 C 
ATOM     27  C   LIG A   1      -3.842  -2.270 135.000  0.00  0.00    +0.177 C 
ATOM     28  C   LIG A   1      -2.621  -2.704 134.153  0.00  0.00    +0.093 C 
ATOM     29  C   LIG A   1      -1.715  -3.732 134.823  0.00  0.00    +0.044 C 
ATOM     30  C   LIG A   1      -1.805  -1.482 133.723  0.00  0.00    +0.044 C 
ATOM     31  O   LIG A   1      -3.155  -3.330 132.955  0.00  0.00    -0.365 OA
BRANCH  26  32
ATOM     32  O   LIG A   1      -6.246  -2.477 134.615  0.00  0.00    -0.387 OA
ATOM     33  H   LIG A   1      -6.261  -1.638 134.116  0.00  0.00    +0.210 HD
ENDBRANCH  26  32
BRANCH  27  34
ATOM     34  O   LIG A   1      -3.747  -2.503 136.402  0.00  0.00    -0.386 OA
ATOM     35  H   LIG A   1      -2.965  -3.058 136.573  0.00  0.00    +0.210 HD
ENDBRANCH  27  34
ENDBRANCH  23  25
ENDBRANCH   8  23
BRANCH  19  36
ATOM     36  O   LIG A   1      -7.640  -4.576 124.470  0.00  0.00    -0.391 OA
ATOM     37  H   LIG A   1      -6.793  -4.989 124.708  0.00  0.00    +0.210 HD
ENDBRANCH  19  36
TORSDOF 5
ENDMDL
MODEL 6
REMARK VINA RESULT:      -9.9      4.752      7.475
REMARK  Name = NuBBE_1049
REMARK  13 active torsions:
REMARK  status: ('A' for Active; 'I' for Inactive)
REMARK    1  A    between atoms: C_1  and  C_2
REMARK    2  A    between atoms: C_6  and  C_29
REMARK    3  A    between atoms: C_7  and  C_8
REMARK    4  A    between atoms: C_9  and  C_11
REMARK    5  A    between atoms: C_11  and  C_13
REMARK    6  A    between atoms: C_11  and  C_14
REMARK    7  A    between atoms: C_15  and  O_17
REMARK    8  A    between atoms: C_18  and  O_20
REMARK    9  A    between atoms: C_21  and  C_22
REMARK   10  A    between atoms: C_21  and  C_23
REMARK   11  A    between atoms: C_34  and  C_35
REMARK   12  A    between atoms: C_34  and  C_41
REMARK   13  A    between atoms: C_36  and  O_40
REMARK                            x       y       z     vdW  Elec       q    Type
REMARK                         _______ _______ _______ _____ _____    ______ ____
ROOT
ATOM      1  C   LIG A   1      -6.995   7.178 130.934  0.00  0.00    +0.012 C 
ATOM      2  C   LIG A   1      -6.695   5.783 131.588  0.00  0.00    -0.022 C 
ATOM      3  C   LIG A   1      -6.465   4.779 130.360  0.00  0.00    +0.021 C 
ATOM      4  C   LIG A   1      -7.680   3.947 129.920  0.00  0.00    -0.063 C 
ATOM      5  C   LIG A   1      -7.469   3.041 128.661  0.00  0.00    -0.005 C 
ATOM      6  C   LIG A   1      -6.116   2.188 128.736  0.00  0.00    -0.020 C 
ATOM      7  C   LIG A   1      -5.101   2.508 127.620  0.00  0.00    +0.012 C 
ATOM      8  C   LIG A   1      -6.556   0.660 128.813  0.00  0.00    +0.001 C 
ATOM      9  C   LIG A   1      -8.046   0.714 129.154  0.00  0.00    +0.005 C 
ATOM     10  C   LIG A   1      -8.552   1.947 128.444  0.00  0.00    +0.012 C 
ATOM     11  C   LIG A   1      -5.380   2.471 130.079  0.00  0.00    +0.008 C 
ATOM     12  C   LIG A   1      -5.166   3.948 130.368  0.00  0.00    +0.009 C 
ATOM     13  C   LIG A   1      -7.570   3.986 127.439  0.00  0.00    +0.016 C 
ATOM     14  C   LIG A   1      -8.869   4.110 130.520  0.00  0.00    -0.026 C 
ATOM     15  C   LIG A   1      -9.153   5.074 131.626  0.00  0.00    +0.031 C 
ATOM     16  C   LIG A   1      -7.933   5.415 132.493  0.00  0.00    +0.007 C 
ATOM     17  C   LIG A   1      -7.647   4.422 133.703  0.00  0.00    -0.005 C 
ATOM     18  C   LIG A   1      -8.625   3.225 133.796  0.00  0.00    +0.014 C 
ATOM     19  C   LIG A   1      -6.210   3.861 133.632  0.00  0.00    +0.120 C 
ATOM     20  C   LIG A   1      -5.149   4.948 133.529  0.00  0.00    +0.032 C 
ATOM     21  C   LIG A   1      -5.460   6.031 132.497  0.00  0.00    +0.010 C 
ATOM     22  C   LIG A   1      -7.831   5.214 135.029  0.00  0.00    +0.014 C 
ENDROOT
BRANCH   8  23
ATOM     23  C   LIG A   1      -6.150  -0.355 127.690  0.00  0.00    +0.021 C 
ATOM     24  C   LIG A   1      -5.447  -1.569 128.336  0.00  0.00    +0.010 C 
BRANCH  23  25
ATOM     25  C   LIG A   1      -7.247  -0.816 126.712  0.00  0.00    +0.153 C 
ATOM     26  C   LIG A   1      -7.143  -0.243 125.301  0.00  0.00    +0.175 C 
ATOM     27  C   LIG A   1      -8.185  -1.092 124.584  0.00  0.00    +0.177 C 
ATOM     28  C   LIG A   1      -8.023  -2.471 125.269  0.00  0.00    +0.093 C 
ATOM     29  C   LIG A   1      -7.235  -3.494 124.459  0.00  0.00    +0.044 C 
ATOM     30  C   LIG A   1      -9.390  -3.041 125.656  0.00  0.00    +0.044 C 
ATOM     31  O   LIG A   1      -7.274  -2.235 126.493  0.00  0.00    -0.365 OA
BRANCH  26  32
ATOM     32  O   LIG A   1      -7.437   1.144 125.230  0.00  0.00    -0.387 OA
ATOM     33  H   LIG A   1      -7.501   1.461 126.150  0.00  0.00    +0.210 HD
ENDBRANCH  26  32
BRANCH  27  34
ATOM     34  O   LIG A   1      -8.000  -1.068 123.172  0.00  0.00    -0.386 OA
ATOM     35  H   LIG A   1      -7.369  -1.768 122.929  0.00  0.00    +0.210 HD
ENDBRANCH  27  34
ENDBRANCH  23  25
ENDBRANCH   8  23
BRANCH  19  36
ATOM     36  O   LIG A   1      -5.912   3.055 134.774  0.00  0.00    -0.391 OA
ATOM     37  H   LIG A   1      -6.740   2.628 135.052  0.00  0.00    +0.210 HD
ENDBRANCH  19  36
TORSDOF 5
ENDMDL
MODEL 7
REMARK VINA RESULT:      -9.8      5.454      7.785
REMARK  Name = NuBBE_1049
REMARK  13 active torsions:
REMARK  status: ('A' for Active; 'I' for Inactive)
REMARK    1  A    between atoms: C_1  and  C_2
REMARK    2  A    between atoms: C_6  and  C_29
REMARK    3  A    between atoms: C_7  and  C_8
REMARK    4  A    between atoms: C_9  and  C_11
REMARK    5  A    between atoms: C_11  and  C_13
REMARK    6  A    between atoms: C_11  and  C_14
REMARK    7  A    between atoms: C_15  and  O_17
REMARK    8  A    between atoms: C_18  and  O_20
REMARK    9  A    between atoms: C_21  and  C_22
REMARK   10  A    between atoms: C_21  and  C_23
REMARK   11  A    between atoms: C_34  and  C_35
REMARK   12  A    between atoms: C_34  and  C_41
REMARK   13  A    between atoms: C_36  and  O_40
REMARK                            x       y       z     vdW  Elec       q    Type
REMARK                         _______ _______ _______ _____ _____    ______ ____
ROOT
ATOM      1  C   LIG A   1      -3.070  -3.454 129.373  0.00  0.00    +0.012 C 
ATOM      2  C   LIG A   1      -4.191  -3.427 130.470  0.00  0.00    -0.022 C 
ATOM      3  C   LIG A   1      -5.140  -2.196 130.077  0.00  0.00    +0.021 C 
ATOM      4  C   LIG A   1      -4.863  -0.863 130.792  0.00  0.00    -0.063 C 
ATOM      5  C   LIG A   1      -5.733   0.353 130.331  0.00  0.00    -0.005 C 
ATOM      6  C   LIG A   1      -7.292  -0.001 130.245  0.00  0.00    -0.020 C 
ATOM      7  C   LIG A   1      -7.895   0.124 128.831  0.00  0.00    +0.012 C 
ATOM      8  C   LIG A   1      -8.012   0.885 131.353  0.00  0.00    +0.001 C 
ATOM      9  C   LIG A   1      -6.869   1.385 132.237  0.00  0.00    +0.005 C 
ATOM     10  C   LIG A   1      -5.713   1.580 131.285  0.00  0.00    +0.012 C 
ATOM     11  C   LIG A   1      -7.528  -1.477 130.682  0.00  0.00    +0.008 C 
ATOM     12  C   LIG A   1      -6.650  -2.486 129.957  0.00  0.00    +0.009 C 
ATOM     13  C   LIG A   1      -5.107   0.841 129.001  0.00  0.00    +0.016 C 
ATOM     14  C   LIG A   1      -3.843  -0.755 131.657  0.00  0.00    -0.026 C 
ATOM     15  C   LIG A   1      -2.892  -1.851 132.012  0.00  0.00    +0.031 C 
ATOM     16  C   LIG A   1      -3.476  -3.263 131.867  0.00  0.00    +0.007 C 
ATOM     17  C   LIG A   1      -4.270  -3.815 133.130  0.00  0.00    -0.005 C 
ATOM     18  C   LIG A   1      -4.374  -2.817 134.310  0.00  0.00    +0.014 C 
ATOM     19  C   LIG A   1      -5.701  -4.246 132.741  0.00  0.00    +0.120 C 
ATOM     20  C   LIG A   1      -5.734  -5.228 131.579  0.00  0.00    +0.032 C 
ATOM     21  C   LIG A   1      -4.847  -4.833 130.400  0.00  0.00    +0.010 C 
ATOM     22  C   LIG A   1      -3.492  -5.041 133.689  0.00  0.00    +0.014 C 
ENDROOT
BRANCH   8  23
ATOM     23  C   LIG A   1      -9.088   1.954 130.958  0.00  0.00    +0.021 C 
ATOM     24  C   LIG A   1     -10.276   1.862 131.942  0.00  0.00    +0.010 C 
BRANCH  23  25
ATOM     25  C   LIG A   1      -8.621   3.413 130.801  0.00  0.00    +0.153 C 
ATOM     26  C   LIG A   1      -9.121   4.123 129.546  0.00  0.00    +0.175 C 
ATOM     27  C   LIG A   1      -8.700   5.554 129.856  0.00  0.00    +0.177 C 
ATOM     28  C   LIG A   1      -8.927   5.647 131.384  0.00  0.00    +0.093 C 
ATOM     29  C   LIG A   1     -10.203   6.373 131.795  0.00  0.00    +0.044 C 
ATOM     30  C   LIG A   1      -7.713   6.282 132.069  0.00  0.00    +0.044 C 
ATOM     31  O   LIG A   1      -9.047   4.280 131.864  0.00  0.00    -0.365 OA
BRANCH  26  32
ATOM     32  O   LIG A   1      -8.535   3.637 128.348  0.00  0.00    -0.387 OA
ATOM     33  H   LIG A   1      -7.621   3.379 128.572  0.00  0.00    +0.210 HD
ENDBRANCH  26  32
BRANCH  27  34
ATOM     34  O   LIG A   1      -9.412   6.495 129.059  0.00  0.00    -0.386 OA
ATOM     35  H   LIG A   1      -8.890   7.315 129.003  0.00  0.00    +0.210 HD
ENDBRANCH  27  34
ENDBRANCH  23  25
ENDBRANCH   8  23
BRANCH  19  36
ATOM     36  O   LIG A   1      -6.381  -4.843 133.848  0.00  0.00    -0.391 OA
ATOM     37  H   LIG A   1      -6.721  -5.703 133.550  0.00  0.00    +0.210 HD
ENDBRANCH  19  36
TORSDOF 5
ENDMDL
MODEL 8
REMARK VINA RESULT:      -9.7      3.638      5.584
REMARK  Name = NuBBE_1049
REMARK  13 active torsions:
REMARK  status: ('A' for Active; 'I' for Inactive)
REMARK    1  A    between atoms: C_1  and  C_2
REMARK    2  A    between atoms: C_6  and  C_29
REMARK    3  A    between atoms: C_7  and  C_8
REMARK    4  A    between atoms: C_9  and  C_11
REMARK    5  A    between atoms: C_11  and  C_13
REMARK    6  A    between atoms: C_11  and  C_14
REMARK    7  A    between atoms: C_15  and  O_17
REMARK    8  A    between atoms: C_18  and  O_20
REMARK    9  A    between atoms: C_21  and  C_22
REMARK   10  A    between atoms: C_21  and  C_23
REMARK   11  A    between atoms: C_34  and  C_35
REMARK   12  A    between atoms: C_34  and  C_41
REMARK   13  A    between atoms: C_36  and  O_40
REMARK                            x       y       z     vdW  Elec       q    Type
REMARK                         _______ _______ _______ _____ _____    ______ ____
ROOT
ATOM      1  C   LIG A   1      -7.888  -2.362 129.579  0.00  0.00    +0.012 C 
ATOM      2  C   LIG A   1      -7.352  -1.483 130.764  0.00  0.00    -0.022 C 
ATOM      3  C   LIG A   1      -8.086  -0.067 130.608  0.00  0.00    +0.021 C 
ATOM      4  C   LIG A   1      -7.304   1.031 129.869  0.00  0.00    -0.063 C 
ATOM      5  C   LIG A   1      -8.067   2.378 129.640  0.00  0.00    -0.005 C 
ATOM      6  C   LIG A   1      -8.795   2.907 130.964  0.00  0.00    -0.020 C 
ATOM      7  C   LIG A   1     -10.330   3.004 130.850  0.00  0.00    +0.012 C 
ATOM      8  C   LIG A   1      -8.072   4.270 131.356  0.00  0.00    +0.001 C 
ATOM      9  C   LIG A   1      -6.788   4.267 130.526  0.00  0.00    +0.005 C 
ATOM     10  C   LIG A   1      -7.174   3.584 129.235  0.00  0.00    +0.012 C 
ATOM     11  C   LIG A   1      -8.514   1.938 132.151  0.00  0.00    +0.008 C 
ATOM     12  C   LIG A   1      -8.824   0.480 131.846  0.00  0.00    +0.009 C 
ATOM     13  C   LIG A   1      -9.012   2.129 128.439  0.00  0.00    +0.016 C 
ATOM     14  C   LIG A   1      -6.093   0.772 129.352  0.00  0.00    -0.026 C 
ATOM     15  C   LIG A   1      -5.391  -0.545 129.416  0.00  0.00    +0.031 C 
ATOM     16  C   LIG A   1      -5.783  -1.411 130.621  0.00  0.00    +0.007 C 
ATOM     17  C   LIG A   1      -4.969  -1.139 131.961  0.00  0.00    -0.005 C 
ATOM     18  C   LIG A   1      -3.924   0.000 131.857  0.00  0.00    +0.014 C 
ATOM     19  C   LIG A   1      -5.920  -0.810 133.132  0.00  0.00    +0.120 C 
ATOM     20  C   LIG A   1      -7.005  -1.859 133.332  0.00  0.00    +0.032 C 
ATOM     21  C   LIG A   1      -7.706  -2.288 132.044  0.00  0.00    +0.010 C 
ATOM     22  C   LIG A   1      -4.155  -2.421 132.296  0.00  0.00    +0.014 C 
ENDROOT
BRANCH   8  23
ATOM     23  C   LIG A   1      -8.862   5.623 131.387  0.00  0.00    +0.021 C 
ATOM     24  C   LIG A   1      -7.857   6.793 131.472  0.00  0.00    +0.010 C 
BRANCH  23  25
ATOM     25  C   LIG A   1      -9.896   5.872 130.273  0.00  0.00    +0.153 C 
ATOM     26  C   LIG A   1     -11.189   6.546 130.726  0.00  0.00    +0.175 C 
ATOM     27  C   LIG A   1     -11.821   6.858 129.375  0.00  0.00    +0.177 C 
ATOM     28  C   LIG A   1     -10.592   7.218 128.505  0.00  0.00    +0.093 C 
ATOM     29  C   LIG A   1     -10.383   8.712 128.286  0.00  0.00    +0.044 C 
ATOM     30  C   LIG A   1     -10.658   6.491 127.159  0.00  0.00    +0.044 C 
ATOM     31  O   LIG A   1      -9.425   6.729 129.221  0.00  0.00    -0.365 OA
BRANCH  26  32
ATOM     32  O   LIG A   1     -12.012   5.713 131.525  0.00  0.00    -0.387 OA
ATOM     33  H   LIG A   1     -12.406   6.287 132.209  0.00  0.00    +0.210 HD
ENDBRANCH  26  32
BRANCH  27  34
ATOM     34  O   LIG A   1     -12.826   7.861 129.485  0.00  0.00    -0.386 OA
ATOM     35  H   LIG A   1     -13.230   7.995 128.610  0.00  0.00    +0.210 HD
ENDBRANCH  27  34
ENDBRANCH  23  25
ENDBRANCH   8  23
BRANCH  19  36
ATOM     36  O   LIG A   1      -5.201  -0.673 134.360  0.00  0.00    -0.391 OA
ATOM     37  H   LIG A   1      -4.832   0.226 134.380  0.00  0.00    +0.210 HD
ENDBRANCH  19  36
TORSDOF 5
ENDMDL
MODEL 9
REMARK VINA RESULT:      -9.7      4.680      7.191
REMARK  Name = NuBBE_1049
REMARK  13 active torsions:
REMARK  status: ('A' for Active; 'I' for Inactive)
REMARK    1  A    between atoms: C_1  and  C_2
REMARK    2  A    between atoms: C_6  and  C_29
REMARK    3  A    between atoms: C_7  and  C_8
REMARK    4  A    between atoms: C_9  and  C_11
REMARK    5  A    between atoms: C_11  and  C_13
REMARK    6  A    between atoms: C_11  and  C_14
REMARK    7  A    between atoms: C_15  and  O_17
REMARK    8  A    between atoms: C_18  and  O_20
REMARK    9  A    between atoms: C_21  and  C_22
REMARK   10  A    between atoms: C_21  and  C_23
REMARK   11  A    between atoms: C_34  and  C_35
REMARK   12  A    between atoms: C_34  and  C_41
REMARK   13  A    between atoms: C_36  and  O_40
REMARK                            x       y       z     vdW  Elec       q    Type
REMARK                         _______ _______ _______ _____ _____    ______ ____
ROOT
ATOM      1  C   LIG A   1      -8.163  -3.506 128.775  0.00  0.00    +0.012 C 
ATOM      2  C   LIG A   1      -7.242  -2.685 129.744  0.00  0.00    -0.022 C 
ATOM      3  C   LIG A   1      -7.677  -1.155 129.549  0.00  0.00    +0.021 C 
ATOM      4  C   LIG A   1      -6.833  -0.324 128.568  0.00  0.00    -0.063 C 
ATOM      5  C   LIG A   1      -7.324   1.140 128.314  0.00  0.00    -0.005 C 
ATOM      6  C   LIG A   1      -7.663   1.921 129.670  0.00  0.00    -0.020 C 
ATOM      7  C   LIG A   1      -9.136   2.357 129.800  0.00  0.00    +0.012 C 
ATOM      8  C   LIG A   1      -6.609   3.109 129.775  0.00  0.00    +0.001 C 
ATOM      9  C   LIG A   1      -5.533   2.749 128.750  0.00  0.00    +0.005 C 
ATOM     10  C   LIG A   1      -6.289   2.076 127.630  0.00  0.00    +0.012 C 
ATOM     11  C   LIG A   1      -7.376   1.007 130.898  0.00  0.00    +0.008 C 
ATOM     12  C   LIG A   1      -8.038  -0.360 130.820  0.00  0.00    +0.009 C 
ATOM     13  C   LIG A   1      -8.508   1.023 127.323  0.00  0.00    +0.016 C 
ATOM     14  C   LIG A   1      -5.822  -0.891 127.891  0.00  0.00    -0.026 C 
ATOM     15  C   LIG A   1      -5.415  -2.325 127.990  0.00  0.00    +0.031 C 
ATOM     16  C   LIG A   1      -5.748  -2.983 129.336  0.00  0.00    +0.007 C 
ATOM     17  C   LIG A   1      -4.659  -2.803 130.482  0.00  0.00    -0.005 C 
ATOM     18  C   LIG A   1      -3.436  -1.944 130.075  0.00  0.00    +0.014 C 
ATOM     19  C   LIG A   1      -5.283  -2.178 131.748  0.00  0.00    +0.120 C 
ATOM     20  C   LIG A   1      -6.508  -2.933 132.245  0.00  0.00    +0.032 C 
ATOM     21  C   LIG A   1      -7.512  -3.288 131.150  0.00  0.00    +0.010 C 
ATOM     22  C   LIG A   1      -4.085  -4.208 130.825  0.00  0.00    +0.014 C 
ENDROOT
BRANCH   8  23
ATOM     23  C   LIG A   1      -7.076   4.605 129.779  0.00  0.00    +0.021 C 
ATOM     24  C   LIG A   1      -8.197   4.787 128.732  0.00  0.00    +0.010 C 
BRANCH  23  25
ATOM     25  C   LIG A   1      -7.485   5.222 131.130  0.00  0.00    +0.153 C 
ATOM     26  C   LIG A   1      -8.843   5.919 131.140  0.00  0.00    +0.175 C 
ATOM     27  C   LIG A   1      -9.017   6.155 132.635  0.00  0.00    +0.177 C 
ATOM     28  C   LIG A   1      -8.383   4.885 133.252  0.00  0.00    +0.093 C 
ATOM     29  C   LIG A   1      -9.388   3.837 133.722  0.00  0.00    +0.044 C 
ATOM     30  C   LIG A   1      -7.435   5.258 134.394  0.00  0.00    +0.044 C 
ATOM     31  O   LIG A   1      -7.593   4.268 132.198  0.00  0.00    -0.365 OA
BRANCH  26  32
ATOM     32  O   LIG A   1      -8.865   7.128 130.398  0.00  0.00    -0.387 OA
ATOM     33  H   LIG A   1      -8.430   6.937 129.545  0.00  0.00    +0.210 HD
ENDBRANCH  26  32
BRANCH  27  34
ATOM     34  O   LIG A   1     -10.378   6.404 132.973  0.00  0.00    -0.386 OA
ATOM     35  H   LIG A   1     -10.519   6.153 133.903  0.00  0.00    +0.210 HD
ENDBRANCH  27  34
ENDBRANCH  23  25
ENDBRANCH   8  23
BRANCH  19  36
ATOM     36  O   LIG A   1      -4.335  -2.114 132.816  0.00  0.00    -0.391 OA
ATOM     37  H   LIG A   1      -4.318  -2.988 133.241  0.00  0.00    +0.210 HD
ENDBRANCH  19  36
TORSDOF 5
ENDMDL
