MODEL 1
REMARK VINA RESULT:      -8.8      0.000      0.000
REMARK  Name = NuBBE_914
REMARK  12 active torsions:
REMARK  status: ('A' for Active; 'I' for Inactive)
REMARK    1  A    between atoms: C_2  and  C_3
REMARK    2  A    between atoms: C_7  and  N_8
REMARK    3  A    between atoms: C_11  and  O_12
REMARK    4  A    between atoms: N_13  and  C_14
REMARK    5  A    between atoms: C_15  and  C_32
REMARK    6  A    between atoms: C_18  and  C_19
REMARK    7  A    between atoms: C_19  and  C_20
REMARK    8  A    between atoms: C_20  and  C_21
REMARK    9  A    between atoms: C_21  and  C_22
REMARK   10  A    between atoms: C_21  and  C_23
REMARK   11  A    between atoms: C_24  and  O_25
REMARK   12  A    between atoms: C_26  and  C_27
REMARK                            x       y       z     vdW  Elec       q    Type
REMARK                         _______ _______ _______ _____ _____    ______ ____
ROOT
ATOM      1  C   LIG A   1      -7.567   4.951 129.983  0.00  0.00    +0.223 C 
ATOM      2  C   LIG A   1      -6.368   5.358 130.921  0.00  0.00    +0.204 C 
ATOM      3  O   LIG A   1      -6.601   4.922 132.296  0.00  0.00    -0.459 OA
ATOM      4  C   LIG A   1      -7.597   5.503 133.007  0.00  0.00    +0.313 C 
ATOM      5  C   LIG A   1      -8.186   4.606 134.071  0.00  0.00    +0.130 C 
ATOM      6  C   LIG A   1      -8.648   3.230 133.526  0.00  0.00    +0.168 C 
ATOM      7  C   LIG A   1      -9.164   3.173 132.058  0.00  0.00    +0.203 C 
ATOM      8  C   LIG A   1     -10.160   2.019 131.906  0.00  0.00    +0.055 C 
ATOM      9  O   LIG A   1      -8.071   2.801 131.172  0.00  0.00    -0.458 OA
ATOM     10  C   LIG A   1      -7.583   3.420 130.073  0.00  0.00    +0.332 C 
ATOM     11  O   LIG A   1      -6.899   2.761 129.285  0.00  0.00    -0.249 OA
ATOM     12  O   LIG A   1      -8.056   6.613 132.750  0.00  0.00    -0.250 OA
ATOM     13  C   LIG A   1      -5.927   6.820 130.815  0.00  0.00    +0.054 C 
ENDROOT
BRANCH   1  16
ATOM     14  O   LIG A   1      -9.448   6.120 128.113  0.00  0.00    -0.270 OA
ATOM     15  C   LIG A   1      -9.628   6.251 129.305  0.00  0.00    +0.248 C 
ATOM     16  N   LIG A   1      -8.800   5.685 130.278  0.00  0.00    -0.295 N 
ATOM     17  H   LIG A   1      -8.837   6.072 131.209  0.00  0.00    +0.150 HD
BRANCH  15  18
ATOM     18  C   LIG A   1     -10.844   6.985 129.812  0.00  0.00    +0.080 A 
ATOM     19  C   LIG A   1     -11.495   6.512 130.958  0.00  0.00    +0.017 A 
ATOM     20  C   LIG A   1     -12.650   7.120 131.432  0.00  0.00    +0.003 A 
ATOM     21  C   LIG A   1     -13.182   8.216 130.770  0.00  0.00    +0.027 A 
ATOM     22  C   LIG A   1     -12.559   8.740 129.638  0.00  0.00    +0.076 A 
ATOM     23  C   LIG A   1     -11.376   8.126 129.161  0.00  0.00    +0.150 A 
BRANCH  22  24
ATOM     24  N   LIG A   1     -13.065   9.892 128.989  0.00  0.00    -0.285 N 
ATOM     25  C   LIG A   1     -13.434  11.090 129.592  0.00  0.00    +0.330 C 
ATOM     26  O   LIG A   1     -13.418  11.370 130.783  0.00  0.00    -0.279 OA
ATOM     27  H   LIG A   1     -13.189   9.807 127.984  0.00  0.00    +0.155 HD
ENDBRANCH  22  24
BRANCH  23  28
ATOM     28  O   LIG A   1     -10.799   8.703 128.050  0.00  0.00    -0.504 OA
ATOM     29  H   LIG A   1     -11.282   9.533 127.853  0.00  0.00    +0.292 HD
ENDBRANCH  23  28
ENDBRANCH  15  18
ENDBRANCH   1  16
BRANCH   6  30
ATOM     30  O   LIG A   1      -7.649   2.228 133.744  0.00  0.00    -0.387 OA
ATOM     31  H   LIG A   1      -6.774   2.642 133.619  0.00  0.00    +0.210 HD
ENDBRANCH   6  30
BRANCH   5  32
ATOM     32  C   LIG A   1      -7.298   4.567 135.336  0.00  0.00    +0.018 C 
BRANCH  32  33
ATOM     33  C   LIG A   1      -7.005   5.954 135.947  0.00  0.00    +0.004 C 
BRANCH  33  34
ATOM     34  C   LIG A   1      -7.871   6.302 137.180  0.00  0.00    -0.017 C 
ATOM     35  C   LIG A   1      -7.029   6.231 138.460  0.00  0.00    +0.007 C 
ATOM     36  C   LIG A   1      -8.513   7.685 137.056  0.00  0.00    +0.007 C 
ENDBRANCH  33  34
ENDBRANCH  32  33
ENDBRANCH   5  32
TORSDOF 8
ENDMDL
MODEL 2
REMARK VINA RESULT:      -8.8      2.160      4.612
REMARK  Name = NuBBE_914
REMARK  12 active torsions:
REMARK  status: ('A' for Active; 'I' for Inactive)
REMARK    1  A    between atoms: C_2  and  C_3
REMARK    2  A    between atoms: C_7  and  N_8
REMARK    3  A    between atoms: C_11  and  O_12
REMARK    4  A    between atoms: N_13  and  C_14
REMARK    5  A    between atoms: C_15  and  C_32
REMARK    6  A    between atoms: C_18  and  C_19
REMARK    7  A    between atoms: C_19  and  C_20
REMARK    8  A    between atoms: C_20  and  C_21
REMARK    9  A    between atoms: C_21  and  C_22
REMARK   10  A    between atoms: C_21  and  C_23
REMARK   11  A    between atoms: C_24  and  O_25
REMARK   12  A    between atoms: C_26  and  C_27
REMARK                            x       y       z     vdW  Elec       q    Type
REMARK                         _______ _______ _______ _____ _____    ______ ____
ROOT
ATOM      1  C   LIG A   1      -8.193   3.062 131.533  0.00  0.00    +0.223 C 
ATOM      2  C   LIG A   1      -6.834   2.953 130.745  0.00  0.00    +0.204 C 
ATOM      3  O   LIG A   1      -5.887   3.978 131.178  0.00  0.00    -0.459 OA
ATOM      4  C   LIG A   1      -6.157   5.277 130.901  0.00  0.00    +0.313 C 
ATOM      5  C   LIG A   1      -5.558   6.245 131.894  0.00  0.00    +0.130 C 
ATOM      6  C   LIG A   1      -5.925   5.922 133.366  0.00  0.00    +0.168 C 
ATOM      7  C   LIG A   1      -7.308   5.258 133.633  0.00  0.00    +0.203 C 
ATOM      8  C   LIG A   1      -7.791   5.621 135.041  0.00  0.00    +0.055 C 
ATOM      9  O   LIG A   1      -7.152   3.812 133.688  0.00  0.00    -0.458 OA
ATOM     10  C   LIG A   1      -7.776   2.835 132.991  0.00  0.00    +0.332 C 
ATOM     11  O   LIG A   1      -7.746   1.686 133.439  0.00  0.00    -0.249 OA
ATOM     12  O   LIG A   1      -6.904   5.637 129.995  0.00  0.00    -0.250 OA
ATOM     13  C   LIG A   1      -6.971   2.859 129.222  0.00  0.00    +0.054 C 
ENDROOT
BRANCH   1  16
ATOM     14  O   LIG A   1     -10.977   3.267 130.749  0.00  0.00    -0.270 OA
ATOM     15  C   LIG A   1     -10.291   4.267 130.791  0.00  0.00    +0.248 C 
ATOM     16  N   LIG A   1      -8.954   4.269 131.200  0.00  0.00    -0.295 N 
ATOM     17  H   LIG A   1      -8.383   5.056 130.932  0.00  0.00    +0.150 HD
BRANCH  15  18
ATOM     18  C   LIG A   1     -10.891   5.613 130.473  0.00  0.00    +0.080 A 
ATOM     19  C   LIG A   1     -11.875   6.136 131.322  0.00  0.00    +0.017 A 
ATOM     20  C   LIG A   1     -12.498   7.345 131.042  0.00  0.00    +0.003 A 
ATOM     21  C   LIG A   1     -12.152   8.059 129.904  0.00  0.00    +0.027 A 
ATOM     22  C   LIG A   1     -11.163   7.593 129.039  0.00  0.00    +0.076 A 
ATOM     23  C   LIG A   1     -10.522   6.366 129.330  0.00  0.00    +0.150 A 
BRANCH  22  24
ATOM     24  N   LIG A   1     -10.767   8.343 127.906  0.00  0.00    -0.285 N 
ATOM     25  C   LIG A   1     -10.935   7.982 126.572  0.00  0.00    +0.330 C 
ATOM     26  O   LIG A   1     -11.426   6.954 126.126  0.00  0.00    -0.279 OA
ATOM     27  H   LIG A   1     -10.289   9.217 128.105  0.00  0.00    +0.155 HD
ENDBRANCH  22  24
BRANCH  23  28
ATOM     28  O   LIG A   1      -9.541   5.969 128.447  0.00  0.00    -0.504 OA
ATOM     29  H   LIG A   1      -8.732   6.490 128.637  0.00  0.00    +0.292 HD
ENDBRANCH  23  28
ENDBRANCH  15  18
ENDBRANCH   1  16
BRANCH   6  30
ATOM     30  O   LIG A   1      -4.882   5.179 134.006  0.00  0.00    -0.387 OA
ATOM     31  H   LIG A   1      -4.871   5.427 134.950  0.00  0.00    +0.210 HD
ENDBRANCH   6  30
BRANCH   5  32
ATOM     32  C   LIG A   1      -4.058   6.491 131.613  0.00  0.00    +0.018 C 
BRANCH  32  33
ATOM     33  C   LIG A   1      -3.755   6.979 130.179  0.00  0.00    +0.004 C 
BRANCH  33  34
ATOM     34  C   LIG A   1      -2.598   6.226 129.483  0.00  0.00    -0.017 C 
ATOM     35  C   LIG A   1      -2.952   4.742 129.313  0.00  0.00    +0.007 C 
ATOM     36  C   LIG A   1      -2.254   6.837 128.124  0.00  0.00    +0.007 C 
ENDBRANCH  33  34
ENDBRANCH  32  33
ENDBRANCH   5  32
TORSDOF 8
ENDMDL
MODEL 3
REMARK VINA RESULT:      -8.6      2.491      5.811
REMARK  Name = NuBBE_914
REMARK  12 active torsions:
REMARK  status: ('A' for Active; 'I' for Inactive)
REMARK    1  A    between atoms: C_2  and  C_3
REMARK    2  A    between atoms: C_7  and  N_8
REMARK    3  A    between atoms: C_11  and  O_12
REMARK    4  A    between atoms: N_13  and  C_14
REMARK    5  A    between atoms: C_15  and  C_32
REMARK    6  A    between atoms: C_18  and  C_19
REMARK    7  A    between atoms: C_19  and  C_20
REMARK    8  A    between atoms: C_20  and  C_21
REMARK    9  A    between atoms: C_21  and  C_22
REMARK   10  A    between atoms: C_21  and  C_23
REMARK   11  A    between atoms: C_24  and  O_25
REMARK   12  A    between atoms: C_26  and  C_27
REMARK                            x       y       z     vdW  Elec       q    Type
REMARK                         _______ _______ _______ _____ _____    ______ ____
ROOT
ATOM      1  C   LIG A   1      -8.687   3.783 132.586  0.00  0.00    +0.223 C 
ATOM      2  C   LIG A   1      -8.467   2.383 131.897  0.00  0.00    +0.204 C 
ATOM      3  O   LIG A   1      -7.634   2.506 130.703  0.00  0.00    -0.459 OA
ATOM      4  C   LIG A   1      -8.126   3.166 129.627  0.00  0.00    +0.313 C 
ATOM      5  C   LIG A   1      -7.060   3.808 128.770  0.00  0.00    +0.130 C 
ATOM      6  C   LIG A   1      -6.100   4.727 129.569  0.00  0.00    +0.168 C 
ATOM      7  C   LIG A   1      -6.680   5.466 130.811  0.00  0.00    +0.203 C 
ATOM      8  C   LIG A   1      -5.898   6.762 131.051  0.00  0.00    +0.055 C 
ATOM      9  O   LIG A   1      -6.419   4.684 132.010  0.00  0.00    -0.458 OA
ATOM     10  C   LIG A   1      -7.266   4.222 132.958  0.00  0.00    +0.332 C 
ATOM     11  O   LIG A   1      -6.798   3.891 134.051  0.00  0.00    -0.249 OA
ATOM     12  O   LIG A   1      -9.326   3.323 129.417  0.00  0.00    -0.250 OA
ATOM     13  C   LIG A   1      -9.740   1.564 131.665  0.00  0.00    +0.054 C 
ENDROOT
BRANCH   1  16
ATOM     14  O   LIG A   1      -9.654   6.421 133.299  0.00  0.00    -0.270 OA
ATOM     15  C   LIG A   1      -9.971   5.934 132.233  0.00  0.00    +0.248 C 
ATOM     16  N   LIG A   1      -9.517   4.690 131.788  0.00  0.00    -0.295 N 
ATOM     17  H   LIG A   1     -10.040   4.234 131.056  0.00  0.00    +0.150 HD
BRANCH  15  18
ATOM     18  C   LIG A   1     -10.832   6.711 131.270  0.00  0.00    +0.080 A 
ATOM     19  C   LIG A   1     -12.173   6.947 131.595  0.00  0.00    +0.017 A 
ATOM     20  C   LIG A   1     -13.021   7.609 130.716  0.00  0.00    +0.003 A 
ATOM     21  C   LIG A   1     -12.546   8.050 129.490  0.00  0.00    +0.027 A 
ATOM     22  C   LIG A   1     -11.213   7.860 129.128  0.00  0.00    +0.076 A 
ATOM     23  C   LIG A   1     -10.347   7.194 130.028  0.00  0.00    +0.150 A 
BRANCH  22  24
ATOM     24  N   LIG A   1     -10.708   8.355 127.902  0.00  0.00    -0.285 N 
ATOM     25  C   LIG A   1     -10.856   7.771 126.647  0.00  0.00    +0.330 C 
ATOM     26  O   LIG A   1     -11.420   6.721 126.367  0.00  0.00    -0.279 OA
ATOM     27  H   LIG A   1     -10.162   9.209 127.967  0.00  0.00    +0.155 HD
ENDBRANCH  22  24
BRANCH  23  28
ATOM     28  O   LIG A   1      -9.039   7.054 129.620  0.00  0.00    -0.504 OA
ATOM     29  H   LIG A   1      -9.034   6.534 128.788  0.00  0.00    +0.292 HD
ENDBRANCH  23  28
ENDBRANCH  15  18
ENDBRANCH   1  16
BRANCH   6  30
ATOM     30  O   LIG A   1      -4.896   4.035 129.917  0.00  0.00    -0.387 OA
ATOM     31  H   LIG A   1      -4.164   4.681 129.910  0.00  0.00    +0.210 HD
ENDBRANCH   6  30
BRANCH   5  32
ATOM     32  C   LIG A   1      -6.385   2.778 127.836  0.00  0.00    +0.018 C 
BRANCH  32  33
ATOM     33  C   LIG A   1      -6.522   3.102 126.332  0.00  0.00    +0.004 C 
BRANCH  33  34
ATOM     34  C   LIG A   1      -5.474   4.106 125.801  0.00  0.00    -0.017 C 
ATOM     35  C   LIG A   1      -4.065   3.698 126.252  0.00  0.00    +0.007 C 
ATOM     36  C   LIG A   1      -5.518   4.224 124.276  0.00  0.00    +0.007 C 
ENDBRANCH  33  34
ENDBRANCH  32  33
ENDBRANCH   5  32
TORSDOF 8
ENDMDL
MODEL 4
REMARK VINA RESULT:      -8.2      3.123      7.538
REMARK  Name = NuBBE_914
REMARK  12 active torsions:
REMARK  status: ('A' for Active; 'I' for Inactive)
REMARK    1  A    between atoms: C_2  and  C_3
REMARK    2  A    between atoms: C_7  and  N_8
REMARK    3  A    between atoms: C_11  and  O_12
REMARK    4  A    between atoms: N_13  and  C_14
REMARK    5  A    between atoms: C_15  and  C_32
REMARK    6  A    between atoms: C_18  and  C_19
REMARK    7  A    between atoms: C_19  and  C_20
REMARK    8  A    between atoms: C_20  and  C_21
REMARK    9  A    between atoms: C_21  and  C_22
REMARK   10  A    between atoms: C_21  and  C_23
REMARK   11  A    between atoms: C_24  and  O_25
REMARK   12  A    between atoms: C_26  and  C_27
REMARK                            x       y       z     vdW  Elec       q    Type
REMARK                         _______ _______ _______ _____ _____    ______ ____
ROOT
ATOM      1  C   LIG A   1      -6.504   3.518 132.781  0.00  0.00    +0.223 C 
ATOM      2  C   LIG A   1      -7.265   4.669 133.542  0.00  0.00    +0.204 C 
ATOM      3  O   LIG A   1      -8.275   5.289 132.689  0.00  0.00    -0.459 OA
ATOM      4  C   LIG A   1      -7.872   6.013 131.616  0.00  0.00    +0.313 C 
ATOM      5  C   LIG A   1      -8.875   6.033 130.486  0.00  0.00    +0.130 C 
ATOM      6  C   LIG A   1      -9.326   4.618 130.041  0.00  0.00    +0.168 C 
ATOM      7  C   LIG A   1      -8.294   3.459 130.172  0.00  0.00    +0.203 C 
ATOM      8  C   LIG A   1      -8.598   2.377 129.130  0.00  0.00    +0.055 C 
ATOM      9  O   LIG A   1      -8.490   2.774 131.442  0.00  0.00    -0.458 OA
ATOM     10  C   LIG A   1      -7.618   2.520 132.444  0.00  0.00    +0.332 C 
ATOM     11  O   LIG A   1      -7.901   1.634 133.255  0.00  0.00    -0.249 OA
ATOM     12  O   LIG A   1      -6.757   6.519 131.519  0.00  0.00    -0.250 OA
ATOM     13  C   LIG A   1      -6.365   5.684 134.252  0.00  0.00    +0.054 C 
ENDROOT
BRANCH   1  16
ATOM     14  O   LIG A   1      -3.609   3.577 132.660  0.00  0.00    -0.270 OA
ATOM     15  C   LIG A   1      -4.256   4.039 131.744  0.00  0.00    +0.248 C 
ATOM     16  N   LIG A   1      -5.653   4.014 131.696  0.00  0.00    -0.295 N 
ATOM     17  H   LIG A   1      -6.113   4.659 131.072  0.00  0.00    +0.150 HD
BRANCH  15  18
ATOM     18  C   LIG A   1      -3.560   4.606 130.532  0.00  0.00    +0.080 A 
ATOM     19  C   LIG A   1      -2.827   5.792 130.663  0.00  0.00    +0.017 A 
ATOM     20  C   LIG A   1      -2.214   6.384 129.566  0.00  0.00    +0.003 A 
ATOM     21  C   LIG A   1      -2.323   5.804 128.312  0.00  0.00    +0.027 A 
ATOM     22  C   LIG A   1      -3.022   4.612 128.132  0.00  0.00    +0.076 A 
ATOM     23  C   LIG A   1      -3.638   4.003 129.252  0.00  0.00    +0.150 A 
BRANCH  22  24
ATOM     24  N   LIG A   1      -3.091   3.985 126.865  0.00  0.00    -0.285 N 
ATOM     25  C   LIG A   1      -2.174   3.083 126.333  0.00  0.00    +0.330 C 
ATOM     26  O   LIG A   1      -1.134   2.682 126.837  0.00  0.00    -0.279 OA
ATOM     27  H   LIG A   1      -3.884   4.253 126.287  0.00  0.00    +0.155 HD
ENDBRANCH  22  24
BRANCH  23  28
ATOM     28  O   LIG A   1      -4.298   2.818 129.012  0.00  0.00    -0.504 OA
ATOM     29  H   LIG A   1      -4.380   2.706 128.041  0.00  0.00    +0.292 HD
ENDBRANCH  23  28
ENDBRANCH  15  18
ENDBRANCH   1  16
BRANCH   6  30
ATOM     30  O   LIG A   1     -10.567   4.255 130.656  0.00  0.00    -0.387 OA
ATOM     31  H   LIG A   1     -11.290   4.518 130.056  0.00  0.00    +0.210 HD
ENDBRANCH   6  30
BRANCH   5  32
ATOM     32  C   LIG A   1     -10.009   7.049 130.752  0.00  0.00    +0.018 C 
BRANCH  32  33
ATOM     33  C   LIG A   1     -10.634   7.648 129.473  0.00  0.00    +0.004 C 
BRANCH  33  34
ATOM     34  C   LIG A   1     -12.176   7.743 129.504  0.00  0.00    -0.017 C 
ATOM     35  C   LIG A   1     -12.708   7.356 130.890  0.00  0.00    +0.007 C 
ATOM     36  C   LIG A   1     -12.670   9.143 129.130  0.00  0.00    +0.007 C 
ENDBRANCH  33  34
ENDBRANCH  32  33
ENDBRANCH   5  32
TORSDOF 8
ENDMDL
MODEL 5
REMARK VINA RESULT:      -7.7      6.209      9.189
REMARK  Name = NuBBE_914
REMARK  12 active torsions:
REMARK  status: ('A' for Active; 'I' for Inactive)
REMARK    1  A    between atoms: C_2  and  C_3
REMARK    2  A    between atoms: C_7  and  N_8
REMARK    3  A    between atoms: C_11  and  O_12
REMARK    4  A    between atoms: N_13  and  C_14
REMARK    5  A    between atoms: C_15  and  C_32
REMARK    6  A    between atoms: C_18  and  C_19
REMARK    7  A    between atoms: C_19  and  C_20
REMARK    8  A    between atoms: C_20  and  C_21
REMARK    9  A    between atoms: C_21  and  C_22
REMARK   10  A    between atoms: C_21  and  C_23
REMARK   11  A    between atoms: C_24  and  O_25
REMARK   12  A    between atoms: C_26  and  C_27
REMARK                            x       y       z     vdW  Elec       q    Type
REMARK                         _______ _______ _______ _____ _____    ______ ____
ROOT
ATOM      1  C   LIG A   1      -5.977   0.278 131.636  0.00  0.00    +0.223 C 
ATOM      2  C   LIG A   1      -7.468  -0.215 131.759  0.00  0.00    +0.204 C 
ATOM      3  O   LIG A   1      -7.712  -1.380 130.911  0.00  0.00    -0.459 OA
ATOM      4  C   LIG A   1      -7.679  -1.228 129.565  0.00  0.00    +0.313 C 
ATOM      5  C   LIG A   1      -7.276  -2.481 128.824  0.00  0.00    +0.130 C 
ATOM      6  C   LIG A   1      -5.943  -3.092 129.328  0.00  0.00    +0.168 C 
ATOM      7  C   LIG A   1      -4.868  -2.112 129.884  0.00  0.00    +0.203 C 
ATOM      8  C   LIG A   1      -3.472  -2.716 129.692  0.00  0.00    +0.055 C 
ATOM      9  O   LIG A   1      -5.001  -2.012 131.329  0.00  0.00    -0.458 OA
ATOM     10  C   LIG A   1      -5.164  -0.928 132.122  0.00  0.00    +0.332 C 
ATOM     11  O   LIG A   1      -4.903  -1.036 133.323  0.00  0.00    -0.249 OA
ATOM     12  O   LIG A   1      -7.854  -0.152 128.999  0.00  0.00    -0.250 OA
ATOM     13  C   LIG A   1      -8.529   0.878 131.607  0.00  0.00    +0.054 C 
ENDROOT
BRANCH   1  16
ATOM     14  O   LIG A   1      -4.189   2.472 131.010  0.00  0.00    -0.270 OA
ATOM     15  C   LIG A   1      -4.819   1.940 130.120  0.00  0.00    +0.248 C 
ATOM     16  N   LIG A   1      -5.669   0.850 130.322  0.00  0.00    -0.295 N 
ATOM     17  H   LIG A   1      -6.364   0.659 129.616  0.00  0.00    +0.150 HD
BRANCH  15  18
ATOM     18  C   LIG A   1      -4.646   2.393 128.692  0.00  0.00    +0.080 A 
ATOM     19  C   LIG A   1      -3.356   2.657 128.214  0.00  0.00    +0.017 A 
ATOM     20  C   LIG A   1      -3.150   3.129 126.925  0.00  0.00    +0.003 A 
ATOM     21  C   LIG A   1      -4.229   3.351 126.083  0.00  0.00    +0.027 A 
ATOM     22  C   LIG A   1      -5.531   3.082 126.503  0.00  0.00    +0.076 A 
ATOM     23  C   LIG A   1      -5.741   2.592 127.814  0.00  0.00    +0.150 A 
BRANCH  22  24
ATOM     24  N   LIG A   1      -6.634   3.254 125.632  0.00  0.00    -0.285 N 
ATOM     25  C   LIG A   1      -7.164   4.464 125.193  0.00  0.00    +0.330 C 
ATOM     26  O   LIG A   1      -6.804   5.595 125.488  0.00  0.00    -0.279 OA
ATOM     27  H   LIG A   1      -7.088   2.398 125.327  0.00  0.00    +0.155 HD
ENDBRANCH  22  24
BRANCH  23  28
ATOM     28  O   LIG A   1      -7.048   2.329 128.162  0.00  0.00    -0.504 OA
ATOM     29  H   LIG A   1      -7.521   3.185 128.237  0.00  0.00    +0.292 HD
ENDBRANCH  23  28
ENDBRANCH  15  18
ENDBRANCH   1  16
BRANCH   6  30
ATOM     30  O   LIG A   1      -6.182  -4.153 130.260  0.00  0.00    -0.387 OA
ATOM     31  H   LIG A   1      -7.101  -4.459 130.140  0.00  0.00    +0.210 HD
ENDBRANCH   6  30
BRANCH   5  32
ATOM     32  C   LIG A   1      -8.460  -3.467 128.689  0.00  0.00    +0.018 C 
BRANCH  32  33
ATOM     33  C   LIG A   1      -8.906  -3.724 127.233  0.00  0.00    +0.004 C 
BRANCH  33  34
ATOM     34  C   LIG A   1      -8.229  -2.807 126.190  0.00  0.00    -0.017 C 
ATOM     35  C   LIG A   1      -7.905  -3.596 124.914  0.00  0.00    +0.007 C 
ATOM     36  C   LIG A   1      -9.099  -1.596 125.844  0.00  0.00    +0.007 C 
ENDBRANCH  33  34
ENDBRANCH  32  33
ENDBRANCH   5  32
TORSDOF 8
ENDMDL
MODEL 6
REMARK VINA RESULT:      -7.7      3.183      7.766
REMARK  Name = NuBBE_914
REMARK  12 active torsions:
REMARK  status: ('A' for Active; 'I' for Inactive)
REMARK    1  A    between atoms: C_2  and  C_3
REMARK    2  A    between atoms: C_7  and  N_8
REMARK    3  A    between atoms: C_11  and  O_12
REMARK    4  A    between atoms: N_13  and  C_14
REMARK    5  A    between atoms: C_15  and  C_32
REMARK    6  A    between atoms: C_18  and  C_19
REMARK    7  A    between atoms: C_19  and  C_20
REMARK    8  A    between atoms: C_20  and  C_21
REMARK    9  A    between atoms: C_21  and  C_22
REMARK   10  A    between atoms: C_21  and  C_23
REMARK   11  A    between atoms: C_24  and  O_25
REMARK   12  A    between atoms: C_26  and  C_27
REMARK                            x       y       z     vdW  Elec       q    Type
REMARK                         _______ _______ _______ _____ _____    ______ ____
ROOT
ATOM      1  C   LIG A   1      -7.232   3.196 133.103  0.00  0.00    +0.223 C 
ATOM      2  C   LIG A   1      -8.299   4.144 133.770  0.00  0.00    +0.204 C 
ATOM      3  O   LIG A   1      -9.061   4.875 132.761  0.00  0.00    -0.459 OA
ATOM      4  C   LIG A   1      -8.427   5.809 132.012  0.00  0.00    +0.313 C 
ATOM      5  C   LIG A   1      -9.038   6.007 130.644  0.00  0.00    +0.130 C 
ATOM      6  C   LIG A   1      -9.188   4.688 129.842  0.00  0.00    +0.168 C 
ATOM      7  C   LIG A   1      -8.133   3.570 130.093  0.00  0.00    +0.203 C 
ATOM      8  C   LIG A   1      -7.997   2.700 128.839  0.00  0.00    +0.055 C 
ATOM      9  O   LIG A   1      -8.634   2.644 131.098  0.00  0.00    -0.458 OA
ATOM     10  C   LIG A   1      -8.086   2.236 132.265  0.00  0.00    +0.332 C 
ATOM     11  O   LIG A   1      -8.510   1.198 132.780  0.00  0.00    -0.249 OA
ATOM     12  O   LIG A   1      -7.392   6.371 132.361  0.00  0.00    -0.250 OA
ATOM     13  C   LIG A   1      -7.764   5.038 134.891  0.00  0.00    +0.054 C 
ENDROOT
BRANCH   1  16
ATOM     14  O   LIG A   1      -4.413   3.208 133.776  0.00  0.00    -0.270 OA
ATOM     15  C   LIG A   1      -4.815   3.904 132.867  0.00  0.00    +0.248 C 
ATOM     16  N   LIG A   1      -6.147   3.928 132.445  0.00  0.00    -0.295 N 
ATOM     17  H   LIG A   1      -6.453   4.722 131.904  0.00  0.00    +0.150 HD
BRANCH  15  18
ATOM     18  C   LIG A   1      -3.849   4.742 132.069  0.00  0.00    +0.080 A 
ATOM     19  C   LIG A   1      -4.196   5.124 130.766  0.00  0.00    +0.017 A 
ATOM     20  C   LIG A   1      -3.317   5.848 129.971  0.00  0.00    +0.003 A 
ATOM     21  C   LIG A   1      -2.070   6.206 130.459  0.00  0.00    +0.027 A 
ATOM     22  C   LIG A   1      -1.685   5.871 131.757  0.00  0.00    +0.076 A 
ATOM     23  C   LIG A   1      -2.584   5.141 132.571  0.00  0.00    +0.150 A 
BRANCH  22  24
ATOM     24  N   LIG A   1      -0.436   6.280 132.281  0.00  0.00    -0.285 N 
ATOM     25  C   LIG A   1      -0.154   7.491 132.905  0.00  0.00    +0.330 C 
ATOM     26  O   LIG A   1      -0.911   8.433 133.098  0.00  0.00    -0.279 OA
ATOM     27  H   LIG A   1       0.328   5.621 132.155  0.00  0.00    +0.155 HD
ENDBRANCH  22  24
BRANCH  23  28
ATOM     28  O   LIG A   1      -2.152   4.857 133.848  0.00  0.00    -0.504 OA
ATOM     29  H   LIG A   1      -1.195   4.649 133.806  0.00  0.00    +0.292 HD
ENDBRANCH  23  28
ENDBRANCH  15  18
ENDBRANCH   1  16
BRANCH   6  30
ATOM     30  O   LIG A   1     -10.514   4.160 129.962  0.00  0.00    -0.387 OA
ATOM     31  H   LIG A   1     -10.791   3.839 129.083  0.00  0.00    +0.210 HD
ENDBRANCH   6  30
BRANCH   5  32
ATOM     32  C   LIG A   1     -10.296   6.903 130.707  0.00  0.00    +0.018 C 
BRANCH  32  33
ATOM     33  C   LIG A   1     -10.594   7.668 129.399  0.00  0.00    +0.004 C 
BRANCH  33  34
ATOM     34  C   LIG A   1     -12.088   7.687 129.001  0.00  0.00    -0.017 C 
ATOM     35  C   LIG A   1     -12.697   9.068 129.279  0.00  0.00    +0.007 C 
ATOM     36  C   LIG A   1     -12.292   7.316 127.531  0.00  0.00    +0.007 C 
ENDBRANCH  33  34
ENDBRANCH  32  33
ENDBRANCH   5  32
TORSDOF 8
ENDMDL
MODEL 7
REMARK VINA RESULT:      -7.7      3.368      6.716
REMARK  Name = NuBBE_914
REMARK  12 active torsions:
REMARK  status: ('A' for Active; 'I' for Inactive)
REMARK    1  A    between atoms: C_2  and  C_3
REMARK    2  A    between atoms: C_7  and  N_8
REMARK    3  A    between atoms: C_11  and  O_12
REMARK    4  A    between atoms: N_13  and  C_14
REMARK    5  A    between atoms: C_15  and  C_32
REMARK    6  A    between atoms: C_18  and  C_19
REMARK    7  A    between atoms: C_19  and  C_20
REMARK    8  A    between atoms: C_20  and  C_21
REMARK    9  A    between atoms: C_21  and  C_22
REMARK   10  A    between atoms: C_21  and  C_23
REMARK   11  A    between atoms: C_24  and  O_25
REMARK   12  A    between atoms: C_26  and  C_27
REMARK                            x       y       z     vdW  Elec       q    Type
REMARK                         _______ _______ _______ _____ _____    ______ ____
ROOT
ATOM      1  C   LIG A   1      -5.703   4.574 131.996  0.00  0.00    +0.223 C 
ATOM      2  C   LIG A   1      -6.126   6.091 131.994  0.00  0.00    +0.204 C 
ATOM      3  O   LIG A   1      -7.573   6.237 131.859  0.00  0.00    -0.459 OA
ATOM      4  C   LIG A   1      -8.161   5.880 130.691  0.00  0.00    +0.313 C 
ATOM      5  C   LIG A   1      -9.595   5.432 130.847  0.00  0.00    +0.130 C 
ATOM      6  C   LIG A   1      -9.778   4.312 131.904  0.00  0.00    +0.168 C 
ATOM      7  C   LIG A   1      -8.601   3.310 132.101  0.00  0.00    +0.203 C 
ATOM      8  C   LIG A   1      -9.146   1.969 132.603  0.00  0.00    +0.055 C 
ATOM      9  O   LIG A   1      -7.752   3.764 133.192  0.00  0.00    -0.458 OA
ATOM     10  C   LIG A   1      -6.423   4.008 133.226  0.00  0.00    +0.332 C 
ATOM     11  O   LIG A   1      -5.861   4.042 134.324  0.00  0.00    -0.249 OA
ATOM     12  O   LIG A   1      -7.562   5.822 129.620  0.00  0.00    -0.250 OA
ATOM     13  C   LIG A   1      -5.335   6.986 131.035  0.00  0.00    +0.054 C 
ENDROOT
BRANCH   1  16
ATOM     14  O   LIG A   1      -3.713   3.365 130.269  0.00  0.00    -0.270 OA
ATOM     15  C   LIG A   1      -4.873   3.399 129.915  0.00  0.00    +0.248 C 
ATOM     16  N   LIG A   1      -5.905   3.921 130.700  0.00  0.00    -0.295 N 
ATOM     17  H   LIG A   1      -6.762   4.180 130.237  0.00  0.00    +0.150 HD
BRANCH  15  18
ATOM     18  C   LIG A   1      -5.284   2.783 128.601  0.00  0.00    +0.080 A 
ATOM     19  C   LIG A   1      -5.134   1.402 128.422  0.00  0.00    +0.017 A 
ATOM     20  C   LIG A   1      -5.446   0.796 127.212  0.00  0.00    +0.003 A 
ATOM     21  C   LIG A   1      -5.914   1.558 126.152  0.00  0.00    +0.027 A 
ATOM     22  C   LIG A   1      -6.103   2.933 126.286  0.00  0.00    +0.076 A 
ATOM     23  C   LIG A   1      -5.794   3.549 127.522  0.00  0.00    +0.150 A 
BRANCH  22  24
ATOM     24  N   LIG A   1      -6.631   3.708 125.226  0.00  0.00    -0.285 N 
ATOM     25  C   LIG A   1      -7.964   3.775 124.831  0.00  0.00    +0.330 C 
ATOM     26  O   LIG A   1      -8.919   3.168 125.297  0.00  0.00    -0.279 OA
ATOM     27  H   LIG A   1      -5.950   4.243 124.695  0.00  0.00    +0.155 HD
ENDBRANCH  22  24
BRANCH  23  28
ATOM     28  O   LIG A   1      -6.020   4.906 127.597  0.00  0.00    -0.504 OA
ATOM     29  H   LIG A   1      -6.289   5.119 128.515  0.00  0.00    +0.292 HD
ENDBRANCH  23  28
ENDBRANCH  15  18
ENDBRANCH   1  16
BRANCH   6  30
ATOM     30  O   LIG A   1     -10.188   4.854 133.164  0.00  0.00    -0.387 OA
ATOM     31  H   LIG A   1      -9.388   5.134 133.647  0.00  0.00    +0.210 HD
ENDBRANCH   6  30
BRANCH   5  32
ATOM     32  C   LIG A   1     -10.557   6.636 130.969  0.00  0.00    +0.018 C 
BRANCH  32  33
ATOM     33  C   LIG A   1     -11.933   6.417 130.304  0.00  0.00    +0.004 C 
BRANCH  33  34
ATOM     34  C   LIG A   1     -12.010   6.889 128.834  0.00  0.00    -0.017 C 
ATOM     35  C   LIG A   1     -13.474   7.027 128.393  0.00  0.00    +0.007 C 
ATOM     36  C   LIG A   1     -11.276   8.215 128.620  0.00  0.00    +0.007 C 
ENDBRANCH  33  34
ENDBRANCH  32  33
ENDBRANCH   5  32
TORSDOF 8
ENDMDL
MODEL 8
REMARK VINA RESULT:      -7.6      4.894      8.429
REMARK  Name = NuBBE_914
REMARK  12 active torsions:
REMARK  status: ('A' for Active; 'I' for Inactive)
REMARK    1  A    between atoms: C_2  and  C_3
REMARK    2  A    between atoms: C_7  and  N_8
REMARK    3  A    between atoms: C_11  and  O_12
REMARK    4  A    between atoms: N_13  and  C_14
REMARK    5  A    between atoms: C_15  and  C_32
REMARK    6  A    between atoms: C_18  and  C_19
REMARK    7  A    between atoms: C_19  and  C_20
REMARK    8  A    between atoms: C_20  and  C_21
REMARK    9  A    between atoms: C_21  and  C_22
REMARK   10  A    between atoms: C_21  and  C_23
REMARK   11  A    between atoms: C_24  and  O_25
REMARK   12  A    between atoms: C_26  and  C_27
REMARK                            x       y       z     vdW  Elec       q    Type
REMARK                         _______ _______ _______ _____ _____    ______ ____
ROOT
ATOM      1  C   LIG A   1      -5.642   4.227 126.270  0.00  0.00    +0.223 C 
ATOM      2  C   LIG A   1      -4.382   3.283 126.229  0.00  0.00    +0.204 C 
ATOM      3  O   LIG A   1      -4.752   1.922 125.848  0.00  0.00    -0.459 OA
ATOM      4  C   LIG A   1      -5.506   1.186 126.700  0.00  0.00    +0.313 C 
ATOM      5  C   LIG A   1      -6.363   0.150 126.012  0.00  0.00    +0.130 C 
ATOM      6  C   LIG A   1      -7.249   0.738 124.882  0.00  0.00    +0.168 C 
ATOM      7  C   LIG A   1      -7.746   2.204 125.048  0.00  0.00    +0.203 C 
ATOM      8  C   LIG A   1      -9.066   2.389 124.291  0.00  0.00    +0.055 C 
ATOM      9  O   LIG A   1      -6.832   3.109 124.367  0.00  0.00    -0.458 OA
ATOM     10  C   LIG A   1      -6.161   4.189 124.827  0.00  0.00    +0.332 C 
ATOM     11  O   LIG A   1      -5.727   5.002 124.007  0.00  0.00    -0.249 OA
ATOM     12  O   LIG A   1      -5.573   1.404 127.908  0.00  0.00    -0.250 OA
ATOM     13  C   LIG A   1      -3.484   3.342 127.467  0.00  0.00    +0.054 C 
ENDROOT
BRANCH   1  16
ATOM     14  O   LIG A   1      -5.837   5.460 128.886  0.00  0.00    -0.270 OA
ATOM     15  C   LIG A   1      -6.561   4.527 128.608  0.00  0.00    +0.248 C 
ATOM     16  N   LIG A   1      -6.567   3.901 127.359  0.00  0.00    -0.295 N 
ATOM     17  H   LIG A   1      -6.965   2.976 127.299  0.00  0.00    +0.150 HD
BRANCH  15  18
ATOM     18  C   LIG A   1      -7.581   4.034 129.603  0.00  0.00    +0.080 A 
ATOM     19  C   LIG A   1      -7.399   2.780 130.200  0.00  0.00    +0.017 A 
ATOM     20  C   LIG A   1      -8.339   2.259 131.080  0.00  0.00    +0.003 A 
ATOM     21  C   LIG A   1      -9.484   2.980 131.383  0.00  0.00    +0.027 A 
ATOM     22  C   LIG A   1      -9.701   4.243 130.834  0.00  0.00    +0.076 A 
ATOM     23  C   LIG A   1      -8.739   4.778 129.944  0.00  0.00    +0.150 A 
BRANCH  22  24
ATOM     24  N   LIG A   1     -10.841   5.008 131.180  0.00  0.00    -0.285 N 
ATOM     25  C   LIG A   1     -10.898   6.034 132.118  0.00  0.00    +0.330 C 
ATOM     26  O   LIG A   1      -9.997   6.453 132.832  0.00  0.00    -0.279 OA
ATOM     27  H   LIG A   1     -11.701   4.749 130.705  0.00  0.00    +0.155 HD
ENDBRANCH  22  24
BRANCH  23  28
ATOM     28  O   LIG A   1      -9.003   6.037 129.450  0.00  0.00    -0.504 OA
ATOM     29  H   LIG A   1      -9.902   6.297 129.745  0.00  0.00    +0.292 HD
ENDBRANCH  23  28
ENDBRANCH  15  18
ENDBRANCH   1  16
BRANCH   6  30
ATOM     30  O   LIG A   1      -6.636   0.559 123.601  0.00  0.00    -0.387 OA
ATOM     31  H   LIG A   1      -6.849  -0.340 123.287  0.00  0.00    +0.210 HD
ENDBRANCH   6  30
BRANCH   5  32
ATOM     32  C   LIG A   1      -5.545  -1.108 125.640  0.00  0.00    +0.018 C 
BRANCH  32  33
ATOM     33  C   LIG A   1      -6.334  -2.431 125.752  0.00  0.00    +0.004 C 
BRANCH  33  34
ATOM     34  C   LIG A   1      -6.642  -3.103 124.395  0.00  0.00    -0.017 C 
ATOM     35  C   LIG A   1      -5.424  -3.895 123.902  0.00  0.00    +0.007 C 
ATOM     36  C   LIG A   1      -7.862  -4.023 124.477  0.00  0.00    +0.007 C 
ENDBRANCH  33  34
ENDBRANCH  32  33
ENDBRANCH   5  32
TORSDOF 8
ENDMDL
MODEL 9
REMARK VINA RESULT:      -7.6      6.371      9.077
REMARK  Name = NuBBE_914
REMARK  12 active torsions:
REMARK  status: ('A' for Active; 'I' for Inactive)
REMARK    1  A    between atoms: C_2  and  C_3
REMARK    2  A    between atoms: C_7  and  N_8
REMARK    3  A    between atoms: C_11  and  O_12
REMARK    4  A    between atoms: N_13  and  C_14
REMARK    5  A    between atoms: C_15  and  C_32
REMARK    6  A    between atoms: C_18  and  C_19
REMARK    7  A    between atoms: C_19  and  C_20
REMARK    8  A    between atoms: C_20  and  C_21
REMARK    9  A    between atoms: C_21  and  C_22
REMARK   10  A    between atoms: C_21  and  C_23
REMARK   11  A    between atoms: C_24  and  O_25
REMARK   12  A    between atoms: C_26  and  C_27
REMARK                            x       y       z     vdW  Elec       q    Type
REMARK                         _______ _______ _______ _____ _____    ______ ____
ROOT
ATOM      1  C   LIG A   1      -7.560  -1.748 129.828  0.00  0.00    +0.223 C 
ATOM      2  C   LIG A   1      -6.033  -1.774 130.214  0.00  0.00    +0.204 C 
ATOM      3  O   LIG A   1      -5.397  -0.487 129.942  0.00  0.00    -0.459 OA
ATOM      4  C   LIG A   1      -5.255  -0.085 128.656  0.00  0.00    +0.313 C 
ATOM      5  C   LIG A   1      -5.236   1.416 128.488  0.00  0.00    +0.130 C 
ATOM      6  C   LIG A   1      -6.452   2.123 129.141  0.00  0.00    +0.168 C 
ATOM      7  C   LIG A   1      -7.799   1.341 129.186  0.00  0.00    +0.203 C 
ATOM      8  C   LIG A   1      -8.969   2.331 129.201  0.00  0.00    +0.055 C 
ATOM      9  O   LIG A   1      -7.919   0.652 130.462  0.00  0.00    -0.458 OA
ATOM     10  C   LIG A   1      -8.136  -0.655 130.736  0.00  0.00    +0.332 C 
ATOM     11  O   LIG A   1      -8.548  -0.957 131.859  0.00  0.00    -0.249 OA
ATOM     12  O   LIG A   1      -5.249  -0.857 127.701  0.00  0.00    -0.250 OA
ATOM     13  C   LIG A   1      -5.244  -2.967 129.667  0.00  0.00    +0.054 C 
ENDROOT
BRANCH   1  16
ATOM     14  O   LIG A   1      -8.830  -3.681 128.080  0.00  0.00    -0.270 OA
ATOM     15  C   LIG A   1      -8.373  -2.659 127.612  0.00  0.00    +0.248 C 
ATOM     16  N   LIG A   1      -7.784  -1.653 128.383  0.00  0.00    -0.295 N 
ATOM     17  H   LIG A   1      -7.180  -0.995 127.914  0.00  0.00    +0.150 HD
BRANCH  15  18
ATOM     18  C   LIG A   1      -8.498  -2.378 126.136  0.00  0.00    +0.080 A 
ATOM     19  C   LIG A   1      -8.415  -3.444 125.232  0.00  0.00    +0.017 A 
ATOM     20  C   LIG A   1      -8.468  -3.230 123.860  0.00  0.00    +0.003 A 
ATOM     21  C   LIG A   1      -8.604  -1.943 123.362  0.00  0.00    +0.027 A 
ATOM     22  C   LIG A   1      -8.714  -0.850 124.220  0.00  0.00    +0.076 A 
ATOM     23  C   LIG A   1      -8.669  -1.069 125.617  0.00  0.00    +0.150 A 
BRANCH  22  24
ATOM     24  N   LIG A   1      -8.907   0.460 123.719  0.00  0.00    -0.285 N 
ATOM     25  C   LIG A   1     -10.003   0.918 122.995  0.00  0.00    +0.330 C 
ATOM     26  O   LIG A   1     -10.985   0.284 122.633  0.00  0.00    -0.279 OA
ATOM     27  H   LIG A   1      -8.146   1.111 123.893  0.00  0.00    +0.155 HD
ENDBRANCH  22  24
BRANCH  23  28
ATOM     28  O   LIG A   1      -8.801   0.049 126.411  0.00  0.00    -0.504 OA
ATOM     29  H   LIG A   1      -8.758   0.840 125.833  0.00  0.00    +0.292 HD
ENDBRANCH  23  28
ENDBRANCH  15  18
ENDBRANCH   1  16
BRANCH   6  30
ATOM     30  O   LIG A   1      -6.121   2.624 130.440  0.00  0.00    -0.387 OA
ATOM     31  H   LIG A   1      -5.173   2.856 130.441  0.00  0.00    +0.210 HD
ENDBRANCH   6  30
BRANCH   5  32
ATOM     32  C   LIG A   1      -3.850   2.008 128.831  0.00  0.00    +0.018 C 
BRANCH  32  33
ATOM     33  C   LIG A   1      -3.441   3.211 127.954  0.00  0.00    +0.004 C 
BRANCH  33  34
ATOM     34  C   LIG A   1      -3.509   4.576 128.676  0.00  0.00    -0.017 C 
ATOM     35  C   LIG A   1      -3.179   4.411 130.165  0.00  0.00    +0.007 C 
ATOM     36  C   LIG A   1      -2.566   5.604 128.045  0.00  0.00    +0.007 C 
ENDBRANCH  33  34
ENDBRANCH  32  33
ENDBRANCH   5  32
TORSDOF 8
ENDMDL
