MODEL 1
REMARK VINA RESULT:      -7.2      0.000      0.000
REMARK  Name = NuBBE_1930
REMARK  4 active torsions:
REMARK  status: ('A' for Active; 'I' for Inactive)
REMARK    1  A    between atoms: C_1  and  C_2
REMARK    2  A    between atoms: C_2  and  C_3
REMARK    3  A    between atoms: C_10  and  C_19
REMARK    4  A    between atoms: C_15  and  C_16
REMARK                            x       y       z     vdW  Elec       q    Type
REMARK                         _______ _______ _______ _____ _____    ______ ____
ROOT
ATOM      1  C   LIG A   1      -8.571  -3.658 128.858  0.00  0.00    +0.012 C 
ATOM      2  C   LIG A   1      -7.872  -2.677 127.923  0.00  0.00    -0.025 C 
ATOM      3  C   LIG A   1      -6.390  -2.722 128.355  0.00  0.00    +0.012 C 
ATOM      4  C   LIG A   1      -7.764  -2.058 126.537  0.00  0.00    +0.025 C 
ATOM      5  C   LIG A   1      -8.731  -3.114 126.557  0.00  0.00    +0.003 C 
ATOM      6  C   LIG A   1      -9.775  -2.668 125.562  0.00  0.00    +0.005 C 
ATOM      7  C   LIG A   1      -9.475  -3.355 124.191  0.00  0.00    +0.004 C 
ATOM      8  C   LIG A   1      -8.030  -3.227 123.578  0.00  0.00    -0.007 C 
ATOM      9  C   LIG A   1      -6.877  -3.491 124.597  0.00  0.00    +0.018 C 
ATOM     10  C   LIG A   1      -6.707  -2.325 125.553  0.00  0.00    -0.063 C 
ATOM     11  C   LIG A   1      -5.631  -1.602 125.250  0.00  0.00    -0.073 C 
ATOM     12  C   LIG A   1      -5.268  -0.258 125.785  0.00  0.00    +0.039 C 
ATOM     13  C   LIG A   1      -4.794  -2.261 124.198  0.00  0.00    +0.031 C 
ATOM     14  C   LIG A   1      -5.456  -3.627 124.048  0.00  0.00    +0.012 C 
ATOM     15  C   LIG A   1      -7.893  -1.901 122.816  0.00  0.00    +0.008 C 
ENDROOT
TORSDOF 0
ENDMDL
MODEL 2
REMARK VINA RESULT:      -6.6      1.995      3.659
REMARK  Name = NuBBE_1930
REMARK  4 active torsions:
REMARK  status: ('A' for Active; 'I' for Inactive)
REMARK    1  A    between atoms: C_1  and  C_2
REMARK    2  A    between atoms: C_2  and  C_3
REMARK    3  A    between atoms: C_10  and  C_19
REMARK    4  A    between atoms: C_15  and  C_16
REMARK                            x       y       z     vdW  Elec       q    Type
REMARK                         _______ _______ _______ _____ _____    ______ ____
ROOT
ATOM      1  C   LIG A   1     -10.059   1.525 124.366  0.00  0.00    +0.012 C 
ATOM      2  C   LIG A   1      -8.926   0.717 124.989  0.00  0.00    -0.025 C 
ATOM      3  C   LIG A   1      -9.015   1.029 126.498  0.00  0.00    +0.012 C 
ATOM      4  C   LIG A   1      -8.087  -0.553 124.992  0.00  0.00    +0.025 C 
ATOM      5  C   LIG A   1      -9.150  -0.638 124.035  0.00  0.00    +0.003 C 
ATOM      6  C   LIG A   1      -8.566  -1.470 122.919  0.00  0.00    +0.005 C 
ATOM      7  C   LIG A   1      -9.016  -2.953 123.123  0.00  0.00    +0.004 C 
ATOM      8  C   LIG A   1      -8.763  -3.637 124.518  0.00  0.00    -0.007 C 
ATOM      9  C   LIG A   1      -9.169  -2.759 125.744  0.00  0.00    +0.018 C 
ATOM     10  C   LIG A   1      -8.172  -1.640 125.976  0.00  0.00    -0.063 C 
ATOM     11  C   LIG A   1      -7.389  -1.896 127.023  0.00  0.00    -0.073 C 
ATOM     12  C   LIG A   1      -6.144  -1.175 127.415  0.00  0.00    +0.039 C 
ATOM     13  C   LIG A   1      -7.853  -3.098 127.785  0.00  0.00    +0.031 C 
ATOM     14  C   LIG A   1      -9.188  -3.422 127.123  0.00  0.00    +0.012 C 
ATOM     15  C   LIG A   1      -7.328  -4.180 124.591  0.00  0.00    +0.008 C 
ENDROOT
TORSDOF 0
ENDMDL
MODEL 3
REMARK VINA RESULT:      -6.4      1.829      4.243
REMARK  Name = NuBBE_1930
REMARK  4 active torsions:
REMARK  status: ('A' for Active; 'I' for Inactive)
REMARK    1  A    between atoms: C_1  and  C_2
REMARK    2  A    between atoms: C_2  and  C_3
REMARK    3  A    between atoms: C_10  and  C_19
REMARK    4  A    between atoms: C_15  and  C_16
REMARK                            x       y       z     vdW  Elec       q    Type
REMARK                         _______ _______ _______ _____ _____    ______ ____
ROOT
ATOM      1  C   LIG A   1      -9.020  -2.541 123.089  0.00  0.00    +0.012 C 
ATOM      2  C   LIG A   1      -9.047  -2.681 124.607  0.00  0.00    -0.025 C 
ATOM      3  C   LIG A   1      -8.308  -4.007 124.885  0.00  0.00    +0.012 C 
ATOM      4  C   LIG A   1      -8.991  -2.012 125.974  0.00  0.00    +0.025 C 
ATOM      5  C   LIG A   1      -8.759  -1.065 124.925  0.00  0.00    +0.003 C 
ATOM      6  C   LIG A   1      -9.361   0.215 125.453  0.00  0.00    +0.005 C 
ATOM      7  C   LIG A   1      -8.220   1.071 126.090  0.00  0.00    +0.004 C 
ATOM      8  C   LIG A   1      -7.287   0.408 127.170  0.00  0.00    -0.007 C 
ATOM      9  C   LIG A   1      -6.766  -1.012 126.781  0.00  0.00    +0.018 C 
ATOM     10  C   LIG A   1      -7.860  -2.055 126.909  0.00  0.00    -0.063 C 
ATOM     11  C   LIG A   1      -7.687  -2.810 127.992  0.00  0.00    -0.073 C 
ATOM     12  C   LIG A   1      -8.664  -3.763 128.593  0.00  0.00    +0.039 C 
ATOM     13  C   LIG A   1      -6.365  -2.553 128.646  0.00  0.00    +0.031 C 
ATOM     14  C   LIG A   1      -5.669  -1.633 127.649  0.00  0.00    +0.012 C 
ATOM     15  C   LIG A   1      -7.952   0.468 128.554  0.00  0.00    +0.008 C 
ENDROOT
TORSDOF 0
ENDMDL
MODEL 4
REMARK VINA RESULT:      -6.4      1.422      2.359
REMARK  Name = NuBBE_1930
REMARK  4 active torsions:
REMARK  status: ('A' for Active; 'I' for Inactive)
REMARK    1  A    between atoms: C_1  and  C_2
REMARK    2  A    between atoms: C_2  and  C_3
REMARK    3  A    between atoms: C_10  and  C_19
REMARK    4  A    between atoms: C_15  and  C_16
REMARK                            x       y       z     vdW  Elec       q    Type
REMARK                         _______ _______ _______ _____ _____    ______ ____
ROOT
ATOM      1  C   LIG A   1      -5.821  -0.660 128.550  0.00  0.00    +0.012 C 
ATOM      2  C   LIG A   1      -6.400  -0.391 127.165  0.00  0.00    -0.025 C 
ATOM      3  C   LIG A   1      -5.249   0.288 126.391  0.00  0.00    +0.012 C 
ATOM      4  C   LIG A   1      -7.305  -0.840 126.026  0.00  0.00    +0.025 C 
ATOM      5  C   LIG A   1      -7.225  -1.841 127.049  0.00  0.00    +0.003 C 
ATOM      6  C   LIG A   1      -8.589  -2.485 127.033  0.00  0.00    +0.005 C 
ATOM      7  C   LIG A   1      -8.514  -3.779 126.160  0.00  0.00    +0.004 C 
ATOM      8  C   LIG A   1      -7.929  -3.677 124.702  0.00  0.00    -0.007 C 
ATOM      9  C   LIG A   1      -6.603  -2.859 124.600  0.00  0.00    +0.018 C 
ATOM     10  C   LIG A   1      -6.862  -1.370 124.730  0.00  0.00    -0.063 C 
ATOM     11  C   LIG A   1      -6.773  -0.756 123.552  0.00  0.00    -0.073 C 
ATOM     12  C   LIG A   1      -7.198   0.635 123.226  0.00  0.00    +0.039 C 
ATOM     13  C   LIG A   1      -6.242  -1.666 122.488  0.00  0.00    +0.031 C 
ATOM     14  C   LIG A   1      -5.835  -2.906 123.277  0.00  0.00    +0.012 C 
ATOM     15  C   LIG A   1      -9.020  -3.216 123.724  0.00  0.00    +0.008 C 
ENDROOT
TORSDOF 0
ENDMDL
MODEL 5
REMARK VINA RESULT:      -6.1      1.849      4.375
REMARK  Name = NuBBE_1930
REMARK  4 active torsions:
REMARK  status: ('A' for Active; 'I' for Inactive)
REMARK    1  A    between atoms: C_1  and  C_2
REMARK    2  A    between atoms: C_2  and  C_3
REMARK    3  A    between atoms: C_10  and  C_19
REMARK    4  A    between atoms: C_15  and  C_16
REMARK                            x       y       z     vdW  Elec       q    Type
REMARK                         _______ _______ _______ _____ _____    ______ ____
ROOT
ATOM      1  C   LIG A   1      -4.854  -3.839 123.937  0.00  0.00    +0.012 C 
ATOM      2  C   LIG A   1      -5.315  -2.398 124.132  0.00  0.00    -0.025 C 
ATOM      3  C   LIG A   1      -6.119  -2.074 122.855  0.00  0.00    +0.012 C 
ATOM      4  C   LIG A   1      -5.796  -1.307 125.077  0.00  0.00    +0.025 C 
ATOM      5  C   LIG A   1      -5.671  -2.561 125.758  0.00  0.00    +0.003 C 
ATOM      6  C   LIG A   1      -5.254  -2.174 127.156  0.00  0.00    +0.005 C 
ATOM      7  C   LIG A   1      -6.529  -2.137 128.059  0.00  0.00    +0.004 C 
ATOM      8  C   LIG A   1      -7.766  -1.284 127.590  0.00  0.00    -0.007 C 
ATOM      9  C   LIG A   1      -8.151  -1.485 126.090  0.00  0.00    +0.018 C 
ATOM     10  C   LIG A   1      -7.167  -0.789 125.169  0.00  0.00    -0.063 C 
ATOM     11  C   LIG A   1      -7.686   0.327 124.658  0.00  0.00    -0.073 C 
ATOM     12  C   LIG A   1      -6.962   1.402 123.922  0.00  0.00    +0.039 C 
ATOM     13  C   LIG A   1      -9.144   0.458 124.970  0.00  0.00    +0.031 C 
ATOM     14  C   LIG A   1      -9.474  -0.889 125.607  0.00  0.00    +0.012 C 
ATOM     15  C   LIG A   1      -7.577   0.187 127.990  0.00  0.00    +0.008 C 
ENDROOT
TORSDOF 0
ENDMDL
MODEL 6
REMARK VINA RESULT:      -6.1      2.034      4.606
REMARK  Name = NuBBE_1930
REMARK  4 active torsions:
REMARK  status: ('A' for Active; 'I' for Inactive)
REMARK    1  A    between atoms: C_1  and  C_2
REMARK    2  A    between atoms: C_2  and  C_3
REMARK    3  A    between atoms: C_10  and  C_19
REMARK    4  A    between atoms: C_15  and  C_16
REMARK                            x       y       z     vdW  Elec       q    Type
REMARK                         _______ _______ _______ _____ _____    ______ ____
ROOT
ATOM      1  C   LIG A   1      -8.806   2.137 123.100  0.00  0.00    +0.012 C 
ATOM      2  C   LIG A   1      -8.898   0.838 123.893  0.00  0.00    -0.025 C 
ATOM      3  C   LIG A   1      -9.525  -0.171 122.908  0.00  0.00    +0.012 C 
ATOM      4  C   LIG A   1      -8.292  -0.093 124.934  0.00  0.00    +0.025 C 
ATOM      5  C   LIG A   1      -7.416   1.004 124.650  0.00  0.00    +0.003 C 
ATOM      6  C   LIG A   1      -6.727   1.267 125.967  0.00  0.00    +0.005 C 
ATOM      7  C   LIG A   1      -5.346   0.535 125.957  0.00  0.00    +0.004 C 
ATOM      8  C   LIG A   1      -5.305  -0.999 125.603  0.00  0.00    -0.007 C 
ATOM      9  C   LIG A   1      -6.152  -1.390 124.351  0.00  0.00    +0.018 C 
ATOM     10  C   LIG A   1      -7.637  -1.379 124.664  0.00  0.00    -0.063 C 
ATOM     11  C   LIG A   1      -8.117  -2.615 124.784  0.00  0.00    -0.073 C 
ATOM     12  C   LIG A   1      -9.448  -3.016 125.324  0.00  0.00    +0.039 C 
ATOM     13  C   LIG A   1      -7.113  -3.646 124.372  0.00  0.00    +0.031 C 
ATOM     14  C   LIG A   1      -5.985  -2.803 123.789  0.00  0.00    +0.012 C 
ATOM     15  C   LIG A   1      -5.616  -1.839 126.850  0.00  0.00    +0.008 C 
ENDROOT
TORSDOF 0
ENDMDL
MODEL 7
REMARK VINA RESULT:      -6.0      1.710      3.517
REMARK  Name = NuBBE_1930
REMARK  4 active torsions:
REMARK  status: ('A' for Active; 'I' for Inactive)
REMARK    1  A    between atoms: C_1  and  C_2
REMARK    2  A    between atoms: C_2  and  C_3
REMARK    3  A    between atoms: C_10  and  C_19
REMARK    4  A    between atoms: C_15  and  C_16
REMARK                            x       y       z     vdW  Elec       q    Type
REMARK                         _______ _______ _______ _____ _____    ______ ____
ROOT
ATOM      1  C   LIG A   1      -5.488   1.040 126.953  0.00  0.00    +0.012 C 
ATOM      2  C   LIG A   1      -5.536  -0.166 126.021  0.00  0.00    -0.025 C 
ATOM      3  C   LIG A   1      -5.320  -1.380 126.949  0.00  0.00    +0.012 C 
ATOM      4  C   LIG A   1      -6.133  -0.831 124.789  0.00  0.00    +0.025 C 
ATOM      5  C   LIG A   1      -6.793   0.408 125.079  0.00  0.00    +0.003 C 
ATOM      6  C   LIG A   1      -7.169   0.945 123.720  0.00  0.00    +0.005 C 
ATOM      7  C   LIG A   1      -8.654   0.553 123.427  0.00  0.00    +0.004 C 
ATOM      8  C   LIG A   1      -9.081  -0.956 123.569  0.00  0.00    -0.007 C 
ATOM      9  C   LIG A   1      -8.569  -1.648 124.871  0.00  0.00    +0.018 C 
ATOM     10  C   LIG A   1      -7.084  -1.950 124.788  0.00  0.00    -0.063 C 
ATOM     11  C   LIG A   1      -6.863  -3.247 124.581  0.00  0.00    -0.073 C 
ATOM     12  C   LIG A   1      -5.575  -3.892 124.199  0.00  0.00    +0.039 C 
ATOM     13  C   LIG A   1      -8.119  -4.052 124.700  0.00  0.00    +0.031 C 
ATOM     14  C   LIG A   1      -9.128  -3.030 125.214  0.00  0.00    +0.012 C 
ATOM     15  C   LIG A   1      -8.742  -1.725 122.283  0.00  0.00    +0.008 C 
ENDROOT
TORSDOF 0
ENDMDL
MODEL 8
REMARK VINA RESULT:      -6.0      2.104      4.608
REMARK  Name = NuBBE_1930
REMARK  4 active torsions:
REMARK  status: ('A' for Active; 'I' for Inactive)
REMARK    1  A    between atoms: C_1  and  C_2
REMARK    2  A    between atoms: C_2  and  C_3
REMARK    3  A    between atoms: C_10  and  C_19
REMARK    4  A    between atoms: C_15  and  C_16
REMARK                            x       y       z     vdW  Elec       q    Type
REMARK                         _______ _______ _______ _____ _____    ______ ____
ROOT
ATOM      1  C   LIG A   1      -7.676  -4.492 124.707  0.00  0.00    +0.012 C 
ATOM      2  C   LIG A   1      -8.042  -3.175 124.031  0.00  0.00    -0.025 C 
ATOM      3  C   LIG A   1      -9.585  -3.183 123.982  0.00  0.00    +0.012 C 
ATOM      4  C   LIG A   1      -7.740  -1.699 123.816  0.00  0.00    +0.025 C 
ATOM      5  C   LIG A   1      -6.876  -2.263 124.810  0.00  0.00    +0.003 C 
ATOM      6  C   LIG A   1      -5.581  -1.509 124.635  0.00  0.00    +0.005 C 
ATOM      7  C   LIG A   1      -5.544  -0.344 125.676  0.00  0.00    +0.004 C 
ATOM      8  C   LIG A   1      -6.764   0.650 125.746  0.00  0.00    -0.007 C 
ATOM      9  C   LIG A   1      -8.160  -0.048 125.741  0.00  0.00    +0.018 C 
ATOM     10  C   LIG A   1      -8.510  -0.573 124.361  0.00  0.00    -0.063 C 
ATOM     11  C   LIG A   1      -9.422   0.194 123.767  0.00  0.00    -0.073 C 
ATOM     12  C   LIG A   1      -9.836   0.158 122.335  0.00  0.00    +0.039 C 
ATOM     13  C   LIG A   1      -9.986   1.217 124.703  0.00  0.00    +0.031 C 
ATOM     14  C   LIG A   1      -9.389   0.810 126.046  0.00  0.00    +0.012 C 
ATOM     15  C   LIG A   1      -6.615   1.747 124.680  0.00  0.00    +0.008 C 
ENDROOT
TORSDOF 0
ENDMDL
MODEL 9
REMARK VINA RESULT:      -5.8      2.041      3.201
REMARK  Name = NuBBE_1930
REMARK  4 active torsions:
REMARK  status: ('A' for Active; 'I' for Inactive)
REMARK    1  A    between atoms: C_1  and  C_2
REMARK    2  A    between atoms: C_2  and  C_3
REMARK    3  A    between atoms: C_10  and  C_19
REMARK    4  A    between atoms: C_15  and  C_16
REMARK                            x       y       z     vdW  Elec       q    Type
REMARK                         _______ _______ _______ _____ _____    ______ ____
ROOT
ATOM      1  C   LIG A   1      -6.353  -4.134 130.649  0.00  0.00    +0.012 C 
ATOM      2  C   LIG A   1      -6.995  -2.832 130.182  0.00  0.00    -0.025 C 
ATOM      3  C   LIG A   1      -5.975  -1.739 130.567  0.00  0.00    +0.012 C 
ATOM      4  C   LIG A   1      -7.846  -2.101 129.153  0.00  0.00    +0.025 C 
ATOM      5  C   LIG A   1      -7.596  -3.452 128.750  0.00  0.00    +0.003 C 
ATOM      6  C   LIG A   1      -8.848  -3.846 128.006  0.00  0.00    +0.005 C 
ATOM      7  C   LIG A   1      -8.599  -3.645 126.477  0.00  0.00    +0.004 C 
ATOM      8  C   LIG A   1      -8.067  -2.252 125.972  0.00  0.00    -0.007 C 
ATOM      9  C   LIG A   1      -6.880  -1.678 126.810  0.00  0.00    +0.018 C 
ATOM     10  C   LIG A   1      -7.356  -1.148 128.149  0.00  0.00    -0.063 C 
ATOM     11  C   LIG A   1      -7.385   0.183 128.162  0.00  0.00    -0.073 C 
ATOM     12  C   LIG A   1      -8.020   1.062 129.186  0.00  0.00    +0.039 C 
ATOM     13  C   LIG A   1      -6.747   0.767 126.940  0.00  0.00    +0.031 C 
ATOM     14  C   LIG A   1      -6.142  -0.457 126.259  0.00  0.00    +0.012 C 
ATOM     15  C   LIG A   1      -9.235  -1.271 125.796  0.00  0.00    +0.008 C 
ENDROOT
TORSDOF 0
ENDMDL
