MODEL 1
REMARK VINA RESULT:      -8.5      0.000      0.000
REMARK  Name = NuBBE_482
REMARK  20 active torsions:
REMARK  status: ('A' for Active; 'I' for Inactive)
REMARK    1  A    between atoms: C_1  and  C_2
REMARK    2  A    between atoms: C_6  and  C_7
REMARK    3  A    between atoms: C_6  and  C_12
REMARK    4  A    between atoms: C_7  and  O_8
REMARK    5  A    between atoms: O_8  and  C_9
REMARK    6  A    between atoms: C_9  and  C_10
REMARK    7  A    between atoms: C_12  and  O_13
REMARK    8  A    between atoms: O_13  and  C_14
REMARK    9  A    between atoms: C_14  and  C_15
REMARK   10  A    between atoms: C_17  and  O_19
REMARK   11  A    between atoms: O_19  and  C_20
REMARK   12  A    between atoms: C_20  and  C_21
REMARK   13  A    between atoms: C_25  and  C_26
REMARK   14  A    between atoms: C_31  and  C_32
REMARK   15  A    between atoms: C_35  and  C_36
REMARK   16  A    between atoms: C_36  and  O_37
REMARK   17  A    between atoms: O_37  and  C_38
REMARK   18  A    between atoms: C_41  and  C_42
REMARK   19  A    between atoms: C_41  and  O_43
REMARK   20  A    between atoms: C_44  and  C_46
REMARK                            x       y       z     vdW  Elec       q    Type
REMARK                         _______ _______ _______ _____ _____    ______ ____
ROOT
ATOM      1  C   LIG A   1      -5.293   3.616 125.358  0.00  0.00    +0.012 C 
ATOM      2  C   LIG A   1      -5.099   3.051 126.781  0.00  0.00    -0.019 C 
ATOM      3  C   LIG A   1      -4.463   1.637 126.766  0.00  0.00    +0.008 C 
ATOM      4  C   LIG A   1      -5.367   0.531 126.300  0.00  0.00    +0.005 C 
ATOM      5  C   LIG A   1      -6.782   0.339 126.927  0.00  0.00    +0.011 C 
ATOM      6  C   LIG A   1      -7.517  -0.889 126.202  0.00  0.00    +0.079 C 
ATOM      7  C   LIG A   1      -7.355  -0.658 124.663  0.00  0.00    +0.189 C 
ATOM      8  C   LIG A   1      -7.742   0.839 124.321  0.00  0.00    +0.046 C 
ATOM      9  C   LIG A   1      -8.061   1.904 125.461  0.00  0.00    +0.011 C 
ATOM     10  C   LIG A   1      -7.506   1.703 126.902  0.00  0.00    -0.025 C 
ATOM     11  C   LIG A   1      -8.668   1.680 127.946  0.00  0.00    +0.012 C 
ATOM     12  C   LIG A   1      -6.466   2.780 127.513  0.00  0.00    +0.006 C 
ATOM     13  C   LIG A   1      -6.987   4.068 128.147  0.00  0.00    +0.031 C 
ATOM     14  C   LIG A   1      -5.986   4.418 129.218  0.00  0.00    -0.026 C 
ATOM     15  C   LIG A   1      -4.656   4.352 129.010  0.00  0.00    -0.060 C 
ATOM     16  C   LIG A   1      -4.102   4.063 127.599  0.00  0.00    -0.005 C 
ATOM     17  C   LIG A   1      -2.644   3.470 127.533  0.00  0.00    +0.016 C 
ATOM     18  C   LIG A   1      -3.949   5.528 127.069  0.00  0.00    +0.012 C 
ATOM     19  C   LIG A   1      -2.991   6.397 127.951  0.00  0.00    +0.019 C 
ATOM     20  C   LIG A   1      -3.162   6.273 129.524  0.00  0.00    +0.077 C 
ATOM     21  C   LIG A   1      -3.606   4.849 129.972  0.00  0.00    +0.064 C 
ATOM     22  C   LIG A   1      -3.663   4.549 131.513  0.00  0.00    +0.073 C 
ATOM     23  C   LIG A   1      -4.728   5.247 132.361  0.00  0.00    +0.042 C 
ATOM     24  C   LIG A   1      -2.222   4.821 132.055  0.00  0.00    +0.018 C 
ATOM     25  C   LIG A   1      -2.067   4.575 133.560  0.00  0.00    +0.010 C 
ATOM     26  C   LIG A   1      -1.723   6.231 131.689  0.00  0.00    +0.007 C 
ATOM     27  C   LIG A   1      -1.784   6.539 130.184  0.00  0.00    +0.019 C 
ENDROOT
BRANCH  20  28
ATOM     28  C   LIG A   1      -4.177   7.356 129.955  0.00  0.00    +0.314 C 
ATOM     29  O   LIG A   1      -5.384   7.265 129.890  0.00  0.00    -0.250 OA
BRANCH  28  30
ATOM     30  O   LIG A   1      -3.525   8.477 130.380  0.00  0.00    -0.468 OA
ATOM     31  C   LIG A   1      -3.835   9.679 129.684  0.00  0.00    +0.280 C 
ENDBRANCH  28  30
ENDBRANCH  20  28
BRANCH  22  32
ATOM     32  O   LIG A   1      -3.917   3.138 131.712  0.00  0.00    -0.388 OA
ATOM     33  H   LIG A   1      -3.204   2.620 131.299  0.00  0.00    +0.210 HD
ENDBRANCH  22  32
BRANCH   6  34
ATOM     34  C   LIG A   1      -9.067  -1.089 126.407  0.00  0.00    +0.246 C 
BRANCH  34  35
ATOM     35  O   LIG A   1      -9.652  -1.680 125.204  0.00  0.00    -0.464 OA
BRANCH  35  36
ATOM     36  C   LIG A   1      -9.633  -3.035 125.064  0.00  0.00    +0.304 C 
ATOM     37  C   LIG A   1      -9.483  -3.429 123.622  0.00  0.00    +0.136 C 
ATOM     38  O   LIG A   1      -9.633  -3.841 125.989  0.00  0.00    -0.251 OA
ENDBRANCH  35  36
ENDBRANCH  34  35
ENDBRANCH   6  34
BRANCH   6  39
ATOM     39  C   LIG A   1      -6.855  -2.192 126.750  0.00  0.00    +0.246 C 
BRANCH  39  40
ATOM     40  O   LIG A   1      -7.186  -2.378 128.149  0.00  0.00    -0.464 OA
BRANCH  40  41
ATOM     41  C   LIG A   1      -6.222  -2.913 128.955  0.00  0.00    +0.304 C 
ATOM     42  C   LIG A   1      -4.857  -2.506 128.495  0.00  0.00    +0.136 C 
ATOM     43  O   LIG A   1      -6.420  -3.690 129.864  0.00  0.00    -0.251 OA
ENDBRANCH  40  41
ENDBRANCH  39  40
ENDBRANCH   6  39
BRANCH   7  44
ATOM     44  O   LIG A   1      -5.990  -0.903 124.164  0.00  0.00    -0.461 OA
BRANCH  44  45
ATOM     45  C   LIG A   1      -5.689  -1.856 123.278  0.00  0.00    +0.304 C 
ATOM     46  C   LIG A   1      -4.807  -2.903 123.899  0.00  0.00    +0.136 C 
ATOM     47  O   LIG A   1      -6.137  -1.917 122.124  0.00  0.00    -0.251 OA
ENDBRANCH  44  45
ENDBRANCH   7  44
TORSDOF 11
ENDMDL
MODEL 2
REMARK VINA RESULT:      -8.5      3.962      8.229
REMARK  Name = NuBBE_482
REMARK  20 active torsions:
REMARK  status: ('A' for Active; 'I' for Inactive)
REMARK    1  A    between atoms: C_1  and  C_2
REMARK    2  A    between atoms: C_6  and  C_7
REMARK    3  A    between atoms: C_6  and  C_12
REMARK    4  A    between atoms: C_7  and  O_8
REMARK    5  A    between atoms: O_8  and  C_9
REMARK    6  A    between atoms: C_9  and  C_10
REMARK    7  A    between atoms: C_12  and  O_13
REMARK    8  A    between atoms: O_13  and  C_14
REMARK    9  A    between atoms: C_14  and  C_15
REMARK   10  A    between atoms: C_17  and  O_19
REMARK   11  A    between atoms: O_19  and  C_20
REMARK   12  A    between atoms: C_20  and  C_21
REMARK   13  A    between atoms: C_25  and  C_26
REMARK   14  A    between atoms: C_31  and  C_32
REMARK   15  A    between atoms: C_35  and  C_36
REMARK   16  A    between atoms: C_36  and  O_37
REMARK   17  A    between atoms: O_37  and  C_38
REMARK   18  A    between atoms: C_41  and  C_42
REMARK   19  A    between atoms: C_41  and  O_43
REMARK   20  A    between atoms: C_44  and  C_46
REMARK                            x       y       z     vdW  Elec       q    Type
REMARK                         _______ _______ _______ _____ _____    ______ ____
ROOT
ATOM      1  C   LIG A   1      -6.113  -2.277 128.172  0.00  0.00    +0.012 C 
ATOM      2  C   LIG A   1      -6.381  -1.624 129.545  0.00  0.00    -0.019 C 
ATOM      3  C   LIG A   1      -7.786  -0.970 129.616  0.00  0.00    +0.008 C 
ATOM      4  C   LIG A   1      -7.944   0.298 128.826  0.00  0.00    +0.005 C 
ATOM      5  C   LIG A   1      -6.934   1.474 128.994  0.00  0.00    +0.011 C 
ATOM      6  C   LIG A   1      -7.342   2.664 127.997  0.00  0.00    +0.079 C 
ATOM      7  C   LIG A   1      -7.575   2.010 126.595  0.00  0.00    +0.189 C 
ATOM      8  C   LIG A   1      -6.358   1.051 126.263  0.00  0.00    +0.046 C 
ATOM      9  C   LIG A   1      -5.221   0.739 127.333  0.00  0.00    +0.011 C 
ATOM     10  C   LIG A   1      -5.506   0.902 128.854  0.00  0.00    -0.025 C 
ATOM     11  C   LIG A   1      -4.495   1.899 129.506  0.00  0.00    +0.012 C 
ATOM     12  C   LIG A   1      -5.441  -0.393 129.820  0.00  0.00    +0.006 C 
ATOM     13  C   LIG A   1      -4.096  -0.870 130.365  0.00  0.00    +0.031 C 
ATOM     14  C   LIG A   1      -4.404  -1.487 131.706  0.00  0.00    -0.026 C 
ATOM     15  C   LIG A   1      -5.451  -2.314 131.894  0.00  0.00    -0.060 C 
ATOM     16  C   LIG A   1      -6.292  -2.792 130.692  0.00  0.00    -0.005 C 
ATOM     17  C   LIG A   1      -7.758  -3.272 131.015  0.00  0.00    +0.016 C 
ATOM     18  C   LIG A   1      -5.522  -4.109 130.337  0.00  0.00    +0.012 C 
ATOM     19  C   LIG A   1      -5.488  -5.131 131.523  0.00  0.00    +0.019 C 
ATOM     20  C   LIG A   1      -5.172  -4.543 132.962  0.00  0.00    +0.077 C 
ATOM     21  C   LIG A   1      -5.717  -3.096 133.156  0.00  0.00    +0.064 C 
ATOM     22  C   LIG A   1      -5.606  -2.456 134.586  0.00  0.00    +0.073 C 
ATOM     23  C   LIG A   1      -4.220  -2.104 135.131  0.00  0.00    +0.042 C 
ATOM     24  C   LIG A   1      -6.378  -3.418 135.546  0.00  0.00    +0.018 C 
ATOM     25  C   LIG A   1      -6.392  -2.958 137.008  0.00  0.00    +0.010 C 
ATOM     26  C   LIG A   1      -5.868  -4.867 135.446  0.00  0.00    +0.007 C 
ATOM     27  C   LIG A   1      -5.882  -5.431 134.016  0.00  0.00    +0.019 C 
ENDROOT
BRANCH  20  28
ATOM     28  C   LIG A   1      -3.640  -4.612 133.152  0.00  0.00    +0.314 C 
ATOM     29  O   LIG A   1      -2.821  -3.925 132.580  0.00  0.00    -0.250 OA
BRANCH  28  30
ATOM     30  O   LIG A   1      -3.313  -5.605 134.029  0.00  0.00    -0.468 OA
ATOM     31  C   LIG A   1      -2.170  -5.368 134.842  0.00  0.00    +0.280 C 
ENDBRANCH  28  30
ENDBRANCH  20  28
BRANCH  22  32
ATOM     32  O   LIG A   1      -6.324  -1.199 134.598  0.00  0.00    -0.388 OA
ATOM     33  H   LIG A   1      -7.279  -1.373 134.653  0.00  0.00    +0.210 HD
ENDBRANCH  22  32
BRANCH   6  34
ATOM     34  C   LIG A   1      -6.312   3.826 127.722  0.00  0.00    +0.246 C 
BRANCH  34  35
ATOM     35  O   LIG A   1      -6.796   4.665 126.626  0.00  0.00    -0.464 OA
BRANCH  35  36
ATOM     36  C   LIG A   1      -5.905   5.101 125.694  0.00  0.00    +0.304 C 
ATOM     37  C   LIG A   1      -4.731   4.170 125.589  0.00  0.00    +0.136 C 
ATOM     38  O   LIG A   1      -6.070   6.067 124.954  0.00  0.00    -0.251 OA
ENDBRANCH  35  36
ENDBRANCH  34  35
ENDBRANCH   6  34
BRANCH   6  39
ATOM     39  C   LIG A   1      -8.593   3.358 128.620  0.00  0.00    +0.246 C 
BRANCH  39  40
ATOM     40  O   LIG A   1      -8.635   3.137 130.052  0.00  0.00    -0.464 OA
BRANCH  40  41
ATOM     41  C   LIG A   1      -9.866   3.014 130.632  0.00  0.00    +0.304 C 
ATOM     42  C   LIG A   1      -9.821   2.048 131.774  0.00  0.00    +0.136 C 
ATOM     43  O   LIG A   1     -10.884   3.534 130.231  0.00  0.00    -0.251 OA
ENDBRANCH  40  41
ENDBRANCH  39  40
ENDBRANCH   6  39
BRANCH   7  44
ATOM     44  O   LIG A   1      -8.816   1.222 126.504  0.00  0.00    -0.461 OA
BRANCH  44  45
ATOM     45  C   LIG A   1      -9.358   0.831 125.348  0.00  0.00    +0.304 C 
ATOM     46  C   LIG A   1      -9.441   1.979 124.381  0.00  0.00    +0.136 C 
ATOM     47  O   LIG A   1      -9.677  -0.335 125.074  0.00  0.00    -0.251 OA
ENDBRANCH  44  45
ENDBRANCH   7  44
TORSDOF 11
ENDMDL
MODEL 3
REMARK VINA RESULT:      -8.3      3.813      8.833
REMARK  Name = NuBBE_482
REMARK  20 active torsions:
REMARK  status: ('A' for Active; 'I' for Inactive)
REMARK    1  A    between atoms: C_1  and  C_2
REMARK    2  A    between atoms: C_6  and  C_7
REMARK    3  A    between atoms: C_6  and  C_12
REMARK    4  A    between atoms: C_7  and  O_8
REMARK    5  A    between atoms: O_8  and  C_9
REMARK    6  A    between atoms: C_9  and  C_10
REMARK    7  A    between atoms: C_12  and  O_13
REMARK    8  A    between atoms: O_13  and  C_14
REMARK    9  A    between atoms: C_14  and  C_15
REMARK   10  A    between atoms: C_17  and  O_19
REMARK   11  A    between atoms: O_19  and  C_20
REMARK   12  A    between atoms: C_20  and  C_21
REMARK   13  A    between atoms: C_25  and  C_26
REMARK   14  A    between atoms: C_31  and  C_32
REMARK   15  A    between atoms: C_35  and  C_36
REMARK   16  A    between atoms: C_36  and  O_37
REMARK   17  A    between atoms: O_37  and  C_38
REMARK   18  A    between atoms: C_41  and  C_42
REMARK   19  A    between atoms: C_41  and  O_43
REMARK   20  A    between atoms: C_44  and  C_46
REMARK                            x       y       z     vdW  Elec       q    Type
REMARK                         _______ _______ _______ _____ _____    ______ ____
ROOT
ATOM      1  C   LIG A   1      -5.606  -1.062 128.222  0.00  0.00    +0.012 C 
ATOM      2  C   LIG A   1      -6.095  -0.741 129.650  0.00  0.00    -0.019 C 
ATOM      3  C   LIG A   1      -7.528  -0.149 129.657  0.00  0.00    +0.008 C 
ATOM      4  C   LIG A   1      -7.643   1.261 129.151  0.00  0.00    +0.005 C 
ATOM      5  C   LIG A   1      -6.728   2.390 129.719  0.00  0.00    +0.011 C 
ATOM      6  C   LIG A   1      -7.057   3.765 128.960  0.00  0.00    +0.079 C 
ATOM      7  C   LIG A   1      -7.059   3.440 127.430  0.00  0.00    +0.189 C 
ATOM      8  C   LIG A   1      -5.759   2.605 127.077  0.00  0.00    +0.046 C 
ATOM      9  C   LIG A   1      -4.766   2.084 128.207  0.00  0.00    +0.011 C 
ATOM     10  C   LIG A   1      -5.267   1.893 129.668  0.00  0.00    -0.025 C 
ATOM     11  C   LIG A   1      -4.409   2.739 130.664  0.00  0.00    +0.012 C 
ATOM     12  C   LIG A   1      -5.268   0.416 130.324  0.00  0.00    +0.006 C 
ATOM     13  C   LIG A   1      -3.988  -0.144 130.941  0.00  0.00    +0.031 C 
ATOM     14  C   LIG A   1      -4.445  -1.053 132.054  0.00  0.00    -0.026 C 
ATOM     15  C   LIG A   1      -5.464  -1.923 131.900  0.00  0.00    -0.060 C 
ATOM     16  C   LIG A   1      -6.103  -2.135 130.512  0.00  0.00    -0.005 C 
ATOM     17  C   LIG A   1      -7.572  -2.705 130.504  0.00  0.00    +0.016 C 
ATOM     18  C   LIG A   1      -5.224  -3.322 129.993  0.00  0.00    +0.012 C 
ATOM     19  C   LIG A   1      -5.300  -4.584 130.917  0.00  0.00    +0.019 C 
ATOM     20  C   LIG A   1      -5.217  -4.330 132.481  0.00  0.00    +0.077 C 
ATOM     21  C   LIG A   1      -5.860  -2.975 132.906  0.00  0.00    +0.064 C 
ATOM     22  C   LIG A   1      -5.981  -2.671 134.442  0.00  0.00    +0.073 C 
ATOM     23  C   LIG A   1      -4.705  -2.423 135.248  0.00  0.00    +0.042 C 
ATOM     24  C   LIG A   1      -6.827  -3.840 135.043  0.00  0.00    +0.018 C 
ATOM     25  C   LIG A   1      -7.067  -3.722 136.553  0.00  0.00    +0.010 C 
ATOM     26  C   LIG A   1      -6.232  -5.219 134.702  0.00  0.00    +0.007 C 
ATOM     27  C   LIG A   1      -6.018  -5.447 133.198  0.00  0.00    +0.019 C 
ENDROOT
BRANCH  20  28
ATOM     28  C   LIG A   1      -3.725  -4.408 132.873  0.00  0.00    +0.314 C 
ATOM     29  O   LIG A   1      -2.870  -3.599 132.584  0.00  0.00    -0.250 OA
BRANCH  28  30
ATOM     30  O   LIG A   1      -3.473  -5.560 133.559  0.00  0.00    -0.468 OA
ATOM     31  C   LIG A   1      -2.374  -5.521 134.461  0.00  0.00    +0.280 C 
ENDBRANCH  28  30
ENDBRANCH  20  28
BRANCH  22  32
ATOM     32  O   LIG A   1      -6.759  -1.465 134.626  0.00  0.00    -0.388 OA
ATOM     33  H   LIG A   1      -7.244  -1.265 133.807  0.00  0.00    +0.210 HD
ENDBRANCH  22  32
BRANCH   6  34
ATOM     34  C   LIG A   1      -6.062   4.980 129.101  0.00  0.00    +0.246 C 
BRANCH  34  35
ATOM     35  O   LIG A   1      -6.210   5.588 130.424  0.00  0.00    -0.464 OA
BRANCH  35  36
ATOM     36  C   LIG A   1      -5.419   6.648 130.748  0.00  0.00    +0.304 C 
ATOM     37  C   LIG A   1      -4.733   6.429 132.067  0.00  0.00    +0.136 C 
ATOM     38  O   LIG A   1      -5.201   7.617 130.026  0.00  0.00    -0.251 OA
ENDBRANCH  35  36
ENDBRANCH  34  35
ENDBRANCH   6  34
BRANCH   6  39
ATOM     39  C   LIG A   1      -8.417   4.276 129.531  0.00  0.00    +0.246 C 
BRANCH  39  40
ATOM     40  O   LIG A   1      -8.948   5.338 128.700  0.00  0.00    -0.464 OA
BRANCH  40  41
ATOM     41  C   LIG A   1      -9.912   6.138 129.244  0.00  0.00    +0.304 C 
ATOM     42  C   LIG A   1      -9.330   7.033 130.293  0.00  0.00    +0.136 C 
ATOM     43  O   LIG A   1     -11.096   6.078 128.993  0.00  0.00    -0.251 OA
ENDBRANCH  40  41
ENDBRANCH  39  40
ENDBRANCH   6  39
BRANCH   7  44
ATOM     44  O   LIG A   1      -8.232   2.667 126.987  0.00  0.00    -0.461 OA
BRANCH  44  45
ATOM     45  C   LIG A   1      -8.579   2.523 125.705  0.00  0.00    +0.304 C 
ATOM     46  C   LIG A   1      -8.681   1.069 125.339  0.00  0.00    +0.136 C 
ATOM     47  O   LIG A   1      -8.859   3.456 124.938  0.00  0.00    -0.251 OA
ENDBRANCH  44  45
ENDBRANCH   7  44
TORSDOF 11
ENDMDL
MODEL 4
REMARK VINA RESULT:      -8.1      4.671      8.149
REMARK  Name = NuBBE_482
REMARK  20 active torsions:
REMARK  status: ('A' for Active; 'I' for Inactive)
REMARK    1  A    between atoms: C_1  and  C_2
REMARK    2  A    between atoms: C_6  and  C_7
REMARK    3  A    between atoms: C_6  and  C_12
REMARK    4  A    between atoms: C_7  and  O_8
REMARK    5  A    between atoms: O_8  and  C_9
REMARK    6  A    between atoms: C_9  and  C_10
REMARK    7  A    between atoms: C_12  and  O_13
REMARK    8  A    between atoms: O_13  and  C_14
REMARK    9  A    between atoms: C_14  and  C_15
REMARK   10  A    between atoms: C_17  and  O_19
REMARK   11  A    between atoms: O_19  and  C_20
REMARK   12  A    between atoms: C_20  and  C_21
REMARK   13  A    between atoms: C_25  and  C_26
REMARK   14  A    between atoms: C_31  and  C_32
REMARK   15  A    between atoms: C_35  and  C_36
REMARK   16  A    between atoms: C_36  and  O_37
REMARK   17  A    between atoms: O_37  and  C_38
REMARK   18  A    between atoms: C_41  and  C_42
REMARK   19  A    between atoms: C_41  and  O_43
REMARK   20  A    between atoms: C_44  and  C_46
REMARK                            x       y       z     vdW  Elec       q    Type
REMARK                         _______ _______ _______ _____ _____    ______ ____
ROOT
ATOM      1  C   LIG A   1      -3.994  -2.595 129.771  0.00  0.00    +0.012 C 
ATOM      2  C   LIG A   1      -5.405  -2.866 130.334  0.00  0.00    -0.019 C 
ATOM      3  C   LIG A   1      -6.279  -3.686 129.350  0.00  0.00    +0.008 C 
ATOM      4  C   LIG A   1      -6.756  -2.937 128.138  0.00  0.00    +0.005 C 
ATOM      5  C   LIG A   1      -7.477  -1.561 128.282  0.00  0.00    +0.011 C 
ATOM      6  C   LIG A   1      -7.828  -0.996 126.822  0.00  0.00    +0.079 C 
ATOM      7  C   LIG A   1      -6.522  -1.122 125.970  0.00  0.00    +0.189 C 
ATOM      8  C   LIG A   1      -5.306  -0.537 126.799  0.00  0.00    +0.046 C 
ATOM      9  C   LIG A   1      -5.467  -0.081 128.316  0.00  0.00    +0.011 C 
ATOM     10  C   LIG A   1      -6.615  -0.662 129.194  0.00  0.00    -0.025 C 
ATOM     11  C   LIG A   1      -7.509   0.485 129.767  0.00  0.00    +0.012 C 
ATOM     12  C   LIG A   1      -6.252  -1.550 130.495  0.00  0.00    +0.006 C 
ATOM     13  C   LIG A   1      -5.910  -0.862 131.815  0.00  0.00    +0.031 C 
ATOM     14  C   LIG A   1      -6.376  -1.810 132.891  0.00  0.00    -0.026 C 
ATOM     15  C   LIG A   1      -6.144  -3.137 132.832  0.00  0.00    -0.060 C 
ATOM     16  C   LIG A   1      -5.244  -3.720 131.724  0.00  0.00    -0.005 C 
ATOM     17  C   LIG A   1      -5.456  -5.245 131.387  0.00  0.00    +0.016 C 
ATOM     18  C   LIG A   1      -3.860  -3.675 132.455  0.00  0.00    +0.012 C 
ATOM     19  C   LIG A   1      -3.844  -4.510 133.779  0.00  0.00    +0.019 C 
ATOM     20  C   LIG A   1      -5.105  -4.361 134.731  0.00  0.00    +0.077 C 
ATOM     21  C   LIG A   1      -6.428  -4.113 133.946  0.00  0.00    +0.064 C 
ATOM     22  C   LIG A   1      -7.771  -4.099 134.759  0.00  0.00    +0.073 C 
ATOM     23  C   LIG A   1      -8.031  -2.953 135.738  0.00  0.00    +0.042 C 
ATOM     24  C   LIG A   1      -7.858  -5.493 135.464  0.00  0.00    +0.018 C 
ATOM     25  C   LIG A   1      -9.121  -5.683 136.312  0.00  0.00    +0.010 C 
ATOM     26  C   LIG A   1      -6.601  -5.797 136.298  0.00  0.00    +0.007 C 
ATOM     27  C   LIG A   1      -5.289  -5.692 135.505  0.00  0.00    +0.019 C 
ENDROOT
BRANCH  20  28
ATOM     28  C   LIG A   1      -4.794  -3.211 135.716  0.00  0.00    +0.314 C 
ATOM     29  O   LIG A   1      -4.741  -2.033 135.439  0.00  0.00    -0.250 OA
BRANCH  28  30
ATOM     30  O   LIG A   1      -4.528  -3.708 136.959  0.00  0.00    -0.468 OA
ATOM     31  C   LIG A   1      -3.306  -3.284 137.551  0.00  0.00    +0.280 C 
ENDBRANCH  28  30
ENDBRANCH  20  28
BRANCH  22  32
ATOM     32  O   LIG A   1      -8.883  -4.037 133.834  0.00  0.00    -0.388 OA
ATOM     33  H   LIG A   1      -9.624  -4.561 134.184  0.00  0.00    +0.210 HD
ENDBRANCH  22  32
BRANCH   6  34
ATOM     34  C   LIG A   1      -8.256   0.513 126.662  0.00  0.00    +0.246 C 
BRANCH  34  35
ATOM     35  O   LIG A   1      -7.613   1.086 125.480  0.00  0.00    -0.464 OA
BRANCH  35  36
ATOM     36  C   LIG A   1      -8.317   1.966 124.715  0.00  0.00    +0.304 C 
ATOM     37  C   LIG A   1      -8.082   1.721 123.251  0.00  0.00    +0.136 C 
ATOM     38  O   LIG A   1      -9.122   2.789 125.141  0.00  0.00    -0.251 OA
ENDBRANCH  35  36
ENDBRANCH  34  35
ENDBRANCH   6  34
BRANCH   6  39
ATOM     39  C   LIG A   1      -9.042  -1.827 126.301  0.00  0.00    +0.246 C 
BRANCH  39  40
ATOM     40  O   LIG A   1      -9.609  -1.210 125.119  0.00  0.00    -0.464 OA
BRANCH  40  41
ATOM     41  C   LIG A   1      -9.557  -1.920 123.953  0.00  0.00    +0.304 C 
ATOM     42  C   LIG A   1      -9.287  -3.367 124.224  0.00  0.00    +0.136 C 
ATOM     43  O   LIG A   1      -9.623  -1.446 122.840  0.00  0.00    -0.251 OA
ENDBRANCH  40  41
ENDBRANCH  39  40
ENDBRANCH   6  39
BRANCH   7  44
ATOM     44  O   LIG A   1      -6.192  -2.506 125.588  0.00  0.00    -0.461 OA
BRANCH  44  45
ATOM     45  C   LIG A   1      -5.654  -2.837 124.411  0.00  0.00    +0.304 C 
ATOM     46  C   LIG A   1      -6.031  -1.840 123.352  0.00  0.00    +0.136 C 
ATOM     47  O   LIG A   1      -4.883  -3.790 124.228  0.00  0.00    -0.251 OA
ENDBRANCH  44  45
ENDBRANCH   7  44
TORSDOF 11
ENDMDL
MODEL 5
REMARK VINA RESULT:      -8.1      2.580      9.590
REMARK  Name = NuBBE_482
REMARK  20 active torsions:
REMARK  status: ('A' for Active; 'I' for Inactive)
REMARK    1  A    between atoms: C_1  and  C_2
REMARK    2  A    between atoms: C_6  and  C_7
REMARK    3  A    between atoms: C_6  and  C_12
REMARK    4  A    between atoms: C_7  and  O_8
REMARK    5  A    between atoms: O_8  and  C_9
REMARK    6  A    between atoms: C_9  and  C_10
REMARK    7  A    between atoms: C_12  and  O_13
REMARK    8  A    between atoms: O_13  and  C_14
REMARK    9  A    between atoms: C_14  and  C_15
REMARK   10  A    between atoms: C_17  and  O_19
REMARK   11  A    between atoms: O_19  and  C_20
REMARK   12  A    between atoms: C_20  and  C_21
REMARK   13  A    between atoms: C_25  and  C_26
REMARK   14  A    between atoms: C_31  and  C_32
REMARK   15  A    between atoms: C_35  and  C_36
REMARK   16  A    between atoms: C_36  and  O_37
REMARK   17  A    between atoms: O_37  and  C_38
REMARK   18  A    between atoms: C_41  and  C_42
REMARK   19  A    between atoms: C_41  and  O_43
REMARK   20  A    between atoms: C_44  and  C_46
REMARK                            x       y       z     vdW  Elec       q    Type
REMARK                         _______ _______ _______ _____ _____    ______ ____
ROOT
ATOM      1  C   LIG A   1      -4.285   1.819 129.285  0.00  0.00    +0.012 C 
ATOM      2  C   LIG A   1      -5.597   2.260 128.602  0.00  0.00    -0.019 C 
ATOM      3  C   LIG A   1      -5.607   3.777 128.281  0.00  0.00    +0.008 C 
ATOM      4  C   LIG A   1      -5.759   4.683 129.470  0.00  0.00    +0.005 C 
ATOM      5  C   LIG A   1      -6.917   4.471 130.493  0.00  0.00    +0.011 C 
ATOM      6  C   LIG A   1      -6.793   5.563 131.662  0.00  0.00    +0.079 C 
ATOM      7  C   LIG A   1      -5.301   5.541 132.135  0.00  0.00    +0.189 C 
ATOM      8  C   LIG A   1      -4.857   4.039 132.372  0.00  0.00    +0.046 C 
ATOM      9  C   LIG A   1      -5.800   2.814 131.990  0.00  0.00    +0.011 C 
ATOM     10  C   LIG A   1      -6.914   2.986 130.917  0.00  0.00    -0.025 C 
ATOM     11  C   LIG A   1      -8.315   2.626 131.509  0.00  0.00    +0.012 C 
ATOM     12  C   LIG A   1      -6.845   2.125 129.550  0.00  0.00    +0.006 C 
ATOM     13  C   LIG A   1      -7.371   0.691 129.526  0.00  0.00    +0.031 C 
ATOM     14  C   LIG A   1      -7.871   0.473 128.121  0.00  0.00    -0.026 C 
ATOM     15  C   LIG A   1      -7.173   0.871 127.038  0.00  0.00    -0.060 C 
ATOM     16  C   LIG A   1      -5.743   1.429 127.196  0.00  0.00    -0.005 C 
ATOM     17  C   LIG A   1      -5.224   2.351 126.028  0.00  0.00    +0.016 C 
ATOM     18  C   LIG A   1      -4.922   0.106 127.039  0.00  0.00    +0.012 C 
ATOM     19  C   LIG A   1      -5.169  -0.603 125.664  0.00  0.00    +0.019 C 
ATOM     20  C   LIG A   1      -6.674  -0.690 125.167  0.00  0.00    +0.077 C 
ATOM     21  C   LIG A   1      -7.528   0.535 125.611  0.00  0.00    +0.064 C 
ATOM     22  C   LIG A   1      -8.993   0.648 125.056  0.00  0.00    +0.073 C 
ATOM     23  C   LIG A   1     -10.039  -0.366 125.524  0.00  0.00    +0.042 C 
ATOM     24  C   LIG A   1      -8.859   0.665 123.498  0.00  0.00    +0.018 C 
ATOM     25  C   LIG A   1     -10.198   0.780 122.761  0.00  0.00    +0.010 C 
ATOM     26  C   LIG A   1      -8.060  -0.542 122.973  0.00  0.00    +0.007 C 
ATOM     27  C   LIG A   1      -6.673  -0.694 123.616  0.00  0.00    +0.019 C 
ENDROOT
BRANCH  20  28
ATOM     28  C   LIG A   1      -7.251  -2.020 125.703  0.00  0.00    +0.314 C 
ATOM     29  O   LIG A   1      -7.678  -2.210 126.821  0.00  0.00    -0.250 OA
BRANCH  28  30
ATOM     30  O   LIG A   1      -7.168  -2.993 124.750  0.00  0.00    -0.468 OA
ATOM     31  C   LIG A   1      -8.253  -3.912 124.702  0.00  0.00    +0.280 C 
ENDBRANCH  28  30
ENDBRANCH  20  28
BRANCH  22  32
ATOM     32  O   LIG A   1      -9.544   1.931 125.435  0.00  0.00    -0.388 OA
ATOM     33  H   LIG A   1      -8.865   2.452 125.896  0.00  0.00    +0.210 HD
ENDBRANCH  22  32
BRANCH   6  34
ATOM     34  C   LIG A   1      -7.627   5.371 132.986  0.00  0.00    +0.246 C 
BRANCH  34  35
ATOM     35  O   LIG A   1      -6.947   6.036 134.098  0.00  0.00    -0.464 OA
BRANCH  35  36
ATOM     36  C   LIG A   1      -7.142   5.563 135.361  0.00  0.00    +0.304 C 
ATOM     37  C   LIG A   1      -6.276   4.365 135.630  0.00  0.00    +0.136 C 
ATOM     38  O   LIG A   1      -7.848   6.092 136.214  0.00  0.00    -0.251 OA
ENDBRANCH  35  36
ENDBRANCH  34  35
ENDBRANCH   6  34
BRANCH   6  39
ATOM     39  C   LIG A   1      -7.277   6.919 131.060  0.00  0.00    +0.246 C 
BRANCH  39  40
ATOM     40  O   LIG A   1      -8.698   7.094 131.285  0.00  0.00    -0.464 OA
BRANCH  40  41
ATOM     41  C   LIG A   1      -9.510   7.109 130.187  0.00  0.00    +0.304 C 
ATOM     42  C   LIG A   1     -10.346   5.869 130.127  0.00  0.00    +0.136 C 
ATOM     43  O   LIG A   1      -9.500   7.955 129.320  0.00  0.00    -0.251 OA
ENDBRANCH  40  41
ENDBRANCH  39  40
ENDBRANCH   6  39
BRANCH   7  44
ATOM     44  O   LIG A   1      -4.364   6.149 131.176  0.00  0.00    -0.461 OA
BRANCH  44  45
ATOM     45  C   LIG A   1      -3.258   6.803 131.540  0.00  0.00    +0.304 C 
ATOM     46  C   LIG A   1      -2.033   6.131 130.986  0.00  0.00    +0.136 C 
ATOM     47  O   LIG A   1      -3.241   7.865 132.181  0.00  0.00    -0.251 OA
ENDBRANCH  44  45
ENDBRANCH   7  44
TORSDOF 11
ENDMDL
MODEL 6
REMARK VINA RESULT:      -8.0      4.024      8.964
REMARK  Name = NuBBE_482
REMARK  20 active torsions:
REMARK  status: ('A' for Active; 'I' for Inactive)
REMARK    1  A    between atoms: C_1  and  C_2
REMARK    2  A    between atoms: C_6  and  C_7
REMARK    3  A    between atoms: C_6  and  C_12
REMARK    4  A    between atoms: C_7  and  O_8
REMARK    5  A    between atoms: O_8  and  C_9
REMARK    6  A    between atoms: C_9  and  C_10
REMARK    7  A    between atoms: C_12  and  O_13
REMARK    8  A    between atoms: O_13  and  C_14
REMARK    9  A    between atoms: C_14  and  C_15
REMARK   10  A    between atoms: C_17  and  O_19
REMARK   11  A    between atoms: O_19  and  C_20
REMARK   12  A    between atoms: C_20  and  C_21
REMARK   13  A    between atoms: C_25  and  C_26
REMARK   14  A    between atoms: C_31  and  C_32
REMARK   15  A    between atoms: C_35  and  C_36
REMARK   16  A    between atoms: C_36  and  O_37
REMARK   17  A    between atoms: O_37  and  C_38
REMARK   18  A    between atoms: C_41  and  C_42
REMARK   19  A    between atoms: C_41  and  O_43
REMARK   20  A    between atoms: C_44  and  C_46
REMARK                            x       y       z     vdW  Elec       q    Type
REMARK                         _______ _______ _______ _____ _____    ______ ____
ROOT
ATOM      1  C   LIG A   1      -5.431  -1.131 128.737  0.00  0.00    +0.012 C 
ATOM      2  C   LIG A   1      -5.913  -0.774 130.159  0.00  0.00    -0.019 C 
ATOM      3  C   LIG A   1      -7.304  -0.088 130.148  0.00  0.00    +0.008 C 
ATOM      4  C   LIG A   1      -7.318   1.325 129.638  0.00  0.00    +0.005 C 
ATOM      5  C   LIG A   1      -6.337   2.392 130.214  0.00  0.00    +0.011 C 
ATOM      6  C   LIG A   1      -6.565   3.784 129.448  0.00  0.00    +0.079 C 
ATOM      7  C   LIG A   1      -6.572   3.455 127.918  0.00  0.00    +0.189 C 
ATOM      8  C   LIG A   1      -5.327   2.535 127.583  0.00  0.00    +0.046 C 
ATOM      9  C   LIG A   1      -4.383   1.951 128.724  0.00  0.00    +0.011 C 
ATOM     10  C   LIG A   1      -4.912   1.799 130.180  0.00  0.00    -0.025 C 
ATOM     11  C   LIG A   1      -4.011   2.588 131.184  0.00  0.00    +0.012 C 
ATOM     12  C   LIG A   1      -5.018   0.327 130.840  0.00  0.00    +0.006 C 
ATOM     13  C   LIG A   1      -3.785  -0.316 131.472  0.00  0.00    +0.031 C 
ATOM     14  C   LIG A   1      -4.315  -1.189 132.581  0.00  0.00    -0.026 C 
ATOM     15  C   LIG A   1      -5.387  -1.990 132.418  0.00  0.00    -0.060 C 
ATOM     16  C   LIG A   1      -6.024  -2.162 131.024  0.00  0.00    -0.005 C 
ATOM     17  C   LIG A   1      -7.528  -2.633 131.000  0.00  0.00    +0.016 C 
ATOM     18  C   LIG A   1      -5.220  -3.406 130.517  0.00  0.00    +0.012 C 
ATOM     19  C   LIG A   1      -5.391  -4.658 131.443  0.00  0.00    +0.019 C 
ATOM     20  C   LIG A   1      -5.308  -4.405 133.007  0.00  0.00    +0.077 C 
ATOM     21  C   LIG A   1      -5.863  -3.009 133.422  0.00  0.00    +0.064 C 
ATOM     22  C   LIG A   1      -5.981  -2.693 134.956  0.00  0.00    +0.073 C 
ATOM     23  C   LIG A   1      -4.700  -2.528 135.776  0.00  0.00    +0.042 C 
ATOM     24  C   LIG A   1      -6.910  -3.802 135.550  0.00  0.00    +0.018 C 
ATOM     25  C   LIG A   1      -7.159  -3.663 137.057  0.00  0.00    +0.010 C 
ATOM     26  C   LIG A   1      -6.405  -5.218 135.219  0.00  0.00    +0.007 C 
ATOM     27  C   LIG A   1      -6.190  -5.464 133.717  0.00  0.00    +0.019 C 
ENDROOT
BRANCH  20  28
ATOM     28  C   LIG A   1      -3.829  -4.582 133.416  0.00  0.00    +0.314 C 
ATOM     29  O   LIG A   1      -2.890  -3.949 132.982  0.00  0.00    -0.250 OA
BRANCH  28  30
ATOM     30  O   LIG A   1      -3.702  -5.602 134.313  0.00  0.00    -0.468 OA
ATOM     31  C   LIG A   1      -2.573  -6.450 134.136  0.00  0.00    +0.280 C 
ENDBRANCH  28  30
ENDBRANCH  20  28
BRANCH  22  32
ATOM     32  O   LIG A   1      -6.679  -1.437 135.128  0.00  0.00    -0.388 OA
ATOM     33  H   LIG A   1      -6.153  -0.718 134.737  0.00  0.00    +0.210 HD
ENDBRANCH  22  32
BRANCH   6  34
ATOM     34  C   LIG A   1      -5.492   4.930 129.598  0.00  0.00    +0.246 C 
BRANCH  34  35
ATOM     35  O   LIG A   1      -5.073   5.390 128.274  0.00  0.00    -0.464 OA
BRANCH  35  36
ATOM     36  C   LIG A   1      -3.928   6.119 128.167  0.00  0.00    +0.304 C 
ATOM     37  C   LIG A   1      -2.739   5.229 127.936  0.00  0.00    +0.136 C 
ATOM     38  O   LIG A   1      -3.867   7.345 128.154  0.00  0.00    -0.251 OA
ENDBRANCH  35  36
ENDBRANCH  34  35
ENDBRANCH   6  34
BRANCH   6  39
ATOM     39  C   LIG A   1      -7.894   4.386 130.002  0.00  0.00    +0.246 C 
BRANCH  39  40
ATOM     40  O   LIG A   1      -7.808   5.832 130.066  0.00  0.00    -0.464 OA
BRANCH  40  41
ATOM     41  C   LIG A   1      -8.721   6.480 130.847  0.00  0.00    +0.304 C 
ATOM     42  C   LIG A   1      -9.721   7.208 130.003  0.00  0.00    +0.136 C 
ATOM     43  O   LIG A   1      -8.687   6.547 132.056  0.00  0.00    -0.251 OA
ENDBRANCH  40  41
ENDBRANCH  39  40
ENDBRANCH   6  39
BRANCH   7  44
ATOM     44  O   LIG A   1      -7.789   2.761 127.464  0.00  0.00    -0.461 OA
BRANCH  44  45
ATOM     45  C   LIG A   1      -8.160   2.685 126.183  0.00  0.00    +0.304 C 
ATOM     46  C   LIG A   1      -8.192   1.256 125.720  0.00  0.00    +0.136 C 
ATOM     47  O   LIG A   1      -8.508   3.651 125.488  0.00  0.00    -0.251 OA
ENDBRANCH  44  45
ENDBRANCH   7  44
TORSDOF 11
ENDMDL
MODEL 7
REMARK VINA RESULT:      -7.9      2.233      9.399
REMARK  Name = NuBBE_482
REMARK  20 active torsions:
REMARK  status: ('A' for Active; 'I' for Inactive)
REMARK    1  A    between atoms: C_1  and  C_2
REMARK    2  A    between atoms: C_6  and  C_7
REMARK    3  A    between atoms: C_6  and  C_12
REMARK    4  A    between atoms: C_7  and  O_8
REMARK    5  A    between atoms: O_8  and  C_9
REMARK    6  A    between atoms: C_9  and  C_10
REMARK    7  A    between atoms: C_12  and  O_13
REMARK    8  A    between atoms: O_13  and  C_14
REMARK    9  A    between atoms: C_14  and  C_15
REMARK   10  A    between atoms: C_17  and  O_19
REMARK   11  A    between atoms: O_19  and  C_20
REMARK   12  A    between atoms: C_20  and  C_21
REMARK   13  A    between atoms: C_25  and  C_26
REMARK   14  A    between atoms: C_31  and  C_32
REMARK   15  A    between atoms: C_35  and  C_36
REMARK   16  A    between atoms: C_36  and  O_37
REMARK   17  A    between atoms: O_37  and  C_38
REMARK   18  A    between atoms: C_41  and  C_42
REMARK   19  A    between atoms: C_41  and  O_43
REMARK   20  A    between atoms: C_44  and  C_46
REMARK                            x       y       z     vdW  Elec       q    Type
REMARK                         _______ _______ _______ _____ _____    ______ ____
ROOT
ATOM      1  C   LIG A   1      -4.087   0.666 129.700  0.00  0.00    +0.012 C 
ATOM      2  C   LIG A   1      -5.105   1.548 128.946  0.00  0.00    -0.019 C 
ATOM      3  C   LIG A   1      -4.543   2.963 128.647  0.00  0.00    +0.008 C 
ATOM      4  C   LIG A   1      -4.426   3.872 129.838  0.00  0.00    +0.005 C 
ATOM      5  C   LIG A   1      -5.642   4.104 130.788  0.00  0.00    +0.011 C 
ATOM      6  C   LIG A   1      -5.199   5.085 131.978  0.00  0.00    +0.079 C 
ATOM      7  C   LIG A   1      -3.849   4.525 132.537  0.00  0.00    +0.189 C 
ATOM      8  C   LIG A   1      -3.997   2.967 132.779  0.00  0.00    +0.046 C 
ATOM      9  C   LIG A   1      -5.296   2.166 132.324  0.00  0.00    +0.011 C 
ATOM     10  C   LIG A   1      -6.205   2.723 131.190  0.00  0.00    -0.025 C 
ATOM     11  C   LIG A   1      -7.674   2.902 131.693  0.00  0.00    +0.012 C 
ATOM     12  C   LIG A   1      -6.371   1.884 129.817  0.00  0.00    +0.006 C 
ATOM     13  C   LIG A   1      -7.380   0.740 129.742  0.00  0.00    +0.031 C 
ATOM     14  C   LIG A   1      -7.840   0.708 128.306  0.00  0.00    -0.026 C 
ATOM     15  C   LIG A   1      -6.981   0.815 127.272  0.00  0.00    -0.060 C 
ATOM     16  C   LIG A   1      -5.459   0.817 127.523  0.00  0.00    -0.005 C 
ATOM     17  C   LIG A   1      -4.571   1.477 126.400  0.00  0.00    +0.016 C 
ATOM     18  C   LIG A   1      -5.167  -0.716 127.395  0.00  0.00    +0.012 C 
ATOM     19  C   LIG A   1      -5.572  -1.298 125.998  0.00  0.00    +0.019 C 
ATOM     20  C   LIG A   1      -6.972  -0.836 125.412  0.00  0.00    +0.077 C 
ATOM     21  C   LIG A   1      -7.347   0.620 125.823  0.00  0.00    +0.064 C 
ATOM     22  C   LIG A   1      -8.635   1.254 125.184  0.00  0.00    +0.073 C 
ATOM     23  C   LIG A   1     -10.004   0.695 125.574  0.00  0.00    +0.042 C 
ATOM     24  C   LIG A   1      -8.410   1.209 123.637  0.00  0.00    +0.018 C 
ATOM     25  C   LIG A   1      -9.569   1.797 122.823  0.00  0.00    +0.010 C 
ATOM     26  C   LIG A   1      -8.075  -0.210 123.143  0.00  0.00    +0.007 C 
ATOM     27  C   LIG A   1      -6.880  -0.852 123.864  0.00  0.00    +0.019 C 
ENDROOT
BRANCH  20  28
ATOM     28  C   LIG A   1      -8.025  -1.860 125.894  0.00  0.00    +0.314 C 
ATOM     29  O   LIG A   1      -8.344  -2.062 127.045  0.00  0.00    -0.250 OA
BRANCH  28  30
ATOM     30  O   LIG A   1      -8.524  -2.562 124.836  0.00  0.00    -0.468 OA
ATOM     31  C   LIG A   1      -8.322  -3.970 124.872  0.00  0.00    +0.280 C 
ENDBRANCH  28  30
ENDBRANCH  20  28
BRANCH  22  32
ATOM     32  O   LIG A   1      -8.704   2.653 125.548  0.00  0.00    -0.388 OA
ATOM     33  H   LIG A   1      -9.432   3.078 125.063  0.00  0.00    +0.210 HD
ENDBRANCH  22  32
BRANCH   6  34
ATOM     34  C   LIG A   1      -6.124   5.221 133.248  0.00  0.00    +0.246 C 
BRANCH  34  35
ATOM     35  O   LIG A   1      -7.256   6.095 132.942  0.00  0.00    -0.464 OA
BRANCH  35  36
ATOM     36  C   LIG A   1      -8.464   5.824 133.510  0.00  0.00    +0.304 C 
ATOM     37  C   LIG A   1      -8.314   4.905 134.689  0.00  0.00    +0.136 C 
ATOM     38  O   LIG A   1      -9.531   6.336 133.183  0.00  0.00    -0.251 OA
ENDBRANCH  35  36
ENDBRANCH  34  35
ENDBRANCH   6  34
BRANCH   6  39
ATOM     39  C   LIG A   1      -5.120   6.519 131.368  0.00  0.00    +0.246 C 
BRANCH  39  40
ATOM     40  O   LIG A   1      -5.155   6.457 129.920  0.00  0.00    -0.464 OA
BRANCH  40  41
ATOM     41  C   LIG A   1      -4.283   7.256 129.237  0.00  0.00    +0.304 C 
ATOM     42  C   LIG A   1      -3.961   8.487 130.025  0.00  0.00    +0.136 C 
ATOM     43  O   LIG A   1      -3.889   7.058 128.108  0.00  0.00    -0.251 OA
ENDBRANCH  40  41
ENDBRANCH  39  40
ENDBRANCH   6  39
BRANCH   7  44
ATOM     44  O   LIG A   1      -2.699   4.743 131.644  0.00  0.00    -0.461 OA
BRANCH  44  45
ATOM     45  C   LIG A   1      -1.792   5.705 131.832  0.00  0.00    +0.304 C 
ATOM     46  C   LIG A   1      -1.415   5.808 133.284  0.00  0.00    +0.136 C 
ATOM     47  O   LIG A   1      -1.268   6.372 130.928  0.00  0.00    -0.251 OA
ENDBRANCH  44  45
ENDBRANCH   7  44
TORSDOF 11
ENDMDL
MODEL 8
REMARK VINA RESULT:      -7.6      5.327      9.578
REMARK  Name = NuBBE_482
REMARK  20 active torsions:
REMARK  status: ('A' for Active; 'I' for Inactive)
REMARK    1  A    between atoms: C_1  and  C_2
REMARK    2  A    between atoms: C_6  and  C_7
REMARK    3  A    between atoms: C_6  and  C_12
REMARK    4  A    between atoms: C_7  and  O_8
REMARK    5  A    between atoms: O_8  and  C_9
REMARK    6  A    between atoms: C_9  and  C_10
REMARK    7  A    between atoms: C_12  and  O_13
REMARK    8  A    between atoms: O_13  and  C_14
REMARK    9  A    between atoms: C_14  and  C_15
REMARK   10  A    between atoms: C_17  and  O_19
REMARK   11  A    between atoms: O_19  and  C_20
REMARK   12  A    between atoms: C_20  and  C_21
REMARK   13  A    between atoms: C_25  and  C_26
REMARK   14  A    between atoms: C_31  and  C_32
REMARK   15  A    between atoms: C_35  and  C_36
REMARK   16  A    between atoms: C_36  and  O_37
REMARK   17  A    between atoms: O_37  and  C_38
REMARK   18  A    between atoms: C_41  and  C_42
REMARK   19  A    between atoms: C_41  and  O_43
REMARK   20  A    between atoms: C_44  and  C_46
REMARK                            x       y       z     vdW  Elec       q    Type
REMARK                         _______ _______ _______ _____ _____    ______ ____
ROOT
ATOM      1  C   LIG A   1      -1.581   6.352 135.454  0.00  0.00    +0.012 C 
ATOM      2  C   LIG A   1      -2.211   7.437 134.553  0.00  0.00    -0.019 C 
ATOM      3  C   LIG A   1      -3.750   7.280 134.440  0.00  0.00    +0.008 C 
ATOM      4  C   LIG A   1      -4.217   6.120 133.607  0.00  0.00    +0.005 C 
ATOM      5  C   LIG A   1      -3.673   5.905 132.161  0.00  0.00    +0.011 C 
ATOM      6  C   LIG A   1      -4.324   4.573 131.546  0.00  0.00    +0.079 C 
ATOM      7  C   LIG A   1      -4.160   3.457 132.630  0.00  0.00    +0.189 C 
ATOM      8  C   LIG A   1      -2.666   3.465 133.158  0.00  0.00    +0.046 C 
ATOM      9  C   LIG A   1      -1.627   4.588 132.718  0.00  0.00    +0.011 C 
ATOM     10  C   LIG A   1      -2.131   5.972 132.215  0.00  0.00    -0.025 C 
ATOM     11  C   LIG A   1      -1.587   6.273 130.781  0.00  0.00    +0.012 C 
ATOM     12  C   LIG A   1      -1.764   7.306 133.050  0.00  0.00    +0.006 C 
ATOM     13  C   LIG A   1      -0.413   7.988 132.843  0.00  0.00    +0.031 C 
ATOM     14  C   LIG A   1      -0.662   9.453 133.093  0.00  0.00    -0.026 C 
ATOM     15  C   LIG A   1      -1.397   9.891 134.136  0.00  0.00    -0.060 C 
ATOM     16  C   LIG A   1      -1.884   8.901 135.214  0.00  0.00    -0.005 C 
ATOM     17  C   LIG A   1      -3.141   9.350 136.053  0.00  0.00    +0.016 C 
ATOM     18  C   LIG A   1      -0.691   8.999 136.223  0.00  0.00    +0.012 C 
ATOM     19  C   LIG A   1      -0.468  10.453 136.762  0.00  0.00    +0.019 C 
ATOM     20  C   LIG A   1      -0.537  11.626 135.696  0.00  0.00    +0.077 C 
ATOM     21  C   LIG A   1      -1.543  11.335 134.542  0.00  0.00    +0.064 C 
ATOM     22  C   LIG A   1      -1.820  12.481 133.504  0.00  0.00    +0.073 C 
ATOM     23  C   LIG A   1      -0.702  12.895 132.546  0.00  0.00    +0.042 C 
ATOM     24  C   LIG A   1      -2.346  13.695 134.338  0.00  0.00    +0.018 C 
ATOM     25  C   LIG A   1      -2.686  14.928 133.493  0.00  0.00    +0.010 C 
ATOM     26  C   LIG A   1      -1.383  14.074 135.478  0.00  0.00    +0.007 C 
ATOM     27  C   LIG A   1      -1.040  12.905 136.414  0.00  0.00    +0.019 C 
ENDROOT
BRANCH  20  28
ATOM     28  C   LIG A   1       0.899  11.842 135.167  0.00  0.00    +0.314 C 
ATOM     29  O   LIG A   1       1.537  11.055 134.501  0.00  0.00    -0.250 OA
BRANCH  28  30
ATOM     30  O   LIG A   1       1.391  13.038 135.600  0.00  0.00    -0.468 OA
ATOM     31  C   LIG A   1       2.286  13.702 134.714  0.00  0.00    +0.280 C 
ENDBRANCH  28  30
ENDBRANCH  20  28
BRANCH  22  32
ATOM     32  O   LIG A   1      -2.905  12.079 132.634  0.00  0.00    -0.388 OA
ATOM     33  H   LIG A   1      -2.811  11.137 132.414  0.00  0.00    +0.210 HD
ENDBRANCH  22  32
BRANCH   6  34
ATOM     34  C   LIG A   1      -3.704   3.945 130.239  0.00  0.00    +0.246 C 
BRANCH  34  35
ATOM     35  O   LIG A   1      -4.507   4.331 129.078  0.00  0.00    -0.464 OA
BRANCH  35  36
ATOM     36  C   LIG A   1      -3.901   4.407 127.861  0.00  0.00    +0.304 C 
ATOM     37  C   LIG A   1      -2.456   4.003 127.948  0.00  0.00    +0.136 C 
ATOM     38  O   LIG A   1      -4.468   4.667 126.804  0.00  0.00    -0.251 OA
ENDBRANCH  35  36
ENDBRANCH  34  35
ENDBRANCH   6  34
BRANCH   6  39
ATOM     39  C   LIG A   1      -5.798   4.926 131.177  0.00  0.00    +0.246 C 
BRANCH  39  40
ATOM     40  O   LIG A   1      -5.969   6.363 131.091  0.00  0.00    -0.464 OA
BRANCH  40  41
ATOM     41  C   LIG A   1      -7.244   6.848 131.161  0.00  0.00    +0.304 C 
ATOM     42  C   LIG A   1      -7.996   6.205 132.284  0.00  0.00    +0.136 C 
ATOM     43  O   LIG A   1      -7.744   7.622 130.374  0.00  0.00    -0.251 OA
ENDBRANCH  40  41
ENDBRANCH  39  40
ENDBRANCH   6  39
BRANCH   7  44
ATOM     44  O   LIG A   1      -5.055   3.616 133.789  0.00  0.00    -0.461 OA
BRANCH  44  45
ATOM     45  C   LIG A   1      -5.810   2.628 134.278  0.00  0.00    +0.304 C 
ATOM     46  C   LIG A   1      -7.236   2.771 133.827  0.00  0.00    +0.136 C 
ATOM     47  O   LIG A   1      -5.383   1.676 134.948  0.00  0.00    -0.251 OA
ENDBRANCH  44  45
ENDBRANCH   7  44
TORSDOF 11
ENDMDL
MODEL 9
REMARK VINA RESULT:      -7.6      2.610      5.220
REMARK  Name = NuBBE_482
REMARK  20 active torsions:
REMARK  status: ('A' for Active; 'I' for Inactive)
REMARK    1  A    between atoms: C_1  and  C_2
REMARK    2  A    between atoms: C_6  and  C_7
REMARK    3  A    between atoms: C_6  and  C_12
REMARK    4  A    between atoms: C_7  and  O_8
REMARK    5  A    between atoms: O_8  and  C_9
REMARK    6  A    between atoms: C_9  and  C_10
REMARK    7  A    between atoms: C_12  and  O_13
REMARK    8  A    between atoms: O_13  and  C_14
REMARK    9  A    between atoms: C_14  and  C_15
REMARK   10  A    between atoms: C_17  and  O_19
REMARK   11  A    between atoms: O_19  and  C_20
REMARK   12  A    between atoms: C_20  and  C_21
REMARK   13  A    between atoms: C_25  and  C_26
REMARK   14  A    between atoms: C_31  and  C_32
REMARK   15  A    between atoms: C_35  and  C_36
REMARK   16  A    between atoms: C_36  and  O_37
REMARK   17  A    between atoms: O_37  and  C_38
REMARK   18  A    between atoms: C_41  and  C_42
REMARK   19  A    between atoms: C_41  and  O_43
REMARK   20  A    between atoms: C_44  and  C_46
REMARK                            x       y       z     vdW  Elec       q    Type
REMARK                         _______ _______ _______ _____ _____    ______ ____
ROOT
ATOM      1  C   LIG A   1      -8.739   0.542 130.938  0.00  0.00    +0.012 C 
ATOM      2  C   LIG A   1      -7.498   1.396 130.599  0.00  0.00    -0.019 C 
ATOM      3  C   LIG A   1      -7.628   2.093 129.220  0.00  0.00    +0.008 C 
ATOM      4  C   LIG A   1      -7.502   1.186 128.029  0.00  0.00    +0.005 C 
ATOM      5  C   LIG A   1      -6.287   0.217 127.888  0.00  0.00    +0.011 C 
ATOM      6  C   LIG A   1      -6.453  -0.641 126.542  0.00  0.00    +0.079 C 
ATOM      7  C   LIG A   1      -7.916  -1.196 126.544  0.00  0.00    +0.189 C 
ATOM      8  C   LIG A   1      -8.223  -1.835 127.960  0.00  0.00    +0.046 C 
ATOM      9  C   LIG A   1      -7.199  -1.719 129.174  0.00  0.00    +0.011 C 
ATOM     10  C   LIG A   1      -6.149  -0.571 129.209  0.00  0.00    -0.025 C 
ATOM     11  C   LIG A   1      -4.699  -1.147 129.306  0.00  0.00    +0.012 C 
ATOM     12  C   LIG A   1      -6.204   0.524 130.397  0.00  0.00    +0.006 C 
ATOM     13  C   LIG A   1      -5.563   0.215 131.749  0.00  0.00    +0.031 C 
ATOM     14  C   LIG A   1      -5.106   1.547 132.288  0.00  0.00    -0.026 C 
ATOM     15  C   LIG A   1      -5.880   2.649 132.233  0.00  0.00    -0.060 C 
ATOM     16  C   LIG A   1      -7.343   2.550 131.753  0.00  0.00    -0.005 C 
ATOM     17  C   LIG A   1      -7.986   3.880 131.204  0.00  0.00    +0.016 C 
ATOM     18  C   LIG A   1      -8.057   2.313 133.126  0.00  0.00    +0.012 C 
ATOM     19  C   LIG A   1      -7.811   3.475 134.148  0.00  0.00    +0.019 C 
ATOM     20  C   LIG A   1      -6.327   4.026 134.256  0.00  0.00    +0.077 C 
ATOM     21  C   LIG A   1      -5.559   3.963 132.901  0.00  0.00    +0.064 C 
ATOM     22  C   LIG A   1      -4.134   4.618 132.835  0.00  0.00    +0.073 C 
ATOM     23  C   LIG A   1      -2.988   3.974 133.618  0.00  0.00    +0.042 C 
ATOM     24  C   LIG A   1      -4.334   6.118 133.231  0.00  0.00    +0.018 C 
ATOM     25  C   LIG A   1      -3.042   6.942 133.218  0.00  0.00    +0.010 C 
ATOM     26  C   LIG A   1      -5.051   6.267 134.585  0.00  0.00    +0.007 C 
ATOM     27  C   LIG A   1      -6.393   5.521 134.661  0.00  0.00    +0.019 C 
ENDROOT
BRANCH  20  28
ATOM     28  C   LIG A   1      -5.619   3.206 135.358  0.00  0.00    +0.314 C 
ATOM     29  O   LIG A   1      -5.323   2.032 135.292  0.00  0.00    -0.250 OA
BRANCH  28  30
ATOM     30  O   LIG A   1      -5.411   3.976 136.465  0.00  0.00    -0.468 OA
ATOM     31  C   LIG A   1      -4.608   3.396 137.487  0.00  0.00    +0.280 C 
ENDBRANCH  28  30
ENDBRANCH  20  28
BRANCH  22  32
ATOM     32  O   LIG A   1      -3.675   4.614 131.462  0.00  0.00    -0.388 OA
ATOM     33  H   LIG A   1      -4.153   5.295 130.959  0.00  0.00    +0.210 HD
ENDBRANCH  22  32
BRANCH   6  34
ATOM     34  C   LIG A   1      -5.550  -1.916 126.326  0.00  0.00    +0.246 C 
BRANCH  34  35
ATOM     35  O   LIG A   1      -5.266  -2.083 124.900  0.00  0.00    -0.464 OA
BRANCH  35  36
ATOM     36  C   LIG A   1      -5.672  -3.228 124.283  0.00  0.00    +0.304 C 
ATOM     37  C   LIG A   1      -4.510  -3.950 123.662  0.00  0.00    +0.136 C 
ATOM     38  O   LIG A   1      -6.813  -3.680 124.309  0.00  0.00    -0.251 OA
ENDBRANCH  35  36
ENDBRANCH  34  35
ENDBRANCH   6  34
BRANCH   6  39
ATOM     39  C   LIG A   1      -6.108   0.315 125.358  0.00  0.00    +0.246 C 
BRANCH  39  40
ATOM     40  O   LIG A   1      -5.239   1.385 125.806  0.00  0.00    -0.464 OA
BRANCH  40  41
ATOM     41  C   LIG A   1      -5.517   2.647 125.363  0.00  0.00    +0.304 C 
ATOM     42  C   LIG A   1      -5.053   3.671 126.351  0.00  0.00    +0.136 C 
ATOM     43  O   LIG A   1      -6.137   2.915 124.358  0.00  0.00    -0.251 OA
ENDBRANCH  40  41
ENDBRANCH  39  40
ENDBRANCH   6  39
BRANCH   7  44
ATOM     44  O   LIG A   1      -8.940  -0.173 126.271  0.00  0.00    -0.461 OA
BRANCH  44  45
ATOM     45  C   LIG A   1      -9.423   0.078 125.052  0.00  0.00    +0.304 C 
ATOM     46  C   LIG A   1      -9.590   1.557 124.838  0.00  0.00    +0.136 C 
ATOM     47  O   LIG A   1      -9.631  -0.779 124.181  0.00  0.00    -0.251 OA
ENDBRANCH  44  45
ENDBRANCH   7  44
TORSDOF 11
ENDMDL
