MODEL 1
REMARK VINA RESULT:      -7.6      0.000      0.000
REMARK  Name = NuBBE_188
REMARK  9 active torsions:
REMARK  status: ('A' for Active; 'I' for Inactive)
REMARK    1  A    between atoms: C_1  and  C_2
REMARK    2  A    between atoms: C_4  and  C_6
REMARK    3  A    between atoms: C_7  and  C_9
REMARK    4  A    between atoms: C_12  and  O_13
REMARK    5  A    between atoms: C_14  and  O_15
REMARK    6  A    between atoms: O_15  and  C_16
REMARK    7  A    between atoms: C_20  and  O_21
REMARK    8  A    between atoms: C_22  and  O_23
REMARK    9  A    between atoms: O_23  and  C_24
REMARK                            x       y       z     vdW  Elec       q    Type
REMARK                         _______ _______ _______ _____ _____    ______ ____
ROOT
ATOM      1  C   LIG A   1      -6.112  -3.494 124.758  0.00  0.00    +0.008 C 
ATOM      2  C   LIG A   1      -7.188  -3.140 123.723  0.00  0.00    -0.006 C 
ATOM      3  C   LIG A   1      -8.619  -3.197 124.306  0.00  0.00    +0.001 C 
ATOM      4  C   LIG A   1      -9.654  -3.276 123.165  0.00  0.00    +0.009 C 
ATOM      5  C   LIG A   1      -8.939  -1.998 125.241  0.00  0.00    +0.053 C 
ATOM      6  C   LIG A   1      -8.564  -0.676 124.584  0.00  0.00    -0.033 A 
ATOM      7  C   LIG A   1      -9.202   0.492 125.040  0.00  0.00    +0.053 A 
ATOM      8  C   LIG A   1      -8.800   1.752 124.606  0.00  0.00    +0.159 A 
ATOM      9  C   LIG A   1      -7.762   1.877 123.675  0.00  0.00    +0.162 A 
ATOM     10  C   LIG A   1      -7.152   0.707 123.191  0.00  0.00    +0.053 A 
ATOM     11  C   LIG A   1      -7.534  -0.574 123.637  0.00  0.00    -0.040 A 
ATOM     12  C   LIG A   1      -6.880  -1.795 123.034  0.00  0.00    +0.039 C 
ENDROOT
BRANCH   5  13
ATOM     13  C   LIG A   1      -8.375  -2.142 126.666  0.00  0.00    -0.036 A 
ATOM     14  C   LIG A   1      -8.665  -3.247 127.483  0.00  0.00    +0.008 A 
ATOM     15  C   LIG A   1      -8.127  -3.365 128.765  0.00  0.00    +0.049 A 
ATOM     16  C   LIG A   1      -7.293  -2.370 129.266  0.00  0.00    +0.159 A 
ATOM     17  C   LIG A   1      -6.972  -1.257 128.483  0.00  0.00    +0.162 A 
ATOM     18  C   LIG A   1      -7.510  -1.163 127.184  0.00  0.00    +0.053 A 
BRANCH  16  19
ATOM     19  O   LIG A   1      -6.811  -2.527 130.536  0.00  0.00    -0.503 OA
ATOM     20  H   LIG A   1      -7.446  -3.052 131.051  0.00  0.00    +0.292 HD
ENDBRANCH  16  19
BRANCH  17  21
ATOM     21  O   LIG A   1      -6.177  -0.192 128.812  0.00  0.00    -0.491 OA
ATOM     22  C   LIG A   1      -5.989   0.819 127.831  0.00  0.00    +0.277 C 
ENDBRANCH  17  21
ENDBRANCH   5  13
BRANCH   8  23
ATOM     23  O   LIG A   1      -9.429   2.838 125.144  0.00  0.00    -0.503 OA
ATOM     24  H   LIG A   1      -8.972   3.648 124.858  0.00  0.00    +0.292 HD
ENDBRANCH   8  23
BRANCH   9  25
ATOM     25  O   LIG A   1      -7.244   3.031 123.151  0.00  0.00    -0.491 OA
ATOM     26  C   LIG A   1      -6.173   3.644 123.861  0.00  0.00    +0.277 C 
ENDBRANCH   9  25
TORSDOF 5
ENDMDL
MODEL 2
REMARK VINA RESULT:      -7.2      1.344      5.600
REMARK  Name = NuBBE_188
REMARK  9 active torsions:
REMARK  status: ('A' for Active; 'I' for Inactive)
REMARK    1  A    between atoms: C_1  and  C_2
REMARK    2  A    between atoms: C_4  and  C_6
REMARK    3  A    between atoms: C_7  and  C_9
REMARK    4  A    between atoms: C_12  and  O_13
REMARK    5  A    between atoms: C_14  and  O_15
REMARK    6  A    between atoms: O_15  and  C_16
REMARK    7  A    between atoms: C_20  and  O_21
REMARK    8  A    between atoms: C_22  and  O_23
REMARK    9  A    between atoms: O_23  and  C_24
REMARK                            x       y       z     vdW  Elec       q    Type
REMARK                         _______ _______ _______ _____ _____    ______ ____
ROOT
ATOM      1  C   LIG A   1      -9.034  -2.109 123.508  0.00  0.00    +0.008 C 
ATOM      2  C   LIG A   1      -7.942  -3.074 123.985  0.00  0.00    -0.006 C 
ATOM      3  C   LIG A   1      -6.518  -2.488 123.834  0.00  0.00    +0.001 C 
ATOM      4  C   LIG A   1      -5.469  -3.617 123.897  0.00  0.00    +0.009 C 
ATOM      5  C   LIG A   1      -6.199  -1.397 124.892  0.00  0.00    +0.053 C 
ATOM      6  C   LIG A   1      -6.553  -1.874 126.295  0.00  0.00    -0.033 A 
ATOM      7  C   LIG A   1      -5.910  -1.258 127.383  0.00  0.00    +0.053 A 
ATOM      8  C   LIG A   1      -6.294  -1.523 128.695  0.00  0.00    +0.159 A 
ATOM      9  C   LIG A   1      -7.319  -2.441 128.956  0.00  0.00    +0.162 A 
ATOM     10  C   LIG A   1      -7.934  -3.085 127.869  0.00  0.00    +0.053 A 
ATOM     11  C   LIG A   1      -7.570  -2.811 126.535  0.00  0.00    -0.040 A 
ATOM     12  C   LIG A   1      -8.227  -3.579 125.414  0.00  0.00    +0.039 C 
ENDROOT
BRANCH   5  13
ATOM     13  C   LIG A   1      -6.783  -0.010 124.564  0.00  0.00    -0.036 A 
ATOM     14  C   LIG A   1      -6.671   0.573 123.292  0.00  0.00    +0.008 A 
ATOM     15  C   LIG A   1      -7.224   1.822 123.013  0.00  0.00    +0.049 A 
ATOM     16  C   LIG A   1      -7.895   2.527 124.009  0.00  0.00    +0.159 A 
ATOM     17  C   LIG A   1      -8.036   1.979 125.287  0.00  0.00    +0.162 A 
ATOM     18  C   LIG A   1      -7.487   0.708 125.546  0.00  0.00    +0.053 A 
BRANCH  16  19
ATOM     19  O   LIG A   1      -8.399   3.756 123.686  0.00  0.00    -0.503 OA
ATOM     20  H   LIG A   1      -7.869   4.440 124.127  0.00  0.00    +0.292 HD
ENDBRANCH  16  19
BRANCH  17  21
ATOM     21  O   LIG A   1      -8.658   2.527 126.378  0.00  0.00    -0.491 OA
ATOM     22  C   LIG A   1      -8.359   1.976 127.654  0.00  0.00    +0.277 C 
ENDBRANCH  17  21
ENDBRANCH   5  13
BRANCH   8  23
ATOM     23  O   LIG A   1      -5.661  -0.837 129.692  0.00  0.00    -0.503 OA
ATOM     24  H   LIG A   1      -5.620   0.106 129.457  0.00  0.00    +0.292 HD
ENDBRANCH   8  23
BRANCH   9  25
ATOM     25  O   LIG A   1      -7.818  -2.810 130.176  0.00  0.00    -0.491 OA
ATOM     26  C   LIG A   1      -6.936  -3.497 131.058  0.00  0.00    +0.277 C 
ENDBRANCH   9  25
TORSDOF 5
ENDMDL
MODEL 3
REMARK VINA RESULT:      -7.1      1.516      5.775
REMARK  Name = NuBBE_188
REMARK  9 active torsions:
REMARK  status: ('A' for Active; 'I' for Inactive)
REMARK    1  A    between atoms: C_1  and  C_2
REMARK    2  A    between atoms: C_4  and  C_6
REMARK    3  A    between atoms: C_7  and  C_9
REMARK    4  A    between atoms: C_12  and  O_13
REMARK    5  A    between atoms: C_14  and  O_15
REMARK    6  A    between atoms: O_15  and  C_16
REMARK    7  A    between atoms: C_20  and  O_21
REMARK    8  A    between atoms: C_22  and  O_23
REMARK    9  A    between atoms: O_23  and  C_24
REMARK                            x       y       z     vdW  Elec       q    Type
REMARK                         _______ _______ _______ _____ _____    ______ ____
ROOT
ATOM      1  C   LIG A   1      -9.387  -0.645 122.712  0.00  0.00    +0.008 C 
ATOM      2  C   LIG A   1      -8.371  -1.785 122.851  0.00  0.00    -0.006 C 
ATOM      3  C   LIG A   1      -6.912  -1.276 122.937  0.00  0.00    +0.001 C 
ATOM      4  C   LIG A   1      -5.930  -2.426 122.630  0.00  0.00    +0.009 C 
ATOM      5  C   LIG A   1      -6.577  -0.635 124.311  0.00  0.00    +0.053 C 
ATOM      6  C   LIG A   1      -7.012  -1.537 125.459  0.00  0.00    -0.033 A 
ATOM      7  C   LIG A   1      -6.381  -1.372 126.704  0.00  0.00    +0.053 A 
ATOM      8  C   LIG A   1      -6.832  -2.042 127.838  0.00  0.00    +0.159 A 
ATOM      9  C   LIG A   1      -7.916  -2.925 127.749  0.00  0.00    +0.162 A 
ATOM     10  C   LIG A   1      -8.521  -3.119 126.495  0.00  0.00    +0.053 A 
ATOM     11  C   LIG A   1      -8.089  -2.431 125.343  0.00  0.00    -0.040 A 
ATOM     12  C   LIG A   1      -8.741  -2.727 124.014  0.00  0.00    +0.039 C 
ENDROOT
BRANCH   5  13
ATOM     13  C   LIG A   1      -7.070   0.816 124.467  0.00  0.00    -0.036 A 
ATOM     14  C   LIG A   1      -8.001   1.194 125.448  0.00  0.00    +0.008 A 
ATOM     15  C   LIG A   1      -8.419   2.517 125.582  0.00  0.00    +0.049 A 
ATOM     16  C   LIG A   1      -7.922   3.497 124.725  0.00  0.00    +0.159 A 
ATOM     17  C   LIG A   1      -6.988   3.164 123.740  0.00  0.00    +0.162 A 
ATOM     18  C   LIG A   1      -6.563   1.826 123.631  0.00  0.00    +0.053 A 
BRANCH  16  19
ATOM     19  O   LIG A   1      -8.383   4.774 124.888  0.00  0.00    -0.503 OA
ATOM     20  H   LIG A   1      -7.630   5.387 124.853  0.00  0.00    +0.292 HD
ENDBRANCH  16  19
BRANCH  17  21
ATOM     21  O   LIG A   1      -6.401   3.990 122.819  0.00  0.00    -0.491 OA
ATOM     22  C   LIG A   1      -6.470   3.607 121.451  0.00  0.00    +0.277 C 
ENDBRANCH  17  21
ENDBRANCH   5  13
BRANCH   8  23
ATOM     23  O   LIG A   1      -6.204  -1.781 129.022  0.00  0.00    -0.503 OA
ATOM     24  H   LIG A   1      -6.865  -1.745 129.735  0.00  0.00    +0.292 HD
ENDBRANCH   8  23
BRANCH   9  25
ATOM     25  O   LIG A   1      -8.484  -3.655 128.758  0.00  0.00    -0.491 OA
ATOM     26  C   LIG A   1      -9.699  -4.337 128.463  0.00  0.00    +0.277 C 
ENDBRANCH   9  25
TORSDOF 5
ENDMDL
MODEL 4
REMARK VINA RESULT:      -6.8      2.476      5.698
REMARK  Name = NuBBE_188
REMARK  9 active torsions:
REMARK  status: ('A' for Active; 'I' for Inactive)
REMARK    1  A    between atoms: C_1  and  C_2
REMARK    2  A    between atoms: C_4  and  C_6
REMARK    3  A    between atoms: C_7  and  C_9
REMARK    4  A    between atoms: C_12  and  O_13
REMARK    5  A    between atoms: C_14  and  O_15
REMARK    6  A    between atoms: O_15  and  C_16
REMARK    7  A    between atoms: C_20  and  O_21
REMARK    8  A    between atoms: C_22  and  O_23
REMARK    9  A    between atoms: O_23  and  C_24
REMARK                            x       y       z     vdW  Elec       q    Type
REMARK                         _______ _______ _______ _____ _____    ______ ____
ROOT
ATOM      1  C   LIG A   1      -8.636  -3.756 128.450  0.00  0.00    +0.008 C 
ATOM      2  C   LIG A   1      -7.469  -3.283 129.326  0.00  0.00    -0.006 C 
ATOM      3  C   LIG A   1      -6.248  -2.822 128.497  0.00  0.00    +0.001 C 
ATOM      4  C   LIG A   1      -4.986  -2.787 129.384  0.00  0.00    +0.009 C 
ATOM      5  C   LIG A   1      -6.466  -1.443 127.816  0.00  0.00    +0.053 C 
ATOM      6  C   LIG A   1      -6.991  -0.417 128.811  0.00  0.00    -0.033 A 
ATOM      7  C   LIG A   1      -6.790   0.945 128.524  0.00  0.00    +0.053 A 
ATOM      8  C   LIG A   1      -7.378   1.942 129.296  0.00  0.00    +0.159 A 
ATOM      9  C   LIG A   1      -8.164   1.601 130.404  0.00  0.00    +0.162 A 
ATOM     10  C   LIG A   1      -8.333   0.241 130.713  0.00  0.00    +0.053 A 
ATOM     11  C   LIG A   1      -7.761  -0.780 129.927  0.00  0.00    -0.040 A 
ATOM     12  C   LIG A   1      -7.929  -2.221 130.346  0.00  0.00    +0.039 C 
ENDROOT
BRANCH   5  13
ATOM     13  C   LIG A   1      -7.297  -1.504 126.520  0.00  0.00    -0.036 A 
ATOM     14  C   LIG A   1      -7.035  -2.433 125.500  0.00  0.00    +0.008 A 
ATOM     15  C   LIG A   1      -7.812  -2.481 124.344  0.00  0.00    +0.049 A 
ATOM     16  C   LIG A   1      -8.868  -1.590 124.174  0.00  0.00    +0.159 A 
ATOM     17  C   LIG A   1      -9.168  -0.654 125.169  0.00  0.00    +0.162 A 
ATOM     18  C   LIG A   1      -8.383  -0.631 126.338  0.00  0.00    +0.053 A 
BRANCH  16  19
ATOM     19  O   LIG A   1      -9.584  -1.668 123.012  0.00  0.00    -0.503 OA
ATOM     20  H   LIG A   1      -9.598  -2.592 122.713  0.00  0.00    +0.292 HD
ENDBRANCH  16  19
BRANCH  17  21
ATOM     21  O   LIG A   1     -10.158   0.291 125.169  0.00  0.00    -0.491 OA
ATOM     22  C   LIG A   1      -9.914   1.503 124.467  0.00  0.00    +0.277 C 
ENDBRANCH  17  21
ENDBRANCH   5  13
BRANCH   8  23
ATOM     23  O   LIG A   1      -7.184   3.238 128.914  0.00  0.00    -0.503 OA
ATOM     24  H   LIG A   1      -6.371   3.577 129.329  0.00  0.00    +0.292 HD
ENDBRANCH   8  23
BRANCH   9  25
ATOM     25  O   LIG A   1      -8.813   2.450 131.260  0.00  0.00    -0.491 OA
ATOM     26  C   LIG A   1      -9.843   1.893 132.072  0.00  0.00    +0.277 C 
ENDBRANCH   9  25
TORSDOF 5
ENDMDL
MODEL 5
REMARK VINA RESULT:      -6.7      2.901      5.009
REMARK  Name = NuBBE_188
REMARK  9 active torsions:
REMARK  status: ('A' for Active; 'I' for Inactive)
REMARK    1  A    between atoms: C_1  and  C_2
REMARK    2  A    between atoms: C_4  and  C_6
REMARK    3  A    between atoms: C_7  and  C_9
REMARK    4  A    between atoms: C_12  and  O_13
REMARK    5  A    between atoms: C_14  and  O_15
REMARK    6  A    between atoms: O_15  and  C_16
REMARK    7  A    between atoms: C_20  and  O_21
REMARK    8  A    between atoms: C_22  and  O_23
REMARK    9  A    between atoms: O_23  and  C_24
REMARK                            x       y       z     vdW  Elec       q    Type
REMARK                         _______ _______ _______ _____ _____    ______ ____
ROOT
ATOM      1  C   LIG A   1      -4.652  -0.760 129.953  0.00  0.00    +0.008 C 
ATOM      2  C   LIG A   1      -4.821  -2.246 129.612  0.00  0.00    -0.006 C 
ATOM      3  C   LIG A   1      -6.030  -2.890 130.330  0.00  0.00    +0.001 C 
ATOM      4  C   LIG A   1      -5.898  -4.427 130.317  0.00  0.00    +0.009 C 
ATOM      5  C   LIG A   1      -7.393  -2.461 129.722  0.00  0.00    +0.053 C 
ATOM      6  C   LIG A   1      -7.389  -2.614 128.206  0.00  0.00    -0.033 A 
ATOM      7  C   LIG A   1      -8.627  -2.745 127.553  0.00  0.00    +0.053 A 
ATOM      8  C   LIG A   1      -8.718  -2.727 126.164  0.00  0.00    +0.159 A 
ATOM      9  C   LIG A   1      -7.560  -2.607 125.385  0.00  0.00    +0.162 A 
ATOM     10  C   LIG A   1      -6.319  -2.515 126.039  0.00  0.00    +0.053 A 
ATOM     11  C   LIG A   1      -6.214  -2.511 127.445  0.00  0.00    -0.040 A 
ATOM     12  C   LIG A   1      -4.848  -2.470 128.087  0.00  0.00    +0.039 C 
ENDROOT
BRANCH   5  13
ATOM     13  C   LIG A   1      -7.882  -1.076 130.184  0.00  0.00    -0.036 A 
ATOM     14  C   LIG A   1      -8.237  -0.808 131.516  0.00  0.00    +0.008 A 
ATOM     15  C   LIG A   1      -8.660   0.459 131.915  0.00  0.00    +0.049 A 
ATOM     16  C   LIG A   1      -8.749   1.491 130.985  0.00  0.00    +0.159 A 
ATOM     17  C   LIG A   1      -8.397   1.269 129.650  0.00  0.00    +0.162 A 
ATOM     18  C   LIG A   1      -7.955  -0.012 129.268  0.00  0.00    +0.053 A 
BRANCH  16  19
ATOM     19  O   LIG A   1      -9.190   2.707 131.428  0.00  0.00    -0.503 OA
ATOM     20  H   LIG A   1     -10.140   2.784 131.244  0.00  0.00    +0.292 HD
ENDBRANCH  16  19
BRANCH  17  21
ATOM     21  O   LIG A   1      -8.425   2.159 128.610  0.00  0.00    -0.491 OA
ATOM     22  C   LIG A   1      -8.304   1.638 127.293  0.00  0.00    +0.277 C 
ENDBRANCH  17  21
ENDBRANCH   5  13
BRANCH   8  23
ATOM     23  O   LIG A   1      -9.963  -2.797 125.608  0.00  0.00    -0.503 OA
ATOM     24  H   LIG A   1     -10.091  -2.040 125.011  0.00  0.00    +0.292 HD
ENDBRANCH   8  23
BRANCH   9  25
ATOM     25  O   LIG A   1      -7.472  -2.568 124.020  0.00  0.00    -0.491 OA
ATOM     26  C   LIG A   1      -6.405  -1.811 123.457  0.00  0.00    +0.277 C 
ENDBRANCH   9  25
TORSDOF 5
ENDMDL
MODEL 6
REMARK VINA RESULT:      -6.6      6.586      9.489
REMARK  Name = NuBBE_188
REMARK  9 active torsions:
REMARK  status: ('A' for Active; 'I' for Inactive)
REMARK    1  A    between atoms: C_1  and  C_2
REMARK    2  A    between atoms: C_4  and  C_6
REMARK    3  A    between atoms: C_7  and  C_9
REMARK    4  A    between atoms: C_12  and  O_13
REMARK    5  A    between atoms: C_14  and  O_15
REMARK    6  A    between atoms: O_15  and  C_16
REMARK    7  A    between atoms: C_20  and  O_21
REMARK    8  A    between atoms: C_22  and  O_23
REMARK    9  A    between atoms: O_23  and  C_24
REMARK                            x       y       z     vdW  Elec       q    Type
REMARK                         _______ _______ _______ _____ _____    ______ ____
ROOT
ATOM      1  C   LIG A   1      -3.722   7.923 131.090  0.00  0.00    +0.008 C 
ATOM      2  C   LIG A   1      -2.553   6.943 131.236  0.00  0.00    -0.006 C 
ATOM      3  C   LIG A   1      -2.800   5.878 132.331  0.00  0.00    +0.001 C 
ATOM      4  C   LIG A   1      -1.467   5.220 132.742  0.00  0.00    +0.009 C 
ATOM      5  C   LIG A   1      -3.825   4.794 131.898  0.00  0.00    +0.053 C 
ATOM      6  C   LIG A   1      -3.484   4.235 130.522  0.00  0.00    -0.033 A 
ATOM      7  C   LIG A   1      -3.974   2.961 130.187  0.00  0.00    +0.053 A 
ATOM      8  C   LIG A   1      -3.844   2.451 128.899  0.00  0.00    +0.159 A 
ATOM      9  C   LIG A   1      -3.188   3.197 127.911  0.00  0.00    +0.162 A 
ATOM     10  C   LIG A   1      -2.664   4.453 128.257  0.00  0.00    +0.053 A 
ATOM     11  C   LIG A   1      -2.807   4.991 129.552  0.00  0.00    -0.040 A 
ATOM     12  C   LIG A   1      -2.170   6.321 129.878  0.00  0.00    +0.039 C 
ENDROOT
BRANCH   5  13
ATOM     13  C   LIG A   1      -5.296   5.232 132.021  0.00  0.00    -0.036 A 
ATOM     14  C   LIG A   1      -5.905   5.488 133.260  0.00  0.00    +0.008 A 
ATOM     15  C   LIG A   1      -7.234   5.901 133.345  0.00  0.00    +0.049 A 
ATOM     16  C   LIG A   1      -7.992   6.058 132.188  0.00  0.00    +0.159 A 
ATOM     17  C   LIG A   1      -7.422   5.822 130.934  0.00  0.00    +0.162 A 
ATOM     18  C   LIG A   1      -6.073   5.422 130.865  0.00  0.00    +0.053 A 
BRANCH  16  19
ATOM     19  O   LIG A   1      -9.295   6.446 132.332  0.00  0.00    -0.503 OA
ATOM     20  H   LIG A   1      -9.530   6.418 133.275  0.00  0.00    +0.292 HD
ENDBRANCH  16  19
BRANCH  17  21
ATOM     21  O   LIG A   1      -8.014   5.924 129.703  0.00  0.00    -0.491 OA
ATOM     22  C   LIG A   1      -8.648   4.765 129.178  0.00  0.00    +0.277 C 
ENDBRANCH  17  21
ENDBRANCH   5  13
BRANCH   8  23
ATOM     23  O   LIG A   1      -4.402   1.233 128.639  0.00  0.00    -0.503 OA
ATOM     24  H   LIG A   1      -5.115   1.062 129.278  0.00  0.00    +0.292 HD
ENDBRANCH   8  23
BRANCH   9  25
ATOM     25  O   LIG A   1      -2.979   2.849 126.603  0.00  0.00    -0.491 OA
ATOM     26  C   LIG A   1      -1.661   3.016 126.089  0.00  0.00    +0.277 C 
ENDBRANCH   9  25
TORSDOF 5
ENDMDL
MODEL 7
REMARK VINA RESULT:      -6.6      6.709     10.381
REMARK  Name = NuBBE_188
REMARK  9 active torsions:
REMARK  status: ('A' for Active; 'I' for Inactive)
REMARK    1  A    between atoms: C_1  and  C_2
REMARK    2  A    between atoms: C_4  and  C_6
REMARK    3  A    between atoms: C_7  and  C_9
REMARK    4  A    between atoms: C_12  and  O_13
REMARK    5  A    between atoms: C_14  and  O_15
REMARK    6  A    between atoms: O_15  and  C_16
REMARK    7  A    between atoms: C_20  and  O_21
REMARK    8  A    between atoms: C_22  and  O_23
REMARK    9  A    between atoms: O_23  and  C_24
REMARK                            x       y       z     vdW  Elec       q    Type
REMARK                         _______ _______ _______ _____ _____    ______ ____
ROOT
ATOM      1  C   LIG A   1      -1.825   4.644 132.539  0.00  0.00    +0.008 C 
ATOM      2  C   LIG A   1      -2.348   6.008 133.003  0.00  0.00    -0.006 C 
ATOM      3  C   LIG A   1      -2.494   7.019 131.841  0.00  0.00    +0.001 C 
ATOM      4  C   LIG A   1      -2.583   8.456 132.396  0.00  0.00    +0.009 C 
ATOM      5  C   LIG A   1      -3.713   6.718 130.928  0.00  0.00    +0.053 C 
ATOM      6  C   LIG A   1      -4.975   6.500 131.752  0.00  0.00    -0.033 A 
ATOM      7  C   LIG A   1      -6.217   6.698 131.124  0.00  0.00    +0.053 A 
ATOM      8  C   LIG A   1      -7.410   6.364 131.758  0.00  0.00    +0.159 A 
ATOM      9  C   LIG A   1      -7.394   5.848 133.059  0.00  0.00    +0.162 A 
ATOM     10  C   LIG A   1      -6.155   5.687 133.701  0.00  0.00    +0.053 A 
ATOM     11  C   LIG A   1      -4.937   6.000 133.064  0.00  0.00    -0.040 A 
ATOM     12  C   LIG A   1      -3.642   5.861 133.828  0.00  0.00    +0.039 C 
ENDROOT
BRANCH   5  13
ATOM     13  C   LIG A   1      -3.468   5.600 129.897  0.00  0.00    -0.036 A 
ATOM     14  C   LIG A   1      -2.650   5.780 128.770  0.00  0.00    +0.008 A 
ATOM     15  C   LIG A   1      -2.428   4.748 127.860  0.00  0.00    +0.049 A 
ATOM     16  C   LIG A   1      -3.031   3.507 128.051  0.00  0.00    +0.159 A 
ATOM     17  C   LIG A   1      -3.846   3.283 129.164  0.00  0.00    +0.162 A 
ATOM     18  C   LIG A   1      -4.045   4.332 130.082  0.00  0.00    +0.053 A 
BRANCH  16  19
ATOM     19  O   LIG A   1      -2.795   2.538 127.116  0.00  0.00    -0.503 OA
ATOM     20  H   LIG A   1      -3.010   2.889 126.236  0.00  0.00    +0.292 HD
ENDBRANCH  16  19
BRANCH  17  21
ATOM     21  O   LIG A   1      -4.514   2.137 129.505  0.00  0.00    -0.491 OA
ATOM     22  C   LIG A   1      -5.613   2.256 130.400  0.00  0.00    +0.277 C 
ENDBRANCH  17  21
ENDBRANCH   5  13
BRANCH   8  23
ATOM     23  O   LIG A   1      -8.570   6.529 131.056  0.00  0.00    -0.503 OA
ATOM     24  H   LIG A   1      -8.513   7.346 130.529  0.00  0.00    +0.292 HD
ENDBRANCH   8  23
BRANCH   9  25
ATOM     25  O   LIG A   1      -8.467   5.467 133.820  0.00  0.00    -0.491 OA
ATOM     26  C   LIG A   1      -8.575   4.085 134.147  0.00  0.00    +0.277 C 
ENDBRANCH   9  25
TORSDOF 5
ENDMDL
MODEL 8
REMARK VINA RESULT:      -6.5      7.755      9.500
REMARK  Name = NuBBE_188
REMARK  9 active torsions:
REMARK  status: ('A' for Active; 'I' for Inactive)
REMARK    1  A    between atoms: C_1  and  C_2
REMARK    2  A    between atoms: C_4  and  C_6
REMARK    3  A    between atoms: C_7  and  C_9
REMARK    4  A    between atoms: C_12  and  O_13
REMARK    5  A    between atoms: C_14  and  O_15
REMARK    6  A    between atoms: O_15  and  C_16
REMARK    7  A    between atoms: C_20  and  O_21
REMARK    8  A    between atoms: C_22  and  O_23
REMARK    9  A    between atoms: O_23  and  C_24
REMARK                            x       y       z     vdW  Elec       q    Type
REMARK                         _______ _______ _______ _____ _____    ______ ____
ROOT
ATOM      1  C   LIG A   1      -6.943   2.620 132.718  0.00  0.00    +0.008 C 
ATOM      2  C   LIG A   1      -7.857   3.612 133.446  0.00  0.00    -0.006 C 
ATOM      3  C   LIG A   1      -7.175   4.978 133.700  0.00  0.00    +0.001 C 
ATOM      4  C   LIG A   1      -7.937   5.757 134.792  0.00  0.00    +0.009 C 
ATOM      5  C   LIG A   1      -7.049   5.838 132.413  0.00  0.00    +0.053 C 
ATOM      6  C   LIG A   1      -8.377   5.911 131.670  0.00  0.00    -0.033 A 
ATOM      7  C   LIG A   1      -8.586   6.992 130.796  0.00  0.00    +0.053 A 
ATOM      8  C   LIG A   1      -9.699   7.044 129.963  0.00  0.00    +0.159 A 
ATOM      9  C   LIG A   1     -10.657   6.023 130.004  0.00  0.00    +0.162 A 
ATOM     10  C   LIG A   1     -10.467   4.962 130.906  0.00  0.00    +0.053 A 
ATOM     11  C   LIG A   1      -9.333   4.886 131.741  0.00  0.00    -0.040 A 
ATOM     12  C   LIG A   1      -9.216   3.752 132.731  0.00  0.00    +0.039 C 
ENDROOT
BRANCH   5  13
ATOM     13  C   LIG A   1      -5.872   5.442 131.503  0.00  0.00    -0.036 A 
ATOM     14  C   LIG A   1      -6.057   4.969 130.194  0.00  0.00    +0.008 A 
ATOM     15  C   LIG A   1      -4.975   4.634 129.381  0.00  0.00    +0.049 A 
ATOM     16  C   LIG A   1      -3.675   4.753 129.865  0.00  0.00    +0.159 A 
ATOM     17  C   LIG A   1      -3.445   5.228 131.160  0.00  0.00    +0.162 A 
ATOM     18  C   LIG A   1      -4.550   5.578 131.961  0.00  0.00    +0.053 A 
BRANCH  16  19
ATOM     19  O   LIG A   1      -2.653   4.390 129.033  0.00  0.00    -0.503 OA
ATOM     20  H   LIG A   1      -2.198   5.191 128.725  0.00  0.00    +0.292 HD
ENDBRANCH  16  19
BRANCH  17  21
ATOM     21  O   LIG A   1      -2.245   5.405 131.795  0.00  0.00    -0.491 OA
ATOM     22  C   LIG A   1      -1.837   4.410 132.725  0.00  0.00    +0.277 C 
ENDBRANCH  17  21
ENDBRANCH   5  13
BRANCH   8  23
ATOM     23  O   LIG A   1      -9.797   8.097 129.100  0.00  0.00    -0.503 OA
ATOM     24  H   LIG A   1     -10.223   7.799 128.277  0.00  0.00    +0.292 HD
ENDBRANCH   8  23
BRANCH   9  25
ATOM     25  O   LIG A   1     -11.799   5.918 129.256  0.00  0.00    -0.491 OA
ATOM     26  C   LIG A   1     -12.873   6.795 129.582  0.00  0.00    +0.277 C 
ENDBRANCH   9  25
TORSDOF 5
ENDMDL
MODEL 9
REMARK VINA RESULT:      -6.4      1.805      5.750
REMARK  Name = NuBBE_188
REMARK  9 active torsions:
REMARK  status: ('A' for Active; 'I' for Inactive)
REMARK    1  A    between atoms: C_1  and  C_2
REMARK    2  A    between atoms: C_4  and  C_6
REMARK    3  A    between atoms: C_7  and  C_9
REMARK    4  A    between atoms: C_12  and  O_13
REMARK    5  A    between atoms: C_14  and  O_15
REMARK    6  A    between atoms: O_15  and  C_16
REMARK    7  A    between atoms: C_20  and  O_21
REMARK    8  A    between atoms: C_22  and  O_23
REMARK    9  A    between atoms: O_23  and  C_24
REMARK                            x       y       z     vdW  Elec       q    Type
REMARK                         _______ _______ _______ _____ _____    ______ ____
ROOT
ATOM      1  C   LIG A   1      -9.718   0.981 124.212  0.00  0.00    +0.008 C 
ATOM      2  C   LIG A   1      -9.088  -0.407 124.049  0.00  0.00    -0.006 C 
ATOM      3  C   LIG A   1      -7.675  -0.351 123.421  0.00  0.00    +0.001 C 
ATOM      4  C   LIG A   1      -7.281  -1.740 122.878  0.00  0.00    +0.009 C 
ATOM      5  C   LIG A   1      -6.595   0.166 124.410  0.00  0.00    +0.053 C 
ATOM      6  C   LIG A   1      -6.678  -0.564 125.744  0.00  0.00    -0.033 A 
ATOM      7  C   LIG A   1      -5.530  -0.589 126.555  0.00  0.00    +0.053 A 
ATOM      8  C   LIG A   1      -5.571  -1.094 127.852  0.00  0.00    +0.159 A 
ATOM      9  C   LIG A   1      -6.764  -1.618 128.365  0.00  0.00    +0.162 A 
ATOM     10  C   LIG A   1      -7.901  -1.628 127.540  0.00  0.00    +0.053 A 
ATOM     11  C   LIG A   1      -7.879  -1.101 126.232  0.00  0.00    -0.040 A 
ATOM     12  C   LIG A   1      -9.118  -1.195 125.374  0.00  0.00    +0.039 C 
ENDROOT
BRANCH   5  13
ATOM     13  C   LIG A   1      -6.564   1.698 124.565  0.00  0.00    -0.036 A 
ATOM     14  C   LIG A   1      -6.478   2.565 123.464  0.00  0.00    +0.008 A 
ATOM     15  C   LIG A   1      -6.470   3.950 123.627  0.00  0.00    +0.049 A 
ATOM     16  C   LIG A   1      -6.537   4.503 124.903  0.00  0.00    +0.159 A 
ATOM     17  C   LIG A   1      -6.632   3.676 126.026  0.00  0.00    +0.162 A 
ATOM     18  C   LIG A   1      -6.656   2.280 125.841  0.00  0.00    +0.053 A 
BRANCH  16  19
ATOM     19  O   LIG A   1      -6.504   5.866 125.006  0.00  0.00    -0.503 OA
ATOM     20  H   LIG A   1      -5.787   6.207 124.446  0.00  0.00    +0.292 HD
ENDBRANCH  16  19
BRANCH  17  21
ATOM     21  O   LIG A   1      -6.703   4.043 127.344  0.00  0.00    -0.491 OA
ATOM     22  C   LIG A   1      -6.156   3.153 128.308  0.00  0.00    +0.277 C 
ENDBRANCH  17  21
ENDBRANCH   5  13
BRANCH   8  23
ATOM     23  O   LIG A   1      -4.428  -1.026 128.596  0.00  0.00    -0.503 OA
ATOM     24  H   LIG A   1      -3.671  -1.294 128.048  0.00  0.00    +0.292 HD
ENDBRANCH   8  23
BRANCH   9  25
ATOM     25  O   LIG A   1      -6.977  -2.145 129.611  0.00  0.00    -0.491 OA
ATOM     26  C   LIG A   1      -7.787  -1.390 130.507  0.00  0.00    +0.277 C 
ENDBRANCH   9  25
TORSDOF 5
ENDMDL
