MODEL 1
REMARK VINA RESULT:      -9.4      0.000      0.000
REMARK  Name = NuBBE_1062
REMARK  9 active torsions:
REMARK  status: ('A' for Active; 'I' for Inactive)
REMARK    1  A    between atoms: C_1  and  C_2
REMARK    2  A    between atoms: C_2  and  C_3
REMARK    3  A    between atoms: C_4  and  O_6
REMARK    4  A    between atoms: C_9  and  C_10
REMARK    5  A    between atoms: C_14  and  C_30
REMARK    6  A    between atoms: C_15  and  C_27
REMARK    7  A    between atoms: C_18  and  C_19
REMARK    8  A    between atoms: C_22  and  C_23
REMARK    9  A    between atoms: C_22  and  C_24
REMARK                            x       y       z     vdW  Elec       q    Type
REMARK                         _______ _______ _______ _____ _____    ______ ____
ROOT
ATOM      1  C   LIG A   1      -3.573   2.715 127.394  0.00  0.00    +0.014 C 
ATOM      2  C   LIG A   1      -3.996   3.919 128.291  0.00  0.00    -0.006 C 
ATOM      3  C   LIG A   1      -4.875   4.797 127.382  0.00  0.00    +0.014 C 
ATOM      4  C   LIG A   1      -2.681   4.537 128.835  0.00  0.00    +0.120 C 
ATOM      5  C   LIG A   1      -2.889   5.514 129.988  0.00  0.00    +0.032 C 
ATOM      6  C   LIG A   1      -3.719   4.883 131.195  0.00  0.00    +0.010 C 
ATOM      7  C   LIG A   1      -5.166   4.455 130.692  0.00  0.00    -0.018 C 
ATOM      8  C   LIG A   1      -5.651   5.916 130.437  0.00  0.00    +0.012 C 
ATOM      9  C   LIG A   1      -4.747   3.438 129.551  0.00  0.00    +0.004 C 
ATOM     10  C   LIG A   1      -5.766   2.375 129.290  0.00  0.00    +0.005 C 
ATOM     11  C   LIG A   1      -6.038   1.715 130.625  0.00  0.00    +0.008 C 
ATOM     12  C   LIG A   1      -7.359   2.284 131.332  0.00  0.00    -0.013 C 
ATOM     13  C   LIG A   1      -8.781   3.047 131.118  0.00  0.00    -0.004 C 
ATOM     14  C   LIG A   1      -9.027   3.435 129.598  0.00  0.00    +0.012 C 
ATOM     15  C   LIG A   1      -8.443   4.841 129.321  0.00  0.00    +0.008 C 
ATOM     16  C   LIG A   1      -9.169   5.979 130.114  0.00  0.00    -0.025 C 
ATOM     17  C   LIG A   1      -8.329   7.067 130.840  0.00  0.00    +0.012 C 
ATOM     18  C   LIG A   1      -9.987   5.261 131.207  0.00  0.00    +0.022 C 
ATOM     19  C   LIG A   1     -11.007   6.164 131.873  0.00  0.00    +0.014 C 
ATOM     20  C   LIG A   1     -11.894   6.829 130.756  0.00  0.00    -0.034 C 
ATOM     21  C   LIG A   1     -12.886   7.759 131.448  0.00  0.00    +0.011 C 
ATOM     22  C   LIG A   1     -12.683   5.779 129.927  0.00  0.00    +0.011 C 
ATOM     23  C   LIG A   1     -11.038   7.649 129.764  0.00  0.00    +0.007 C 
ATOM     24  C   LIG A   1      -9.980   6.785 129.090  0.00  0.00    +0.008 C 
ATOM     25  C   LIG A   1      -9.980   2.200 131.788  0.00  0.00    +0.016 C 
ATOM     26  C   LIG A   1      -9.015   4.323 131.929  0.00  0.00    -0.056 C 
ATOM     27  C   LIG A   1      -8.377   4.537 133.093  0.00  0.00    +0.046 C 
ATOM     28  C   LIG A   1      -7.954   0.962 130.463  0.00  0.00    +0.013 C 
ATOM     29  C   LIG A   1      -6.254   3.625 131.782  0.00  0.00    +0.073 C 
ATOM     30  C   LIG A   1      -6.895   4.548 132.840  0.00  0.00    +0.160 C 
ATOM     31  O   LIG A   1      -6.198   5.285 133.575  0.00  0.00    -0.292 OA
ENDROOT
BRANCH   4  32
ATOM     32  O   LIG A   1      -1.930   5.153 127.798  0.00  0.00    -0.391 OA
ATOM     33  H   LIG A   1      -1.633   6.013 128.145  0.00  0.00    +0.210 HD
ENDBRANCH   4  32
TORSDOF 1
ENDMDL
MODEL 2
REMARK VINA RESULT:      -9.1      3.033      4.971
REMARK  Name = NuBBE_1062
REMARK  9 active torsions:
REMARK  status: ('A' for Active; 'I' for Inactive)
REMARK    1  A    between atoms: C_1  and  C_2
REMARK    2  A    between atoms: C_2  and  C_3
REMARK    3  A    between atoms: C_4  and  O_6
REMARK    4  A    between atoms: C_9  and  C_10
REMARK    5  A    between atoms: C_14  and  C_30
REMARK    6  A    between atoms: C_15  and  C_27
REMARK    7  A    between atoms: C_18  and  C_19
REMARK    8  A    between atoms: C_22  and  C_23
REMARK    9  A    between atoms: C_22  and  C_24
REMARK                            x       y       z     vdW  Elec       q    Type
REMARK                         _______ _______ _______ _____ _____    ______ ____
ROOT
ATOM      1  C   LIG A   1      -7.414   1.136 122.909  0.00  0.00    +0.014 C 
ATOM      2  C   LIG A   1      -7.165   2.308 123.906  0.00  0.00    -0.006 C 
ATOM      3  C   LIG A   1      -8.564   2.698 124.414  0.00  0.00    +0.014 C 
ATOM      4  C   LIG A   1      -6.360   3.379 123.122  0.00  0.00    +0.120 C 
ATOM      5  C   LIG A   1      -5.735   4.452 124.008  0.00  0.00    +0.032 C 
ATOM      6  C   LIG A   1      -4.824   3.847 125.169  0.00  0.00    +0.010 C 
ATOM      7  C   LIG A   1      -5.702   2.923 126.120  0.00  0.00    -0.018 C 
ATOM      8  C   LIG A   1      -6.555   4.100 126.690  0.00  0.00    +0.012 C 
ATOM      9  C   LIG A   1      -6.221   1.878 125.050  0.00  0.00    +0.004 C 
ATOM     10  C   LIG A   1      -6.530   0.532 125.625  0.00  0.00    +0.005 C 
ATOM     11  C   LIG A   1      -5.278   0.089 126.353  0.00  0.00    +0.008 C 
ATOM     12  C   LIG A   1      -5.356   0.367 127.930  0.00  0.00    -0.013 C 
ATOM     13  C   LIG A   1      -6.333   0.621 129.207  0.00  0.00    -0.004 C 
ATOM     14  C   LIG A   1      -7.866   0.622 128.796  0.00  0.00    +0.012 C 
ATOM     15  C   LIG A   1      -8.300   2.057 128.416  0.00  0.00    +0.008 C 
ATOM     16  C   LIG A   1      -8.240   3.061 129.616  0.00  0.00    -0.025 C 
ATOM     17  C   LIG A   1      -7.605   4.465 129.414  0.00  0.00    +0.012 C 
ATOM     18  C   LIG A   1      -7.398   2.356 130.699  0.00  0.00    +0.022 C 
ATOM     19  C   LIG A   1      -7.493   3.027 132.055  0.00  0.00    +0.014 C 
ATOM     20  C   LIG A   1      -9.012   3.176 132.436  0.00  0.00    -0.034 C 
ATOM     21  C   LIG A   1      -9.082   3.886 133.785  0.00  0.00    +0.011 C 
ATOM     22  C   LIG A   1      -9.727   1.801 132.553  0.00  0.00    +0.011 C 
ATOM     23  C   LIG A   1      -9.783   4.006 131.385  0.00  0.00    +0.007 C 
ATOM     24  C   LIG A   1      -9.692   3.380 130.000  0.00  0.00    +0.008 C 
ATOM     25  C   LIG A   1      -5.968  -0.398 130.405  0.00  0.00    +0.016 C 
ATOM     26  C   LIG A   1      -6.104   1.901 130.013  0.00  0.00    -0.056 C 
ATOM     27  C   LIG A   1      -4.907   2.512 130.030  0.00  0.00    +0.046 C 
ATOM     28  C   LIG A   1      -5.948  -1.213 127.811  0.00  0.00    +0.013 C 
ATOM     29  C   LIG A   1      -4.934   2.034 127.417  0.00  0.00    +0.073 C 
ATOM     30  C   LIG A   1      -4.546   2.911 128.625  0.00  0.00    +0.160 C 
ATOM     31  O   LIG A   1      -3.855   3.947 128.489  0.00  0.00    -0.292 OA
ENDROOT
BRANCH   4  32
ATOM     32  O   LIG A   1      -7.150   3.979 122.105  0.00  0.00    -0.391 OA
ATOM     33  H   LIG A   1      -6.528   4.353 121.456  0.00  0.00    +0.210 HD
ENDBRANCH   4  32
TORSDOF 1
ENDMDL
MODEL 3
REMARK VINA RESULT:      -8.9      2.627      6.478
REMARK  Name = NuBBE_1062
REMARK  9 active torsions:
REMARK  status: ('A' for Active; 'I' for Inactive)
REMARK    1  A    between atoms: C_1  and  C_2
REMARK    2  A    between atoms: C_2  and  C_3
REMARK    3  A    between atoms: C_4  and  O_6
REMARK    4  A    between atoms: C_9  and  C_10
REMARK    5  A    between atoms: C_14  and  C_30
REMARK    6  A    between atoms: C_15  and  C_27
REMARK    7  A    between atoms: C_18  and  C_19
REMARK    8  A    between atoms: C_22  and  C_23
REMARK    9  A    between atoms: C_22  and  C_24
REMARK                            x       y       z     vdW  Elec       q    Type
REMARK                         _______ _______ _______ _____ _____    ______ ____
ROOT
ATOM      1  C   LIG A   1      -7.460   5.637 133.602  0.00  0.00    +0.014 C 
ATOM      2  C   LIG A   1      -8.007   4.534 132.645  0.00  0.00    -0.006 C 
ATOM      3  C   LIG A   1      -8.756   5.304 131.543  0.00  0.00    +0.014 C 
ATOM      4  C   LIG A   1      -8.830   3.562 133.531  0.00  0.00    +0.120 C 
ATOM      5  C   LIG A   1      -9.171   2.242 132.846  0.00  0.00    +0.032 C 
ATOM      6  C   LIG A   1      -7.886   1.485 132.279  0.00  0.00    +0.010 C 
ATOM      7  C   LIG A   1      -7.161   2.391 131.191  0.00  0.00    -0.018 C 
ATOM      8  C   LIG A   1      -8.320   2.295 130.151  0.00  0.00    +0.012 C 
ATOM      9  C   LIG A   1      -6.861   3.666 132.082  0.00  0.00    +0.004 C 
ATOM     10  C   LIG A   1      -5.666   4.444 131.633  0.00  0.00    +0.005 C 
ATOM     11  C   LIG A   1      -4.518   3.458 131.573  0.00  0.00    +0.008 C 
ATOM     12  C   LIG A   1      -4.255   2.913 130.089  0.00  0.00    -0.013 C 
ATOM     13  C   LIG A   1      -4.453   3.189 128.497  0.00  0.00    -0.004 C 
ATOM     14  C   LIG A   1      -5.241   4.539 128.218  0.00  0.00    +0.012 C 
ATOM     15  C   LIG A   1      -6.760   4.251 128.167  0.00  0.00    +0.008 C 
ATOM     16  C   LIG A   1      -7.175   3.328 126.972  0.00  0.00    -0.025 C 
ATOM     17  C   LIG A   1      -8.157   2.148 127.217  0.00  0.00    +0.012 C 
ATOM     18  C   LIG A   1      -5.862   2.703 126.461  0.00  0.00    +0.022 C 
ATOM     19  C   LIG A   1      -6.011   2.031 125.109  0.00  0.00    +0.014 C 
ATOM     20  C   LIG A   1      -6.651   3.061 124.106  0.00  0.00    -0.034 C 
ATOM     21  C   LIG A   1      -6.825   2.352 122.766  0.00  0.00    +0.011 C 
ATOM     22  C   LIG A   1      -5.758   4.315 123.899  0.00  0.00    +0.011 C 
ATOM     23  C   LIG A   1      -8.030   3.555 124.601  0.00  0.00    +0.007 C 
ATOM     24  C   LIG A   1      -7.930   4.214 125.970  0.00  0.00    +0.008 C 
ATOM     25  C   LIG A   1      -3.039   3.075 127.727  0.00  0.00    +0.016 C 
ATOM     26  C   LIG A   1      -5.163   2.103 127.686  0.00  0.00    -0.056 C 
ATOM     27  C   LIG A   1      -5.164   0.821 128.088  0.00  0.00    +0.046 C 
ATOM     28  C   LIG A   1      -3.217   4.245 130.175  0.00  0.00    +0.013 C 
ATOM     29  C   LIG A   1      -5.651   1.858 130.484  0.00  0.00    +0.073 C 
ATOM     30  C   LIG A   1      -5.819   0.736 129.439  0.00  0.00    +0.160 C 
ATOM     31  O   LIG A   1      -6.444  -0.318 129.702  0.00  0.00    -0.292 OA
ENDROOT
BRANCH   4  32
ATOM     32  O   LIG A   1     -10.012   4.181 134.020  0.00  0.00    -0.391 OA
ATOM     33  H   LIG A   1      -9.880   4.311 134.977  0.00  0.00    +0.210 HD
ENDBRANCH   4  32
TORSDOF 1
ENDMDL
MODEL 4
REMARK VINA RESULT:      -8.8      2.930      5.666
REMARK  Name = NuBBE_1062
REMARK  9 active torsions:
REMARK  status: ('A' for Active; 'I' for Inactive)
REMARK    1  A    between atoms: C_1  and  C_2
REMARK    2  A    between atoms: C_2  and  C_3
REMARK    3  A    between atoms: C_4  and  O_6
REMARK    4  A    between atoms: C_9  and  C_10
REMARK    5  A    between atoms: C_14  and  C_30
REMARK    6  A    between atoms: C_15  and  C_27
REMARK    7  A    between atoms: C_18  and  C_19
REMARK    8  A    between atoms: C_22  and  C_23
REMARK    9  A    between atoms: C_22  and  C_24
REMARK                            x       y       z     vdW  Elec       q    Type
REMARK                         _______ _______ _______ _____ _____    ______ ____
ROOT
ATOM      1  C   LIG A   1      -1.992   6.285 134.087  0.00  0.00    +0.014 C 
ATOM      2  C   LIG A   1      -2.367   5.645 132.715  0.00  0.00    -0.006 C 
ATOM      3  C   LIG A   1      -1.834   4.203 132.794  0.00  0.00    +0.014 C 
ATOM      4  C   LIG A   1      -1.769   6.574 131.626  0.00  0.00    +0.120 C 
ATOM      5  C   LIG A   1      -2.304   6.304 130.223  0.00  0.00    +0.032 C 
ATOM      6  C   LIG A   1      -3.897   6.350 130.145  0.00  0.00    +0.010 C 
ATOM      7  C   LIG A   1      -4.517   5.234 131.094  0.00  0.00    -0.018 C 
ATOM      8  C   LIG A   1      -3.990   4.036 130.244  0.00  0.00    +0.012 C 
ATOM      9  C   LIG A   1      -3.891   5.698 132.473  0.00  0.00    +0.004 C 
ATOM     10  C   LIG A   1      -4.714   5.320 133.663  0.00  0.00    +0.005 C 
ATOM     11  C   LIG A   1      -6.101   5.871 133.407  0.00  0.00    +0.008 C 
ATOM     12  C   LIG A   1      -7.104   4.762 132.829  0.00  0.00    -0.013 C 
ATOM     13  C   LIG A   1      -7.419   3.171 132.690  0.00  0.00    -0.004 C 
ATOM     14  C   LIG A   1      -6.301   2.278 133.378  0.00  0.00    +0.012 C 
ATOM     15  C   LIG A   1      -5.189   1.958 132.351  0.00  0.00    +0.008 C 
ATOM     16  C   LIG A   1      -5.684   1.074 131.158  0.00  0.00    -0.025 C 
ATOM     17  C   LIG A   1      -5.284   1.449 129.704  0.00  0.00    +0.012 C 
ATOM     18  C   LIG A   1      -7.224   1.134 131.214  0.00  0.00    +0.022 C 
ATOM     19  C   LIG A   1      -7.891   0.087 130.342  0.00  0.00    +0.014 C 
ATOM     20  C   LIG A   1      -7.301  -1.324 130.712  0.00  0.00    -0.034 C 
ATOM     21  C   LIG A   1      -7.959  -2.352 129.797  0.00  0.00    +0.011 C 
ATOM     22  C   LIG A   1      -7.584  -1.711 132.190  0.00  0.00    +0.011 C 
ATOM     23  C   LIG A   1      -5.770  -1.371 130.509  0.00  0.00    +0.007 C 
ATOM     24  C   LIG A   1      -5.061  -0.316 131.349  0.00  0.00    +0.008 C 
ATOM     25  C   LIG A   1      -8.922   2.850 133.185  0.00  0.00    +0.016 C 
ATOM     26  C   LIG A   1      -7.597   2.619 131.274  0.00  0.00    -0.056 C 
ATOM     27  C   LIG A   1      -7.990   3.410 130.261  0.00  0.00    +0.046 C 
ATOM     28  C   LIG A   1      -7.364   4.652 134.497  0.00  0.00    +0.013 C 
ATOM     29  C   LIG A   1      -6.252   5.133 131.294  0.00  0.00    +0.073 C 
ATOM     30  C   LIG A   1      -6.981   4.511 130.085  0.00  0.00    +0.160 C 
ATOM     31  O   LIG A   1      -6.814   4.948 128.922  0.00  0.00    -0.292 OA
ENDROOT
BRANCH   4  32
ATOM     32  O   LIG A   1      -0.349   6.529 131.628  0.00  0.00    -0.391 OA
ATOM     33  H   LIG A   1      -0.089   5.949 130.890  0.00  0.00    +0.210 HD
ENDBRANCH   4  32
TORSDOF 1
ENDMDL
MODEL 5
REMARK VINA RESULT:      -8.8      3.253      6.300
REMARK  Name = NuBBE_1062
REMARK  9 active torsions:
REMARK  status: ('A' for Active; 'I' for Inactive)
REMARK    1  A    between atoms: C_1  and  C_2
REMARK    2  A    between atoms: C_2  and  C_3
REMARK    3  A    between atoms: C_4  and  O_6
REMARK    4  A    between atoms: C_9  and  C_10
REMARK    5  A    between atoms: C_14  and  C_30
REMARK    6  A    between atoms: C_15  and  C_27
REMARK    7  A    between atoms: C_18  and  C_19
REMARK    8  A    between atoms: C_22  and  C_23
REMARK    9  A    between atoms: C_22  and  C_24
REMARK                            x       y       z     vdW  Elec       q    Type
REMARK                         _______ _______ _______ _____ _____    ______ ____
ROOT
ATOM      1  C   LIG A   1      -8.874   1.021 124.317  0.00  0.00    +0.014 C 
ATOM      2  C   LIG A   1      -7.412   0.900 124.846  0.00  0.00    -0.006 C 
ATOM      3  C   LIG A   1      -6.702   2.165 124.331  0.00  0.00    +0.014 C 
ATOM      4  C   LIG A   1      -6.885  -0.472 124.352  0.00  0.00    +0.120 C 
ATOM      5  C   LIG A   1      -5.597  -0.922 125.037  0.00  0.00    +0.032 C 
ATOM      6  C   LIG A   1      -5.713  -0.938 126.628  0.00  0.00    +0.010 C 
ATOM      7  C   LIG A   1      -6.028   0.527 127.162  0.00  0.00    -0.018 C 
ATOM      8  C   LIG A   1      -4.643   1.115 126.748  0.00  0.00    +0.012 C 
ATOM      9  C   LIG A   1      -7.383   0.794 126.386  0.00  0.00    +0.004 C 
ATOM     10  C   LIG A   1      -8.297   1.749 127.085  0.00  0.00    +0.005 C 
ATOM     11  C   LIG A   1      -8.493   1.199 128.482  0.00  0.00    +0.008 C 
ATOM     12  C   LIG A   1      -7.539   1.907 129.558  0.00  0.00    -0.013 C 
ATOM     13  C   LIG A   1      -6.651   3.225 129.912  0.00  0.00    -0.004 C 
ATOM     14  C   LIG A   1      -6.681   4.297 128.742  0.00  0.00    +0.012 C 
ATOM     15  C   LIG A   1      -5.528   4.015 127.750  0.00  0.00    +0.008 C 
ATOM     16  C   LIG A   1      -4.108   4.201 128.384  0.00  0.00    -0.025 C 
ATOM     17  C   LIG A   1      -3.008   3.131 128.134  0.00  0.00    +0.012 C 
ATOM     18  C   LIG A   1      -4.340   4.238 129.908  0.00  0.00    +0.022 C 
ATOM     19  C   LIG A   1      -3.131   4.731 130.680  0.00  0.00    +0.014 C 
ATOM     20  C   LIG A   1      -2.681   6.112 130.078  0.00  0.00    -0.034 C 
ATOM     21  C   LIG A   1      -1.444   6.569 130.846  0.00  0.00    +0.011 C 
ATOM     22  C   LIG A   1      -3.783   7.199 130.208  0.00  0.00    +0.011 C 
ATOM     23  C   LIG A   1      -2.330   5.992 128.577  0.00  0.00    +0.007 C 
ATOM     24  C   LIG A   1      -3.510   5.473 127.767  0.00  0.00    +0.008 C 
ATOM     25  C   LIG A   1      -7.065   3.810 131.359  0.00  0.00    +0.016 C 
ATOM     26  C   LIG A   1      -5.176   2.999 130.248  0.00  0.00    -0.056 C 
ATOM     27  C   LIG A   1      -4.742   1.822 130.733  0.00  0.00    +0.046 C 
ATOM     28  C   LIG A   1      -8.941   2.849 129.641  0.00  0.00    +0.013 C 
ATOM     29  C   LIG A   1      -6.323   0.784 128.868  0.00  0.00    +0.073 C 
ATOM     30  C   LIG A   1      -5.044   0.743 129.731  0.00  0.00    +0.160 C 
ATOM     31  O   LIG A   1      -4.249  -0.225 129.681  0.00  0.00    -0.292 OA
ENDROOT
BRANCH   4  32
ATOM     32  O   LIG A   1      -6.722  -0.488 122.940  0.00  0.00    -0.391 OA
ATOM     33  H   LIG A   1      -5.848  -0.880 122.767  0.00  0.00    +0.210 HD
ENDBRANCH   4  32
TORSDOF 1
ENDMDL
MODEL 6
REMARK VINA RESULT:      -8.7      2.966      5.865
REMARK  Name = NuBBE_1062
REMARK  9 active torsions:
REMARK  status: ('A' for Active; 'I' for Inactive)
REMARK    1  A    between atoms: C_1  and  C_2
REMARK    2  A    between atoms: C_2  and  C_3
REMARK    3  A    between atoms: C_4  and  O_6
REMARK    4  A    between atoms: C_9  and  C_10
REMARK    5  A    between atoms: C_14  and  C_30
REMARK    6  A    between atoms: C_15  and  C_27
REMARK    7  A    between atoms: C_18  and  C_19
REMARK    8  A    between atoms: C_22  and  C_23
REMARK    9  A    between atoms: C_22  and  C_24
REMARK                            x       y       z     vdW  Elec       q    Type
REMARK                         _______ _______ _______ _____ _____    ______ ____
ROOT
ATOM      1  C   LIG A   1      -2.940   6.354 130.775  0.00  0.00    +0.014 C 
ATOM      2  C   LIG A   1      -4.395   5.804 130.661  0.00  0.00    -0.006 C 
ATOM      3  C   LIG A   1      -4.484   5.216 129.242  0.00  0.00    +0.014 C 
ATOM      4  C   LIG A   1      -5.334   6.989 131.009  0.00  0.00    +0.120 C 
ATOM      5  C   LIG A   1      -6.777   6.575 131.276  0.00  0.00    +0.032 C 
ATOM      6  C   LIG A   1      -6.904   5.450 132.400  0.00  0.00    +0.010 C 
ATOM      7  C   LIG A   1      -6.129   4.138 131.941  0.00  0.00    -0.018 C 
ATOM      8  C   LIG A   1      -7.107   3.814 130.770  0.00  0.00    +0.012 C 
ATOM      9  C   LIG A   1      -4.680   4.752 131.754  0.00  0.00    +0.004 C 
ATOM     10  C   LIG A   1      -3.578   3.762 131.955  0.00  0.00    +0.005 C 
ATOM     11  C   LIG A   1      -3.808   3.146 133.319  0.00  0.00    +0.008 C 
ATOM     12  C   LIG A   1      -4.558   1.732 133.235  0.00  0.00    -0.013 C 
ATOM     13  C   LIG A   1      -4.912   0.448 132.299  0.00  0.00    -0.004 C 
ATOM     14  C   LIG A   1      -4.307   0.588 130.838  0.00  0.00    +0.012 C 
ATOM     15  C   LIG A   1      -5.328   1.302 129.921  0.00  0.00    +0.008 C 
ATOM     16  C   LIG A   1      -6.642   0.480 129.698  0.00  0.00    -0.025 C 
ATOM     17  C   LIG A   1      -8.020   1.189 129.803  0.00  0.00    +0.012 C 
ATOM     18  C   LIG A   1      -6.631  -0.613 130.786  0.00  0.00    +0.022 C 
ATOM     19  C   LIG A   1      -7.653  -1.706 130.540  0.00  0.00    +0.014 C 
ATOM     20  C   LIG A   1      -7.448  -2.265 129.083  0.00  0.00    -0.034 C 
ATOM     21  C   LIG A   1      -8.510  -3.335 128.846  0.00  0.00    +0.011 C 
ATOM     22  C   LIG A   1      -6.043  -2.898 128.888  0.00  0.00    +0.011 C 
ATOM     23  C   LIG A   1      -7.602  -1.153 128.020  0.00  0.00    +0.007 C 
ATOM     24  C   LIG A   1      -6.610  -0.020 128.247  0.00  0.00    +0.008 C 
ATOM     25  C   LIG A   1      -4.515  -0.923 133.053  0.00  0.00    +0.016 C 
ATOM     26  C   LIG A   1      -6.393   0.106 132.119  0.00  0.00    -0.056 C 
ATOM     27  C   LIG A   1      -7.309   0.465 133.035  0.00  0.00    +0.046 C 
ATOM     28  C   LIG A   1      -2.929   1.279 133.212  0.00  0.00    +0.013 C 
ATOM     29  C   LIG A   1      -6.002   2.778 133.034  0.00  0.00    +0.073 C 
ATOM     30  C   LIG A   1      -7.306   1.963 133.163  0.00  0.00    +0.160 C 
ATOM     31  O   LIG A   1      -8.397   2.510 133.451  0.00  0.00    -0.292 OA
ENDROOT
BRANCH   4  32
ATOM     32  O   LIG A   1      -5.289   7.998 130.009  0.00  0.00    -0.391 OA
ATOM     33  H   LIG A   1      -4.790   7.623 129.261  0.00  0.00    +0.210 HD
ENDBRANCH   4  32
TORSDOF 1
ENDMDL
MODEL 7
REMARK VINA RESULT:      -8.6      3.055      6.951
REMARK  Name = NuBBE_1062
REMARK  9 active torsions:
REMARK  status: ('A' for Active; 'I' for Inactive)
REMARK    1  A    between atoms: C_1  and  C_2
REMARK    2  A    between atoms: C_2  and  C_3
REMARK    3  A    between atoms: C_4  and  O_6
REMARK    4  A    between atoms: C_9  and  C_10
REMARK    5  A    between atoms: C_14  and  C_30
REMARK    6  A    between atoms: C_15  and  C_27
REMARK    7  A    between atoms: C_18  and  C_19
REMARK    8  A    between atoms: C_22  and  C_23
REMARK    9  A    between atoms: C_22  and  C_24
REMARK                            x       y       z     vdW  Elec       q    Type
REMARK                         _______ _______ _______ _____ _____    ______ ____
ROOT
ATOM      1  C   LIG A   1      -5.331  -0.139 131.324  0.00  0.00    +0.014 C 
ATOM      2  C   LIG A   1      -5.737   1.167 132.073  0.00  0.00    -0.006 C 
ATOM      3  C   LIG A   1      -4.723   1.292 133.224  0.00  0.00    +0.014 C 
ATOM      4  C   LIG A   1      -7.234   1.005 132.447  0.00  0.00    +0.120 C 
ATOM      5  C   LIG A   1      -7.904   2.302 132.889  0.00  0.00    +0.032 C 
ATOM      6  C   LIG A   1      -7.747   3.478 131.823  0.00  0.00    +0.010 C 
ATOM      7  C   LIG A   1      -6.206   3.810 131.606  0.00  0.00    -0.018 C 
ATOM      8  C   LIG A   1      -5.994   4.380 133.043  0.00  0.00    +0.012 C 
ATOM      9  C   LIG A   1      -5.706   2.386 131.125  0.00  0.00    +0.004 C 
ATOM     10  C   LIG A   1      -4.505   2.440 130.236  0.00  0.00    +0.005 C 
ATOM     11  C   LIG A   1      -4.863   3.376 129.100  0.00  0.00    +0.008 C 
ATOM     12  C   LIG A   1      -4.299   4.859 129.327  0.00  0.00    -0.013 C 
ATOM     13  C   LIG A   1      -3.196   5.779 130.092  0.00  0.00    -0.004 C 
ATOM     14  C   LIG A   1      -2.257   4.920 131.043  0.00  0.00    +0.012 C 
ATOM     15  C   LIG A   1      -2.888   4.832 132.452  0.00  0.00    +0.008 C 
ATOM     16  C   LIG A   1      -2.979   6.217 133.178  0.00  0.00    -0.025 C 
ATOM     17  C   LIG A   1      -4.292   6.621 133.904  0.00  0.00    +0.012 C 
ATOM     18  C   LIG A   1      -2.749   7.273 132.077  0.00  0.00    +0.022 C 
ATOM     19  C   LIG A   1      -2.480   8.658 132.631  0.00  0.00    +0.014 C 
ATOM     20  C   LIG A   1      -1.301   8.563 133.668  0.00  0.00    -0.034 C 
ATOM     21  C   LIG A   1      -1.075   9.961 134.237  0.00  0.00    +0.011 C 
ATOM     22  C   LIG A   1       0.018   8.066 133.017  0.00  0.00    +0.011 C 
ATOM     23  C   LIG A   1      -1.637   7.593 134.824  0.00  0.00    +0.007 C 
ATOM     24  C   LIG A   1      -1.941   6.193 134.309  0.00  0.00    +0.008 C 
ATOM     25  C   LIG A   1      -2.401   6.701 129.033  0.00  0.00    +0.016 C 
ATOM     26  C   LIG A   1      -3.725   6.935 130.944  0.00  0.00    -0.056 C 
ATOM     27  C   LIG A   1      -4.920   7.497 130.693  0.00  0.00    +0.046 C 
ATOM     28  C   LIG A   1      -3.055   4.129 128.444  0.00  0.00    +0.013 C 
ATOM     29  C   LIG A   1      -5.732   4.985 130.399  0.00  0.00    +0.073 C 
ATOM     30  C   LIG A   1      -5.988   6.446 130.824  0.00  0.00    +0.160 C 
ATOM     31  O   LIG A   1      -7.113   6.827 131.223  0.00  0.00    -0.292 OA
ENDROOT
BRANCH   4  32
ATOM     32  O   LIG A   1      -7.416  -0.003 133.431  0.00  0.00    -0.391 OA
ATOM     33  H   LIG A   1      -8.374  -0.172 133.481  0.00  0.00    +0.210 HD
ENDBRANCH   4  32
TORSDOF 1
ENDMDL
MODEL 8
REMARK VINA RESULT:      -8.5      3.083      5.831
REMARK  Name = NuBBE_1062
REMARK  9 active torsions:
REMARK  status: ('A' for Active; 'I' for Inactive)
REMARK    1  A    between atoms: C_1  and  C_2
REMARK    2  A    between atoms: C_2  and  C_3
REMARK    3  A    between atoms: C_4  and  O_6
REMARK    4  A    between atoms: C_9  and  C_10
REMARK    5  A    between atoms: C_14  and  C_30
REMARK    6  A    between atoms: C_15  and  C_27
REMARK    7  A    between atoms: C_18  and  C_19
REMARK    8  A    between atoms: C_22  and  C_23
REMARK    9  A    between atoms: C_22  and  C_24
REMARK                            x       y       z     vdW  Elec       q    Type
REMARK                         _______ _______ _______ _____ _____    ______ ____
ROOT
ATOM      1  C   LIG A   1      -7.802  -2.433 129.129  0.00  0.00    +0.014 C 
ATOM      2  C   LIG A   1      -6.653  -1.858 130.014  0.00  0.00    -0.006 C 
ATOM      3  C   LIG A   1      -5.763  -1.068 129.038  0.00  0.00    +0.014 C 
ATOM      4  C   LIG A   1      -6.020  -3.071 130.744  0.00  0.00    +0.120 C 
ATOM      5  C   LIG A   1      -5.102  -2.685 131.900  0.00  0.00    +0.032 C 
ATOM      6  C   LIG A   1      -5.813  -1.734 132.967  0.00  0.00    +0.010 C 
ATOM      7  C   LIG A   1      -6.262  -0.378 132.267  0.00  0.00    -0.018 C 
ATOM      8  C   LIG A   1      -4.807   0.124 132.012  0.00  0.00    +0.012 C 
ATOM      9  C   LIG A   1      -7.213  -0.973 131.149  0.00  0.00    +0.004 C 
ATOM     10  C   LIG A   1      -8.294  -0.034 130.718  0.00  0.00    +0.005 C 
ATOM     11  C   LIG A   1      -9.022   0.378 131.980  0.00  0.00    +0.008 C 
ATOM     12  C   LIG A   1      -8.526   1.797 132.537  0.00  0.00    -0.013 C 
ATOM     13  C   LIG A   1      -7.799   3.208 132.175  0.00  0.00    -0.004 C 
ATOM     14  C   LIG A   1      -7.350   3.276 130.653  0.00  0.00    +0.012 C 
ATOM     15  C   LIG A   1      -5.916   2.714 130.510  0.00  0.00    +0.008 C 
ATOM     16  C   LIG A   1      -4.837   3.573 131.251  0.00  0.00    -0.025 C 
ATOM     17  C   LIG A   1      -3.758   2.871 132.121  0.00  0.00    +0.012 C 
ATOM     18  C   LIG A   1      -5.629   4.496 132.200  0.00  0.00    +0.022 C 
ATOM     19  C   LIG A   1      -4.789   5.623 132.769  0.00  0.00    +0.014 C 
ATOM     20  C   LIG A   1      -4.102   6.386 131.577  0.00  0.00    -0.034 C 
ATOM     21  C   LIG A   1      -3.235   7.491 132.175  0.00  0.00    +0.011 C 
ATOM     22  C   LIG A   1      -5.138   7.027 130.612  0.00  0.00    +0.011 C 
ATOM     23  C   LIG A   1      -3.212   5.444 130.735  0.00  0.00    +0.007 C 
ATOM     24  C   LIG A   1      -4.012   4.280 130.165  0.00  0.00    +0.008 C 
ATOM     25  C   LIG A   1      -8.712   4.450 132.654  0.00  0.00    +0.016 C 
ATOM     26  C   LIG A   1      -6.568   3.588 133.002  0.00  0.00    -0.056 C 
ATOM     27  C   LIG A   1      -6.387   3.109 134.244  0.00  0.00    +0.046 C 
ATOM     28  C   LIG A   1      -9.826   2.231 131.546  0.00  0.00    +0.013 C 
ATOM     29  C   LIG A   1      -7.173   0.807 133.177  0.00  0.00    +0.073 C 
ATOM     30  C   LIG A   1      -6.319   1.608 134.181  0.00  0.00    +0.160 C 
ATOM     31  O   LIG A   1      -5.594   1.036 135.029  0.00  0.00    -0.292 OA
ENDROOT
BRANCH   4  32
ATOM     32  O   LIG A   1      -5.335  -3.923 129.837  0.00  0.00    -0.391 OA
ATOM     33  H   LIG A   1      -6.019  -4.389 129.324  0.00  0.00    +0.210 HD
ENDBRANCH   4  32
TORSDOF 1
ENDMDL
MODEL 9
REMARK VINA RESULT:      -8.4      4.217      7.579
REMARK  Name = NuBBE_1062
REMARK  9 active torsions:
REMARK  status: ('A' for Active; 'I' for Inactive)
REMARK    1  A    between atoms: C_1  and  C_2
REMARK    2  A    between atoms: C_2  and  C_3
REMARK    3  A    between atoms: C_4  and  O_6
REMARK    4  A    between atoms: C_9  and  C_10
REMARK    5  A    between atoms: C_14  and  C_30
REMARK    6  A    between atoms: C_15  and  C_27
REMARK    7  A    between atoms: C_18  and  C_19
REMARK    8  A    between atoms: C_22  and  C_23
REMARK    9  A    between atoms: C_22  and  C_24
REMARK                            x       y       z     vdW  Elec       q    Type
REMARK                         _______ _______ _______ _____ _____    ______ ____
ROOT
ATOM      1  C   LIG A   1      -5.024  -5.530 132.596  0.00  0.00    +0.014 C 
ATOM      2  C   LIG A   1      -5.581  -4.178 133.137  0.00  0.00    -0.006 C 
ATOM      3  C   LIG A   1      -4.332  -3.337 133.455  0.00  0.00    +0.014 C 
ATOM      4  C   LIG A   1      -6.525  -4.539 134.315  0.00  0.00    +0.120 C 
ATOM      5  C   LIG A   1      -7.420  -3.388 134.763  0.00  0.00    +0.032 C 
ATOM      6  C   LIG A   1      -8.274  -2.764 133.569  0.00  0.00    +0.010 C 
ATOM      7  C   LIG A   1      -7.301  -2.179 132.456  0.00  0.00    -0.018 C 
ATOM      8  C   LIG A   1      -6.751  -1.029 133.357  0.00  0.00    +0.012 C 
ATOM      9  C   LIG A   1      -6.501  -3.499 132.100  0.00  0.00    +0.004 C 
ATOM     10  C   LIG A   1      -5.970  -3.521 130.702  0.00  0.00    +0.005 C 
ATOM     11  C   LIG A   1      -7.156  -3.264 129.797  0.00  0.00    +0.008 C 
ATOM     12  C   LIG A   1      -7.255  -1.732 129.337  0.00  0.00    -0.013 C 
ATOM     13  C   LIG A   1      -6.450  -0.333 129.124  0.00  0.00    -0.004 C 
ATOM     14  C   LIG A   1      -4.922  -0.454 129.538  0.00  0.00    +0.012 C 
ATOM     15  C   LIG A   1      -4.762  -0.103 131.036  0.00  0.00    +0.008 C 
ATOM     16  C   LIG A   1      -5.115   1.387 131.364  0.00  0.00    -0.025 C 
ATOM     17  C   LIG A   1      -6.004   1.713 132.596  0.00  0.00    +0.012 C 
ATOM     18  C   LIG A   1      -5.875   1.910 130.128  0.00  0.00    +0.022 C 
ATOM     19  C   LIG A   1      -6.021   3.419 130.117  0.00  0.00    +0.014 C 
ATOM     20  C   LIG A   1      -4.597   4.062 130.299  0.00  0.00    -0.034 C 
ATOM     21  C   LIG A   1      -4.775   5.577 130.321  0.00  0.00    +0.011 C 
ATOM     22  C   LIG A   1      -3.629   3.686 129.144  0.00  0.00    +0.011 C 
ATOM     23  C   LIG A   1      -3.934   3.610 131.620  0.00  0.00    +0.007 C 
ATOM     24  C   LIG A   1      -3.792   2.095 131.685  0.00  0.00    +0.008 C 
ATOM     25  C   LIG A   1      -6.690   0.232 127.631  0.00  0.00    +0.016 C 
ATOM     26  C   LIG A   1      -6.994   0.899 129.850  0.00  0.00    -0.056 C 
ATOM     27  C   LIG A   1      -8.288   0.988 130.201  0.00  0.00    +0.046 C 
ATOM     28  C   LIG A   1      -6.348  -2.426 128.090  0.00  0.00    +0.013 C 
ATOM     29  C   LIG A   1      -7.967  -1.534 130.972  0.00  0.00    +0.073 C 
ATOM     30  C   LIG A   1      -8.616  -0.144 131.136  0.00  0.00    +0.160 C 
ATOM     31  O   LIG A   1      -9.491   0.074 132.007  0.00  0.00    -0.292 OA
ENDROOT
BRANCH   4  32
ATOM     32  O   LIG A   1      -5.799  -5.057 135.421  0.00  0.00    -0.391 OA
ATOM     33  H   LIG A   1      -5.232  -5.768 135.072  0.00  0.00    +0.210 HD
ENDBRANCH   4  32
TORSDOF 1
ENDMDL
