MODEL 1
REMARK VINA RESULT:      -6.9      0.000      0.000
REMARK  Name = NuBBE_274
REMARK  12 active torsions:
REMARK  status: ('A' for Active; 'I' for Inactive)
REMARK    1  A    between atoms: O_1  and  C_2
REMARK    2  A    between atoms: C_5  and  C_10
REMARK    3  A    between atoms: C_7  and  O_8
REMARK    4  A    between atoms: O_8  and  C_9
REMARK    5  A    between atoms: C_11  and  C_12
REMARK    6  A    between atoms: C_12  and  O_13
REMARK    7  A    between atoms: O_13  and  C_14
REMARK    8  A    between atoms: C_17  and  C_28
REMARK    9  A    between atoms: C_19  and  O_27
REMARK   10  A    between atoms: C_21  and  O_26
REMARK   11  A    between atoms: C_23  and  O_25
REMARK   12  A    between atoms: C_28  and  O_29
REMARK                            x       y       z     vdW  Elec       q    Type
REMARK                         _______ _______ _______ _____ _____    ______ ____
ROOT
ATOM      1  O   LIG A   1      -7.707   1.255 124.530  0.00  0.00    -0.429 OA
ENDROOT
BRANCH   1   2
ATOM      2  C   LIG A   1      -8.324   0.283 125.374  0.00  0.00    +0.343 C 
ATOM      3  O   LIG A   1      -7.373  -0.156 126.346  0.00  0.00    -0.331 OA
ATOM      4  C   LIG A   1      -7.916  -1.119 127.245  0.00  0.00    +0.179 C 
ATOM      5  C   LIG A   1      -8.279  -2.400 126.478  0.00  0.00    +0.177 C 
ATOM      6  C   LIG A   1      -9.269  -2.052 125.364  0.00  0.00    +0.180 C 
ATOM      7  C   LIG A   1      -8.756  -0.907 124.490  0.00  0.00    +0.214 C 
BRANCH   7   8
ATOM      8  O   LIG A   1      -9.789  -0.536 123.563  0.00  0.00    -0.383 OA
ATOM      9  H   LIG A   1      -9.692   0.432 123.455  0.00  0.00    +0.210 HD
ENDBRANCH   7   8
BRANCH   6  10
ATOM     10  O   LIG A   1      -9.508  -3.205 124.538  0.00  0.00    -0.386 OA
ATOM     11  H   LIG A   1      -8.808  -3.842 124.790  0.00  0.00    +0.210 HD
ENDBRANCH   6  10
BRANCH   5  12
ATOM     12  O   LIG A   1      -8.889  -3.394 127.309  0.00  0.00    -0.387 OA
ATOM     13  H   LIG A   1      -8.330  -4.200 127.232  0.00  0.00    +0.210 HD
ENDBRANCH   5  12
BRANCH   4  14
ATOM     14  C   LIG A   1      -6.876  -1.376 128.337  0.00  0.00    +0.190 C 
BRANCH  14  15
ATOM     15  O   LIG A   1      -6.232  -2.627 128.120  0.00  0.00    -0.392 OA
ATOM     16  H   LIG A   1      -5.493  -2.458 127.507  0.00  0.00    +0.209 HD
ENDBRANCH  14  15
ENDBRANCH   4  14
ENDBRANCH   1   2
BRANCH   1  17
ATOM     17  C   LIG A   1      -8.174   2.515 124.674  0.00  0.00    +0.334 C 
ATOM     18  O   LIG A   1      -8.728   3.004 125.646  0.00  0.00    -0.245 OA
BRANCH  17  20
ATOM     19  C   LIG A   1      -6.786   3.031 122.707  0.00  0.00    +0.015 C 
ATOM     20  C   LIG A   1      -7.924   3.197 123.391  0.00  0.00    +0.092 C 
BRANCH  19  24
ATOM     21  C   LIG A   1      -5.980   5.192 119.096  0.00  0.00    +0.159 A 
ATOM     22  C   LIG A   1      -5.012   5.119 120.097  0.00  0.00    +0.050 A 
ATOM     23  C   LIG A   1      -5.266   4.408 121.268  0.00  0.00    +0.012 A 
ATOM     24  C   LIG A   1      -6.502   3.779 121.470  0.00  0.00    -0.021 A 
ATOM     25  C   LIG A   1      -7.456   3.836 120.446  0.00  0.00    +0.057 A 
ATOM     26  C   LIG A   1      -7.211   4.543 119.254  0.00  0.00    +0.162 A 
BRANCH  21  27
ATOM     27  O   LIG A   1      -5.680   5.909 117.972  0.00  0.00    -0.503 OA
ATOM     28  H   LIG A   1      -5.657   5.310 117.209  0.00  0.00    +0.292 HD
ENDBRANCH  21  27
BRANCH  26  29
ATOM     29  O   LIG A   1      -8.260   4.498 118.376  0.00  0.00    -0.491 OA
ATOM     30  C   LIG A   1      -9.571   4.385 118.914  0.00  0.00    +0.277 C 
ENDBRANCH  26  29
ENDBRANCH  19  24
ENDBRANCH  17  20
ENDBRANCH   1  17
TORSDOF 11
ENDMDL
MODEL 2
REMARK VINA RESULT:      -6.8      8.243     10.864
REMARK  Name = NuBBE_274
REMARK  12 active torsions:
REMARK  status: ('A' for Active; 'I' for Inactive)
REMARK    1  A    between atoms: O_1  and  C_2
REMARK    2  A    between atoms: C_5  and  C_10
REMARK    3  A    between atoms: C_7  and  O_8
REMARK    4  A    between atoms: O_8  and  C_9
REMARK    5  A    between atoms: C_11  and  C_12
REMARK    6  A    between atoms: C_12  and  O_13
REMARK    7  A    between atoms: O_13  and  C_14
REMARK    8  A    between atoms: C_17  and  C_28
REMARK    9  A    between atoms: C_19  and  O_27
REMARK   10  A    between atoms: C_21  and  O_26
REMARK   11  A    between atoms: C_23  and  O_25
REMARK   12  A    between atoms: C_28  and  O_29
REMARK                            x       y       z     vdW  Elec       q    Type
REMARK                         _______ _______ _______ _____ _____    ______ ____
ROOT
ATOM      1  O   LIG A   1      -8.417   6.199 131.225  0.00  0.00    -0.429 OA
ENDROOT
BRANCH   1   2
ATOM      2  C   LIG A   1      -9.673   6.050 130.560  0.00  0.00    +0.343 C 
ATOM      3  O   LIG A   1      -9.647   6.808 129.349  0.00  0.00    -0.331 OA
ATOM      4  C   LIG A   1     -10.861   6.699 128.612  0.00  0.00    +0.179 C 
ATOM      5  C   LIG A   1     -12.016   7.320 129.413  0.00  0.00    +0.177 C 
ATOM      6  C   LIG A   1     -12.117   6.617 130.769  0.00  0.00    +0.180 C 
ATOM      7  C   LIG A   1     -10.773   6.594 131.496  0.00  0.00    +0.214 C 
BRANCH   7   8
ATOM      8  O   LIG A   1     -10.905   5.798 132.684  0.00  0.00    -0.383 OA
ATOM      9  H   LIG A   1     -10.587   6.375 133.409  0.00  0.00    +0.210 HD
ENDBRANCH   7   8
BRANCH   6  10
ATOM     10  O   LIG A   1     -13.091   7.278 131.595  0.00  0.00    -0.386 OA
ATOM     11  H   LIG A   1     -13.383   8.050 131.068  0.00  0.00    +0.210 HD
ENDBRANCH   6  10
BRANCH   5  12
ATOM     12  O   LIG A   1     -13.282   7.192 128.758  0.00  0.00    -0.387 OA
ATOM     13  H   LIG A   1     -13.526   6.240 128.811  0.00  0.00    +0.210 HD
ENDBRANCH   5  12
BRANCH   4  14
ATOM     14  C   LIG A   1     -10.653   7.395 127.266  0.00  0.00    +0.190 C 
BRANCH  14  15
ATOM     15  O   LIG A   1     -11.395   6.732 126.246  0.00  0.00    -0.392 OA
ATOM     16  H   LIG A   1     -10.889   6.837 125.419  0.00  0.00    +0.209 HD
ENDBRANCH  14  15
ENDBRANCH   4  14
ENDBRANCH   1   2
BRANCH   1  17
ATOM     17  C   LIG A   1      -7.944   5.076 131.809  0.00  0.00    +0.334 C 
ATOM     18  O   LIG A   1      -8.568   4.079 132.137  0.00  0.00    -0.245 OA
BRANCH  17  20
ATOM     19  C   LIG A   1      -5.842   6.303 131.432  0.00  0.00    +0.015 C 
ATOM     20  C   LIG A   1      -6.502   5.299 132.022  0.00  0.00    +0.092 C 
BRANCH  19  24
ATOM     21  C   LIG A   1      -1.603   6.782 131.828  0.00  0.00    +0.159 A 
ATOM     22  C   LIG A   1      -2.419   6.821 132.958  0.00  0.00    +0.050 A 
ATOM     23  C   LIG A   1      -3.796   6.655 132.834  0.00  0.00    +0.012 A 
ATOM     24  C   LIG A   1      -4.386   6.472 131.577  0.00  0.00    -0.021 A 
ATOM     25  C   LIG A   1      -3.554   6.406 130.452  0.00  0.00    +0.057 A 
ATOM     26  C   LIG A   1      -2.160   6.564 130.562  0.00  0.00    +0.162 A 
BRANCH  21  27
ATOM     27  O   LIG A   1      -0.260   6.958 132.006  0.00  0.00    -0.503 OA
ATOM     28  H   LIG A   1       0.144   6.109 132.247  0.00  0.00    +0.292 HD
ENDBRANCH  21  27
BRANCH  26  29
ATOM     29  O   LIG A   1      -1.513   6.481 129.358  0.00  0.00    -0.491 OA
ATOM     30  C   LIG A   1      -2.264   6.751 128.181  0.00  0.00    +0.277 C 
ENDBRANCH  26  29
ENDBRANCH  19  24
ENDBRANCH  17  20
ENDBRANCH   1  17
TORSDOF 11
ENDMDL
MODEL 3
REMARK VINA RESULT:      -6.7      7.382      9.491
REMARK  Name = NuBBE_274
REMARK  12 active torsions:
REMARK  status: ('A' for Active; 'I' for Inactive)
REMARK    1  A    between atoms: O_1  and  C_2
REMARK    2  A    between atoms: C_5  and  C_10
REMARK    3  A    between atoms: C_7  and  O_8
REMARK    4  A    between atoms: O_8  and  C_9
REMARK    5  A    between atoms: C_11  and  C_12
REMARK    6  A    between atoms: C_12  and  O_13
REMARK    7  A    between atoms: O_13  and  C_14
REMARK    8  A    between atoms: C_17  and  C_28
REMARK    9  A    between atoms: C_19  and  O_27
REMARK   10  A    between atoms: C_21  and  O_26
REMARK   11  A    between atoms: C_23  and  O_25
REMARK   12  A    between atoms: C_28  and  O_29
REMARK                            x       y       z     vdW  Elec       q    Type
REMARK                         _______ _______ _______ _____ _____    ______ ____
ROOT
ATOM      1  O   LIG A   1      -8.384   6.285 131.038  0.00  0.00    -0.429 OA
ENDROOT
BRANCH   1   2
ATOM      2  C   LIG A   1      -9.667   6.127 130.430  0.00  0.00    +0.343 C 
ATOM      3  O   LIG A   1      -9.723   6.932 129.251  0.00  0.00    -0.331 OA
ATOM      4  C   LIG A   1     -10.969   6.817 128.570  0.00  0.00    +0.179 C 
ATOM      5  C   LIG A   1     -12.097   7.375 129.452  0.00  0.00    +0.177 C 
ATOM      6  C   LIG A   1     -12.112   6.617 130.782  0.00  0.00    +0.180 C 
ATOM      7  C   LIG A   1     -10.732   6.604 131.440  0.00  0.00    +0.214 C 
BRANCH   7   8
ATOM      8  O   LIG A   1     -10.784   5.759 132.601  0.00  0.00    -0.383 OA
ATOM      9  H   LIG A   1      -9.974   5.977 133.105  0.00  0.00    +0.210 HD
ENDBRANCH   7   8
BRANCH   6  10
ATOM     10  O   LIG A   1     -13.059   7.219 131.682  0.00  0.00    -0.386 OA
ATOM     11  H   LIG A   1     -13.936   6.947 131.339  0.00  0.00    +0.210 HD
ENDBRANCH   6  10
BRANCH   5  12
ATOM     12  O   LIG A   1     -13.392   7.237 128.856  0.00  0.00    -0.387 OA
ATOM     13  H   LIG A   1     -13.677   6.310 129.025  0.00  0.00    +0.210 HD
ENDBRANCH   5  12
BRANCH   4  14
ATOM     14  C   LIG A   1     -10.847   7.571 127.245  0.00  0.00    +0.190 C 
BRANCH  14  15
ATOM     15  O   LIG A   1     -11.323   6.763 126.172  0.00  0.00    -0.392 OA
ATOM     16  H   LIG A   1     -10.675   6.850 125.448  0.00  0.00    +0.209 HD
ENDBRANCH  14  15
ENDBRANCH   4  14
ENDBRANCH   1   2
BRANCH   1  17
ATOM     17  C   LIG A   1      -7.755   5.130 131.351  0.00  0.00    +0.334 C 
ATOM     18  O   LIG A   1      -8.082   4.299 132.184  0.00  0.00    -0.245 OA
BRANCH  17  20
ATOM     19  C   LIG A   1      -6.343   4.108 129.613  0.00  0.00    +0.015 C 
ATOM     20  C   LIG A   1      -6.545   5.079 130.511  0.00  0.00    +0.092 C 
BRANCH  19  24
ATOM     21  C   LIG A   1      -2.712   3.850 127.352  0.00  0.00    +0.159 A 
ATOM     22  C   LIG A   1      -3.581   2.761 127.404  0.00  0.00    +0.050 A 
ATOM     23  C   LIG A   1      -4.768   2.845 128.129  0.00  0.00    +0.012 A 
ATOM     24  C   LIG A   1      -5.095   4.009 128.836  0.00  0.00    -0.021 A 
ATOM     25  C   LIG A   1      -4.229   5.107 128.753  0.00  0.00    +0.057 A 
ATOM     26  C   LIG A   1      -3.030   5.041 128.019  0.00  0.00    +0.162 A 
BRANCH  21  27
ATOM     27  O   LIG A   1      -1.559   3.711 126.632  0.00  0.00    -0.503 OA
ATOM     28  H   LIG A   1      -1.176   2.837 126.810  0.00  0.00    +0.292 HD
ENDBRANCH  21  27
BRANCH  26  29
ATOM     29  O   LIG A   1      -2.307   6.203 128.062  0.00  0.00    -0.491 OA
ATOM     30  C   LIG A   1      -2.964   7.376 128.525  0.00  0.00    +0.277 C 
ENDBRANCH  26  29
ENDBRANCH  19  24
ENDBRANCH  17  20
ENDBRANCH   1  17
TORSDOF 11
ENDMDL
MODEL 4
REMARK VINA RESULT:      -6.6      6.507      9.253
REMARK  Name = NuBBE_274
REMARK  12 active torsions:
REMARK  status: ('A' for Active; 'I' for Inactive)
REMARK    1  A    between atoms: O_1  and  C_2
REMARK    2  A    between atoms: C_5  and  C_10
REMARK    3  A    between atoms: C_7  and  O_8
REMARK    4  A    between atoms: O_8  and  C_9
REMARK    5  A    between atoms: C_11  and  C_12
REMARK    6  A    between atoms: C_12  and  O_13
REMARK    7  A    between atoms: O_13  and  C_14
REMARK    8  A    between atoms: C_17  and  C_28
REMARK    9  A    between atoms: C_19  and  O_27
REMARK   10  A    between atoms: C_21  and  O_26
REMARK   11  A    between atoms: C_23  and  O_25
REMARK   12  A    between atoms: C_28  and  O_29
REMARK                            x       y       z     vdW  Elec       q    Type
REMARK                         _______ _______ _______ _____ _____    ______ ____
ROOT
ATOM      1  O   LIG A   1      -8.401   6.295 131.125  0.00  0.00    -0.429 OA
ENDROOT
BRANCH   1   2
ATOM      2  C   LIG A   1      -9.662   6.114 130.478  0.00  0.00    +0.343 C 
ATOM      3  O   LIG A   1      -9.680   6.886 129.276  0.00  0.00    -0.331 OA
ATOM      4  C   LIG A   1     -10.902   6.747 128.556  0.00  0.00    +0.179 C 
ATOM      5  C   LIG A   1     -12.062   7.322 129.383  0.00  0.00    +0.177 C 
ATOM      6  C   LIG A   1     -12.119   6.601 130.732  0.00  0.00    +0.180 C 
ATOM      7  C   LIG A   1     -10.763   6.613 131.437  0.00  0.00    +0.214 C 
BRANCH   7   8
ATOM      8  O   LIG A   1     -10.851   5.800 132.618  0.00  0.00    -0.383 OA
ATOM      9  H   LIG A   1     -10.559   4.910 132.332  0.00  0.00    +0.210 HD
ENDBRANCH   7   8
BRANCH   6  10
ATOM     10  O   LIG A   1     -13.099   7.223 131.582  0.00  0.00    -0.386 OA
ATOM     11  H   LIG A   1     -13.921   6.711 131.430  0.00  0.00    +0.210 HD
ENDBRANCH   6  10
BRANCH   5  12
ATOM     12  O   LIG A   1     -13.334   7.162 128.747  0.00  0.00    -0.387 OA
ATOM     13  H   LIG A   1     -13.621   6.238 128.932  0.00  0.00    +0.210 HD
ENDBRANCH   5  12
BRANCH   4  14
ATOM     14  C   LIG A   1     -10.737   7.464 127.215  0.00  0.00    +0.190 C 
BRANCH  14  15
ATOM     15  O   LIG A   1     -11.513   6.818 126.211  0.00  0.00    -0.392 OA
ATOM     16  H   LIG A   1     -12.417   6.733 126.567  0.00  0.00    +0.209 HD
ENDBRANCH  14  15
ENDBRANCH   4  14
ENDBRANCH   1   2
BRANCH   1  17
ATOM     17  C   LIG A   1      -7.807   5.157 131.545  0.00  0.00    +0.334 C 
ATOM     18  O   LIG A   1      -8.194   4.380 132.403  0.00  0.00    -0.245 OA
BRANCH  17  20
ATOM     19  C   LIG A   1      -6.505   4.550 129.544  0.00  0.00    +0.015 C 
ATOM     20  C   LIG A   1      -6.547   5.046 130.787  0.00  0.00    +0.092 C 
BRANCH  19  24
ATOM     21  C   LIG A   1      -2.822   3.965 127.437  0.00  0.00    +0.159 A 
ATOM     22  C   LIG A   1      -2.924   4.971 128.397  0.00  0.00    +0.050 A 
ATOM     23  C   LIG A   1      -4.117   5.157 129.092  0.00  0.00    +0.012 A 
ATOM     24  C   LIG A   1      -5.236   4.359 128.822  0.00  0.00    -0.021 A 
ATOM     25  C   LIG A   1      -5.112   3.333 127.875  0.00  0.00    +0.057 A 
ATOM     26  C   LIG A   1      -3.912   3.127 127.171  0.00  0.00    +0.162 A 
BRANCH  21  27
ATOM     27  O   LIG A   1      -1.630   3.832 126.780  0.00  0.00    -0.503 OA
ATOM     28  H   LIG A   1      -1.294   4.712 126.549  0.00  0.00    +0.292 HD
ENDBRANCH  21  27
BRANCH  26  29
ATOM     29  O   LIG A   1      -3.981   2.090 126.280  0.00  0.00    -0.491 OA
ATOM     30  C   LIG A   1      -5.081   1.195 126.388  0.00  0.00    +0.277 C 
ENDBRANCH  26  29
ENDBRANCH  19  24
ENDBRANCH  17  20
ENDBRANCH   1  17
TORSDOF 11
ENDMDL
MODEL 5
REMARK VINA RESULT:      -6.6      4.982      8.619
REMARK  Name = NuBBE_274
REMARK  12 active torsions:
REMARK  status: ('A' for Active; 'I' for Inactive)
REMARK    1  A    between atoms: O_1  and  C_2
REMARK    2  A    between atoms: C_5  and  C_10
REMARK    3  A    between atoms: C_7  and  O_8
REMARK    4  A    between atoms: O_8  and  C_9
REMARK    5  A    between atoms: C_11  and  C_12
REMARK    6  A    between atoms: C_12  and  O_13
REMARK    7  A    between atoms: O_13  and  C_14
REMARK    8  A    between atoms: C_17  and  C_28
REMARK    9  A    between atoms: C_19  and  O_27
REMARK   10  A    between atoms: C_21  and  O_26
REMARK   11  A    between atoms: C_23  and  O_25
REMARK   12  A    between atoms: C_28  and  O_29
REMARK                            x       y       z     vdW  Elec       q    Type
REMARK                         _______ _______ _______ _____ _____    ______ ____
ROOT
ATOM      1  O   LIG A   1      -8.041   4.715 130.013  0.00  0.00    -0.429 OA
ENDROOT
BRANCH   1   2
ATOM      2  C   LIG A   1      -9.391   5.064 129.702  0.00  0.00    +0.343 C 
ATOM      3  O   LIG A   1      -9.394   6.282 128.956  0.00  0.00    -0.331 OA
ATOM      4  C   LIG A   1     -10.707   6.693 128.587  0.00  0.00    +0.179 C 
ATOM      5  C   LIG A   1     -11.521   7.028 129.847  0.00  0.00    +0.177 C 
ATOM      6  C   LIG A   1     -11.553   5.801 130.761  0.00  0.00    +0.180 C 
ATOM      7  C   LIG A   1     -10.148   5.262 131.032  0.00  0.00    +0.214 C 
BRANCH   7   8
ATOM      8  O   LIG A   1     -10.261   4.035 131.771  0.00  0.00    -0.383 OA
ATOM      9  H   LIG A   1      -9.413   3.955 132.254  0.00  0.00    +0.210 HD
ENDBRANCH   7   8
BRANCH   6  10
ATOM     10  O   LIG A   1     -12.180   6.135 132.012  0.00  0.00    -0.386 OA
ATOM     11  H   LIG A   1     -12.319   7.104 131.971  0.00  0.00    +0.210 HD
ENDBRANCH   6  10
BRANCH   5  12
ATOM     12  O   LIG A   1     -12.875   7.391 129.556  0.00  0.00    -0.387 OA
ATOM     13  H   LIG A   1     -13.436   6.649 129.878  0.00  0.00    +0.210 HD
ENDBRANCH   5  12
BRANCH   4  14
ATOM     14  C   LIG A   1     -10.574   7.895 127.650  0.00  0.00    +0.190 C 
BRANCH  14  15
ATOM     15  O   LIG A   1     -11.080   9.069 128.278  0.00  0.00    -0.392 OA
ATOM     16  H   LIG A   1     -10.696   9.828 127.802  0.00  0.00    +0.209 HD
ENDBRANCH  14  15
ENDBRANCH   4  14
ENDBRANCH   1   2
BRANCH   1  17
ATOM     17  C   LIG A   1      -7.280   4.372 128.950  0.00  0.00    +0.334 C 
ATOM     18  O   LIG A   1      -6.281   4.933 128.529  0.00  0.00    -0.245 OA
BRANCH  17  20
ATOM     19  C   LIG A   1      -7.212   2.175 127.841  0.00  0.00    +0.015 C 
ATOM     20  C   LIG A   1      -7.922   3.189 128.350  0.00  0.00    +0.092 C 
BRANCH  19  24
ATOM     21  C   LIG A   1      -9.098  -1.125 125.864  0.00  0.00    +0.159 A 
ATOM     22  C   LIG A   1      -8.101  -1.356 126.811  0.00  0.00    +0.050 A 
ATOM     23  C   LIG A   1      -7.493  -0.286 127.463  0.00  0.00    +0.012 A 
ATOM     24  C   LIG A   1      -7.852   1.035 127.163  0.00  0.00    -0.021 A 
ATOM     25  C   LIG A   1      -8.875   1.253 126.231  0.00  0.00    +0.057 A 
ATOM     26  C   LIG A   1      -9.504   0.183 125.569  0.00  0.00    +0.162 A 
BRANCH  21  27
ATOM     27  O   LIG A   1      -9.655  -2.210 125.248  0.00  0.00    -0.503 OA
ATOM     28  H   LIG A   1      -9.068  -2.510 124.536  0.00  0.00    +0.292 HD
ENDBRANCH  21  27
BRANCH  26  29
ATOM     29  O   LIG A   1     -10.469   0.589 124.686  0.00  0.00    -0.491 OA
ATOM     30  C   LIG A   1     -10.048   1.255 123.503  0.00  0.00    +0.277 C 
ENDBRANCH  26  29
ENDBRANCH  19  24
ENDBRANCH  17  20
ENDBRANCH   1  17
TORSDOF 11
ENDMDL
MODEL 6
REMARK VINA RESULT:      -6.6      9.141     11.828
REMARK  Name = NuBBE_274
REMARK  12 active torsions:
REMARK  status: ('A' for Active; 'I' for Inactive)
REMARK    1  A    between atoms: O_1  and  C_2
REMARK    2  A    between atoms: C_5  and  C_10
REMARK    3  A    between atoms: C_7  and  O_8
REMARK    4  A    between atoms: O_8  and  C_9
REMARK    5  A    between atoms: C_11  and  C_12
REMARK    6  A    between atoms: C_12  and  O_13
REMARK    7  A    between atoms: O_13  and  C_14
REMARK    8  A    between atoms: C_17  and  C_28
REMARK    9  A    between atoms: C_19  and  O_27
REMARK   10  A    between atoms: C_21  and  O_26
REMARK   11  A    between atoms: C_23  and  O_25
REMARK   12  A    between atoms: C_28  and  O_29
REMARK                            x       y       z     vdW  Elec       q    Type
REMARK                         _______ _______ _______ _____ _____    ______ ____
ROOT
ATOM      1  O   LIG A   1      -7.659   6.527 131.242  0.00  0.00    -0.429 OA
ENDROOT
BRANCH   1   2
ATOM      2  C   LIG A   1      -8.931   6.324 130.626  0.00  0.00    +0.343 C 
ATOM      3  O   LIG A   1      -9.213   7.432 129.769  0.00  0.00    -0.331 OA
ATOM      4  C   LIG A   1     -10.463   7.299 129.099  0.00  0.00    +0.179 C 
ATOM      5  C   LIG A   1     -11.608   7.323 130.122  0.00  0.00    +0.177 C 
ATOM      6  C   LIG A   1     -11.394   6.197 131.137  0.00  0.00    +0.180 C 
ATOM      7  C   LIG A   1      -9.992   6.244 131.745  0.00  0.00    +0.214 C 
BRANCH   7   8
ATOM      8  O   LIG A   1      -9.810   5.084 132.572  0.00  0.00    -0.383 OA
ATOM      9  H   LIG A   1     -10.701   4.684 132.641  0.00  0.00    +0.210 HD
ENDBRANCH   7   8
BRANCH   6  10
ATOM     10  O   LIG A   1     -12.369   6.291 132.191  0.00  0.00    -0.386 OA
ATOM     11  H   LIG A   1     -12.745   7.191 132.103  0.00  0.00    +0.210 HD
ENDBRANCH   6  10
BRANCH   5  12
ATOM     12  O   LIG A   1     -12.895   7.132 129.525  0.00  0.00    -0.387 OA
ATOM     13  H   LIG A   1     -12.875   7.612 128.665  0.00  0.00    +0.210 HD
ENDBRANCH   5  12
BRANCH   4  14
ATOM     14  C   LIG A   1     -10.571   8.440 128.086  0.00  0.00    +0.190 C 
BRANCH  14  15
ATOM     15  O   LIG A   1     -11.690   9.267 128.392  0.00  0.00    -0.392 OA
ATOM     16  H   LIG A   1     -11.812   9.865 127.631  0.00  0.00    +0.209 HD
ENDBRANCH  14  15
ENDBRANCH   4  14
ENDBRANCH   1   2
BRANCH   1  17
ATOM     17  C   LIG A   1      -6.612   5.985 130.581  0.00  0.00    +0.334 C 
ATOM     18  O   LIG A   1      -6.634   5.311 129.563  0.00  0.00    -0.245 OA
BRANCH  17  20
ATOM     19  C   LIG A   1      -4.312   6.841 130.787  0.00  0.00    +0.015 C 
ATOM     20  C   LIG A   1      -5.409   6.330 131.360  0.00  0.00    +0.092 C 
BRANCH  19  24
ATOM     21  C   LIG A   1      -0.738   7.633 133.013  0.00  0.00    +0.159 A 
ATOM     22  C   LIG A   1      -0.861   6.448 132.288  0.00  0.00    +0.050 A 
ATOM     23  C   LIG A   1      -2.017   6.192 131.555  0.00  0.00    +0.012 A 
ATOM     24  C   LIG A   1      -3.081   7.103 131.553  0.00  0.00    -0.021 A 
ATOM     25  C   LIG A   1      -2.935   8.302 132.262  0.00  0.00    +0.057 A 
ATOM     26  C   LIG A   1      -1.770   8.579 133.001  0.00  0.00    +0.162 A 
BRANCH  21  27
ATOM     27  O   LIG A   1       0.414   7.829 133.721  0.00  0.00    -0.503 OA
ATOM     28  H   LIG A   1       0.548   8.781 133.856  0.00  0.00    +0.292 HD
ENDBRANCH  21  27
BRANCH  26  29
ATOM     29  O   LIG A   1      -1.812   9.791 133.637  0.00  0.00    -0.491 OA
ATOM     30  C   LIG A   1      -1.266  10.915 132.960  0.00  0.00    +0.277 C 
ENDBRANCH  26  29
ENDBRANCH  19  24
ENDBRANCH  17  20
ENDBRANCH   1  17
TORSDOF 11
ENDMDL
MODEL 7
REMARK VINA RESULT:      -6.5      7.468      9.802
REMARK  Name = NuBBE_274
REMARK  12 active torsions:
REMARK  status: ('A' for Active; 'I' for Inactive)
REMARK    1  A    between atoms: O_1  and  C_2
REMARK    2  A    between atoms: C_5  and  C_10
REMARK    3  A    between atoms: C_7  and  O_8
REMARK    4  A    between atoms: O_8  and  C_9
REMARK    5  A    between atoms: C_11  and  C_12
REMARK    6  A    between atoms: C_12  and  O_13
REMARK    7  A    between atoms: O_13  and  C_14
REMARK    8  A    between atoms: C_17  and  C_28
REMARK    9  A    between atoms: C_19  and  O_27
REMARK   10  A    between atoms: C_21  and  O_26
REMARK   11  A    between atoms: C_23  and  O_25
REMARK   12  A    between atoms: C_28  and  O_29
REMARK                            x       y       z     vdW  Elec       q    Type
REMARK                         _______ _______ _______ _____ _____    ______ ____
ROOT
ATOM      1  O   LIG A   1      -6.050   4.630 131.081  0.00  0.00    -0.429 OA
ENDROOT
BRANCH   1   2
ATOM      2  C   LIG A   1      -4.781   4.509 130.437  0.00  0.00    +0.343 C 
ATOM      3  O   LIG A   1      -4.573   5.651 129.605  0.00  0.00    -0.331 OA
ATOM      4  C   LIG A   1      -3.316   5.618 128.936  0.00  0.00    +0.179 C 
ATOM      5  C   LIG A   1      -3.278   4.435 127.956  0.00  0.00    +0.177 C 
ATOM      6  C   LIG A   1      -3.538   3.139 128.728  0.00  0.00    +0.180 C 
ATOM      7  C   LIG A   1      -4.809   3.230 129.573  0.00  0.00    +0.214 C 
BRANCH   7   8
ATOM      8  O   LIG A   1      -4.912   2.044 130.377  0.00  0.00    -0.383 OA
ATOM      9  H   LIG A   1      -4.520   1.334 129.827  0.00  0.00    +0.210 HD
ENDBRANCH   7   8
BRANCH   6  10
ATOM     10  O   LIG A   1      -3.657   2.036 127.813  0.00  0.00    -0.386 OA
ATOM     11  H   LIG A   1      -3.429   1.245 128.345  0.00  0.00    +0.210 HD
ENDBRANCH   6  10
BRANCH   5  12
ATOM     12  O   LIG A   1      -2.018   4.302 127.290  0.00  0.00    -0.387 OA
ATOM     13  H   LIG A   1      -1.722   5.215 127.072  0.00  0.00    +0.210 HD
ENDBRANCH   5  12
BRANCH   4  14
ATOM     14  C   LIG A   1      -3.129   6.961 128.227  0.00  0.00    +0.190 C 
BRANCH  14  15
ATOM     15  O   LIG A   1      -4.054   7.919 128.734  0.00  0.00    -0.392 OA
ATOM     16  H   LIG A   1      -4.118   8.626 128.065  0.00  0.00    +0.209 HD
ENDBRANCH  14  15
ENDBRANCH   4  14
ENDBRANCH   1   2
BRANCH   1  17
ATOM     17  C   LIG A   1      -6.226   5.771 131.784  0.00  0.00    +0.334 C 
ATOM     18  O   LIG A   1      -5.558   6.190 132.716  0.00  0.00    -0.245 OA
BRANCH  17  20
ATOM     19  C   LIG A   1      -8.665   6.081 131.636  0.00  0.00    +0.015 C 
ATOM     20  C   LIG A   1      -7.433   6.413 131.231  0.00  0.00    +0.092 C 
BRANCH  19  24
ATOM     21  C   LIG A   1     -12.159   7.783 129.834  0.00  0.00    +0.159 A 
ATOM     22  C   LIG A   1     -12.261   7.098 131.044  0.00  0.00    +0.050 A 
ATOM     23  C   LIG A   1     -11.125   6.553 131.639  0.00  0.00    +0.012 A 
ATOM     24  C   LIG A   1      -9.872   6.659 131.022  0.00  0.00    -0.021 A 
ATOM     25  C   LIG A   1      -9.777   7.374 129.821  0.00  0.00    +0.057 A 
ATOM     26  C   LIG A   1     -10.914   7.937 129.212  0.00  0.00    +0.162 A 
BRANCH  21  27
ATOM     27  O   LIG A   1     -13.306   8.291 129.292  0.00  0.00    -0.503 OA
ATOM     28  H   LIG A   1     -13.734   7.607 128.753  0.00  0.00    +0.292 HD
ENDBRANCH  21  27
BRANCH  26  29
ATOM     29  O   LIG A   1     -10.630   8.587 128.040  0.00  0.00    -0.491 OA
ATOM     30  C   LIG A   1     -10.881   7.897 126.822  0.00  0.00    +0.277 C 
ENDBRANCH  26  29
ENDBRANCH  19  24
ENDBRANCH  17  20
ENDBRANCH   1  17
TORSDOF 11
ENDMDL
MODEL 8
REMARK VINA RESULT:      -6.4      4.994      8.338
REMARK  Name = NuBBE_274
REMARK  12 active torsions:
REMARK  status: ('A' for Active; 'I' for Inactive)
REMARK    1  A    between atoms: O_1  and  C_2
REMARK    2  A    between atoms: C_5  and  C_10
REMARK    3  A    between atoms: C_7  and  O_8
REMARK    4  A    between atoms: O_8  and  C_9
REMARK    5  A    between atoms: C_11  and  C_12
REMARK    6  A    between atoms: C_12  and  O_13
REMARK    7  A    between atoms: O_13  and  C_14
REMARK    8  A    between atoms: C_17  and  C_28
REMARK    9  A    between atoms: C_19  and  O_27
REMARK   10  A    between atoms: C_21  and  O_26
REMARK   11  A    between atoms: C_23  and  O_25
REMARK   12  A    between atoms: C_28  and  O_29
REMARK                            x       y       z     vdW  Elec       q    Type
REMARK                         _______ _______ _______ _____ _____    ______ ____
ROOT
ATOM      1  O   LIG A   1      -8.803   3.451 128.733  0.00  0.00    -0.429 OA
ENDROOT
BRANCH   1   2
ATOM      2  C   LIG A   1      -8.714   4.382 129.813  0.00  0.00    +0.343 C 
ATOM      3  O   LIG A   1      -8.903   3.682 131.044  0.00  0.00    -0.331 OA
ATOM      4  C   LIG A   1      -8.810   4.539 132.178  0.00  0.00    +0.179 C 
ATOM      5  C   LIG A   1      -9.957   5.560 132.154  0.00  0.00    +0.177 C 
ATOM      6  C   LIG A   1      -9.893   6.353 130.846  0.00  0.00    +0.180 C 
ATOM      7  C   LIG A   1      -9.833   5.429 129.629  0.00  0.00    +0.214 C 
BRANCH   7   8
ATOM      8  O   LIG A   1      -9.628   6.230 128.454  0.00  0.00    -0.383 OA
ATOM      9  H   LIG A   1     -10.116   7.061 128.629  0.00  0.00    +0.210 HD
ENDBRANCH   7   8
BRANCH   6  10
ATOM     10  O   LIG A   1     -11.042   7.210 130.732  0.00  0.00    -0.386 OA
ATOM     11  H   LIG A   1     -10.801   7.860 130.040  0.00  0.00    +0.210 HD
ENDBRANCH   6  10
BRANCH   5  12
ATOM     12  O   LIG A   1      -9.894   6.497 133.236  0.00  0.00    -0.387 OA
ATOM     13  H   LIG A   1     -10.742   6.996 133.219  0.00  0.00    +0.210 HD
ENDBRANCH   5  12
BRANCH   4  14
ATOM     14  C   LIG A   1      -8.847   3.660 133.430  0.00  0.00    +0.190 C 
BRANCH  14  15
ATOM     15  O   LIG A   1     -10.081   3.834 134.120  0.00  0.00    -0.392 OA
ATOM     16  H   LIG A   1     -10.382   4.742 133.928  0.00  0.00    +0.209 HD
ENDBRANCH  14  15
ENDBRANCH   4  14
ENDBRANCH   1   2
BRANCH   1  17
ATOM     17  C   LIG A   1      -7.801   3.528 127.829  0.00  0.00    +0.334 C 
ATOM     18  O   LIG A   1      -7.088   4.486 127.578  0.00  0.00    -0.245 OA
BRANCH  17  20
ATOM     19  C   LIG A   1      -8.480   1.175 127.573  0.00  0.00    +0.015 C 
ATOM     20  C   LIG A   1      -7.755   2.219 127.153  0.00  0.00    +0.092 C 
BRANCH  19  24
ATOM     21  C   LIG A   1      -8.177  -2.689 125.747  0.00  0.00    +0.159 A 
ATOM     22  C   LIG A   1      -7.579  -2.453 126.984  0.00  0.00    +0.050 A 
ATOM     23  C   LIG A   1      -7.684  -1.201 127.586  0.00  0.00    +0.012 A 
ATOM     24  C   LIG A   1      -8.368  -0.155 126.951  0.00  0.00    -0.021 A 
ATOM     25  C   LIG A   1      -8.989  -0.413 125.722  0.00  0.00    +0.057 A 
ATOM     26  C   LIG A   1      -8.898  -1.674 125.105  0.00  0.00    +0.162 A 
BRANCH  21  27
ATOM     27  O   LIG A   1      -8.036  -3.933 125.199  0.00  0.00    -0.503 OA
ATOM     28  H   LIG A   1      -7.294  -3.923 124.573  0.00  0.00    +0.292 HD
ENDBRANCH  21  27
BRANCH  26  29
ATOM     29  O   LIG A   1      -9.556  -1.735 123.906  0.00  0.00    -0.491 OA
ATOM     30  C   LIG A   1      -8.793  -1.552 122.720  0.00  0.00    +0.277 C 
ENDBRANCH  26  29
ENDBRANCH  19  24
ENDBRANCH  17  20
ENDBRANCH   1  17
TORSDOF 11
ENDMDL
MODEL 9
REMARK VINA RESULT:      -6.4      5.882      8.804
REMARK  Name = NuBBE_274
REMARK  12 active torsions:
REMARK  status: ('A' for Active; 'I' for Inactive)
REMARK    1  A    between atoms: O_1  and  C_2
REMARK    2  A    between atoms: C_5  and  C_10
REMARK    3  A    between atoms: C_7  and  O_8
REMARK    4  A    between atoms: O_8  and  C_9
REMARK    5  A    between atoms: C_11  and  C_12
REMARK    6  A    between atoms: C_12  and  O_13
REMARK    7  A    between atoms: O_13  and  C_14
REMARK    8  A    between atoms: C_17  and  C_28
REMARK    9  A    between atoms: C_19  and  O_27
REMARK   10  A    between atoms: C_21  and  O_26
REMARK   11  A    between atoms: C_23  and  O_25
REMARK   12  A    between atoms: C_28  and  O_29
REMARK                            x       y       z     vdW  Elec       q    Type
REMARK                         _______ _______ _______ _____ _____    ______ ____
ROOT
ATOM      1  O   LIG A   1      -9.118   2.580 129.286  0.00  0.00    -0.429 OA
ENDROOT
BRANCH   1   2
ATOM      2  C   LIG A   1      -7.914   3.057 128.683  0.00  0.00    +0.343 C 
ATOM      3  O   LIG A   1      -8.220   3.580 127.390  0.00  0.00    -0.331 OA
ATOM      4  C   LIG A   1      -7.070   4.096 126.724  0.00  0.00    +0.179 C 
ATOM      5  C   LIG A   1      -6.079   2.957 126.438  0.00  0.00    +0.177 C 
ATOM      6  C   LIG A   1      -5.706   2.277 127.757  0.00  0.00    +0.180 C 
ATOM      7  C   LIG A   1      -6.946   1.862 128.550  0.00  0.00    +0.214 C 
BRANCH   7   8
ATOM      8  O   LIG A   1      -6.528   1.367 129.832  0.00  0.00    -0.383 OA
ATOM      9  H   LIG A   1      -7.281   0.825 130.148  0.00  0.00    +0.210 HD
ENDBRANCH   7   8
BRANCH   6  10
ATOM     10  O   LIG A   1      -4.898   1.114 127.502  0.00  0.00    -0.386 OA
ATOM     11  H   LIG A   1      -4.313   1.375 126.760  0.00  0.00    +0.210 HD
ENDBRANCH   6  10
BRANCH   5  12
ATOM     12  O   LIG A   1      -4.869   3.411 125.823  0.00  0.00    -0.387 OA
ATOM     13  H   LIG A   1      -4.131   3.001 126.329  0.00  0.00    +0.210 HD
ENDBRANCH   5  12
BRANCH   4  14
ATOM     14  C   LIG A   1      -7.543   4.784 125.443  0.00  0.00    +0.190 C 
BRANCH  14  15
ATOM     15  O   LIG A   1      -6.622   5.801 125.060  0.00  0.00    -0.392 OA
ATOM     16  H   LIG A   1      -6.081   5.430 124.338  0.00  0.00    +0.209 HD
ENDBRANCH  14  15
ENDBRANCH   4  14
ENDBRANCH   1   2
BRANCH   1  17
ATOM     17  C   LIG A   1      -9.289   2.935 130.579  0.00  0.00    +0.334 C 
ATOM     18  O   LIG A   1      -9.088   2.259 131.576  0.00  0.00    -0.245 OA
BRANCH  17  20
ATOM     19  C   LIG A   1     -11.103   4.576 130.299  0.00  0.00    +0.015 C 
ATOM     20  C   LIG A   1      -9.818   4.311 130.562  0.00  0.00    +0.092 C 
BRANCH  19  24
ATOM     21  C   LIG A   1     -12.561   8.592 129.979  0.00  0.00    +0.159 A 
ATOM     22  C   LIG A   1     -12.741   7.876 131.162  0.00  0.00    +0.050 A 
ATOM     23  C   LIG A   1     -12.258   6.574 131.273  0.00  0.00    +0.012 A 
ATOM     24  C   LIG A   1     -11.611   5.955 130.196  0.00  0.00    -0.021 A 
ATOM     25  C   LIG A   1     -11.411   6.694 129.023  0.00  0.00    +0.057 A 
ATOM     26  C   LIG A   1     -11.885   8.013 128.898  0.00  0.00    +0.162 A 
BRANCH  21  27
ATOM     27  O   LIG A   1     -13.061   9.863 129.922  0.00  0.00    -0.503 OA
ATOM     28  H   LIG A   1     -13.533   9.982 129.083  0.00  0.00    +0.292 HD
ENDBRANCH  21  27
BRANCH  26  29
ATOM     29  O   LIG A   1     -11.609   8.571 127.679  0.00  0.00    -0.491 OA
ATOM     30  C   LIG A   1     -10.979   7.752 126.702  0.00  0.00    +0.277 C 
ENDBRANCH  26  29
ENDBRANCH  19  24
ENDBRANCH  17  20
ENDBRANCH   1  17
TORSDOF 11
ENDMDL
