MODEL 1
REMARK VINA RESULT:      -7.8      0.000      0.000
REMARK  Name = NuBBE_52
REMARK  18 active torsions:
REMARK  status: ('A' for Active; 'I' for Inactive)
REMARK    1  A    between atoms: C_1  and  C_2
REMARK    2  A    between atoms: C_5  and  O_42
REMARK    3  A    between atoms: C_9  and  O_18
REMARK    4  A    between atoms: C_12  and  O_14
REMARK    5  A    between atoms: O_14  and  C_15
REMARK    6  A    between atoms: C_15  and  C_16
REMARK    7  A    between atoms: O_18  and  C_19
REMARK    8  A    between atoms: C_19  and  C_20
REMARK    9  A    between atoms: C_23  and  O_36
REMARK   10  A    between atoms: C_27  and  C_28
REMARK   11  A    between atoms: C_27  and  C_34
REMARK   12  A    between atoms: C_28  and  C_29
REMARK   13  A    between atoms: C_30  and  C_31
REMARK   14  A    between atoms: C_30  and  C_32
REMARK   15  A    between atoms: O_36  and  C_37
REMARK   16  A    between atoms: C_37  and  C_38
REMARK   17  A    between atoms: C_38  and  C_39
REMARK   18  A    between atoms: C_39  and  C_40
REMARK                            x       y       z     vdW  Elec       q    Type
REMARK                         _______ _______ _______ _____ _____    ______ ____
ROOT
ATOM      1  C   LIG A   1      -9.033   2.997 124.969  0.00  0.00    +0.008 C 
ATOM      2  C   LIG A   1      -8.543   1.634 124.450  0.00  0.00    -0.005 C 
ATOM      3  C   LIG A   1      -9.121   0.473 125.334  0.00  0.00    +0.036 C 
ATOM      4  C   LIG A   1      -8.335   0.075 126.620  0.00  0.00    +0.131 C 
ATOM      5  C   LIG A   1      -6.777  -0.008 126.429  0.00  0.00    +0.089 C 
ATOM      6  C   LIG A   1      -5.973  -0.143 127.710  0.00  0.00    +0.012 C 
ATOM      7  C   LIG A   1      -6.033  -1.542 128.185  0.00  0.00    +0.343 C 
ATOM      8  O   LIG A   1      -6.088  -2.293 126.974  0.00  0.00    -0.297 OA
ATOM      9  C   LIG A   1      -6.370  -1.405 125.859  0.00  0.00    +0.327 C 
ATOM     10  C   LIG A   1      -5.084   0.726 128.221  0.00  0.00    +0.023 C 
ATOM     11  C   LIG A   1      -4.686   1.981 127.524  0.00  0.00    +0.200 C 
ATOM     12  C   LIG A   1      -4.913   1.765 125.995  0.00  0.00    +0.054 C 
ATOM     13  C   LIG A   1      -6.373   1.323 125.693  0.00  0.00    +0.018 C 
ATOM     14  C   LIG A   1      -6.975   1.504 124.232  0.00  0.00    -0.022 C 
ATOM     15  C   LIG A   1      -6.779   0.288 123.288  0.00  0.00    +0.012 C 
ENDROOT
BRANCH   4  16
ATOM     16  O   LIG A   1      -8.684   1.052 127.611  0.00  0.00    -0.391 OA
ATOM     17  H   LIG A   1      -9.429   1.588 127.268  0.00  0.00    +0.210 HD
ENDBRANCH   4  16
BRANCH   9  18
ATOM     18  O   LIG A   1      -7.422  -2.028 125.116  0.00  0.00    -0.434 OA
BRANCH  18  19
ATOM     19  C   LIG A   1      -7.155  -3.228 124.568  0.00  0.00    +0.306 C 
ATOM     20  C   LIG A   1      -5.857  -3.173 123.824  0.00  0.00    +0.136 C 
ATOM     21  O   LIG A   1      -7.832  -4.248 124.704  0.00  0.00    -0.251 OA
ENDBRANCH  18  19
ENDBRANCH   9  18
BRANCH   7  22
ATOM     22  O   LIG A   1      -7.145  -1.847 129.013  0.00  0.00    -0.431 OA
BRANCH  22  23
ATOM     23  C   LIG A   1      -7.384  -3.182 129.158  0.00  0.00    +0.306 C 
ATOM     24  C   LIG A   1      -8.631  -3.556 128.415  0.00  0.00    +0.136 C 
ATOM     25  O   LIG A   1      -6.730  -3.961 129.804  0.00  0.00    -0.251 OA
ENDBRANCH  22  23
ENDBRANCH   7  22
BRANCH  14  26
ATOM     26  C   LIG A   1      -6.298   2.745 123.505  0.00  0.00    +0.034 C 
BRANCH  26  27
ATOM     27  C   LIG A   1      -6.918   3.215 122.199  0.00  0.00    -0.023 C 
ATOM     28  C   LIG A   1      -6.314   3.731 121.107  0.00  0.00    -0.055 C 
ATOM     29  C   LIG A   1      -7.107   4.098 119.873  0.00  0.00    +0.043 C 
BRANCH  28  30
ATOM     30  C   LIG A   1      -4.897   4.029 121.000  0.00  0.00    -0.005 C 
ATOM     31  C   LIG A   1      -4.328   5.147 121.470  0.00  0.00    +0.008 C 
ENDBRANCH  28  30
ENDBRANCH  26  27
ENDBRANCH  14  26
BRANCH  11  32
ATOM     32  O   LIG A   1      -5.482   3.059 128.058  0.00  0.00    -0.457 OA
BRANCH  32  33
ATOM     33  C   LIG A   1      -4.990   4.305 127.886  0.00  0.00    +0.308 C 
ATOM     34  O   LIG A   1      -5.445   5.165 127.117  0.00  0.00    -0.251 OA
BRANCH  33  35
ATOM     35  C   LIG A   1      -3.752   4.553 128.738  0.00  0.00    +0.120 C 
BRANCH  35  36
ATOM     36  C   LIG A   1      -2.599   5.154 127.943  0.00  0.00    +0.008 C 
ATOM     37  C   LIG A   1      -2.328   6.605 128.325  0.00  0.00    +0.004 C 
ENDBRANCH  35  36
ENDBRANCH  33  35
ENDBRANCH  32  33
ENDBRANCH  11  32
TORSDOF 12
ENDMDL
MODEL 2
REMARK VINA RESULT:      -7.8      2.510      6.822
REMARK  Name = NuBBE_52
REMARK  18 active torsions:
REMARK  status: ('A' for Active; 'I' for Inactive)
REMARK    1  A    between atoms: C_1  and  C_2
REMARK    2  A    between atoms: C_5  and  O_42
REMARK    3  A    between atoms: C_9  and  O_18
REMARK    4  A    between atoms: C_12  and  O_14
REMARK    5  A    between atoms: O_14  and  C_15
REMARK    6  A    between atoms: C_15  and  C_16
REMARK    7  A    between atoms: O_18  and  C_19
REMARK    8  A    between atoms: C_19  and  C_20
REMARK    9  A    between atoms: C_23  and  O_36
REMARK   10  A    between atoms: C_27  and  C_28
REMARK   11  A    between atoms: C_27  and  C_34
REMARK   12  A    between atoms: C_28  and  C_29
REMARK   13  A    between atoms: C_30  and  C_31
REMARK   14  A    between atoms: C_30  and  C_32
REMARK   15  A    between atoms: O_36  and  C_37
REMARK   16  A    between atoms: C_37  and  C_38
REMARK   17  A    between atoms: C_38  and  C_39
REMARK   18  A    between atoms: C_39  and  C_40
REMARK                            x       y       z     vdW  Elec       q    Type
REMARK                         _______ _______ _______ _____ _____    ______ ____
ROOT
ATOM      1  C   LIG A   1      -5.608  -1.393 126.870  0.00  0.00    +0.008 C 
ATOM      2  C   LIG A   1      -5.902  -0.120 126.057  0.00  0.00    -0.005 C 
ATOM      3  C   LIG A   1      -4.756   0.934 126.259  0.00  0.00    +0.036 C 
ATOM      4  C   LIG A   1      -4.856   1.896 127.480  0.00  0.00    +0.131 C 
ATOM      5  C   LIG A   1      -6.292   2.488 127.725  0.00  0.00    +0.089 C 
ATOM      6  C   LIG A   1      -6.475   3.219 129.043  0.00  0.00    +0.012 C 
ATOM      7  C   LIG A   1      -5.887   4.572 128.942  0.00  0.00    +0.343 C 
ATOM      8  O   LIG A   1      -6.119   4.926 127.581  0.00  0.00    -0.297 OA
ATOM      9  C   LIG A   1      -6.524   3.748 126.831  0.00  0.00    +0.327 C 
ATOM     10  C   LIG A   1      -7.284   2.888 130.065  0.00  0.00    +0.023 C 
ATOM     11  C   LIG A   1      -8.221   1.731 130.012  0.00  0.00    +0.200 C 
ATOM     12  C   LIG A   1      -8.558   1.462 128.512  0.00  0.00    +0.054 C 
ATOM     13  C   LIG A   1      -7.268   1.256 127.668  0.00  0.00    +0.018 C 
ATOM     14  C   LIG A   1      -7.346   0.511 126.265  0.00  0.00    -0.022 C 
ATOM     15  C   LIG A   1      -7.580   1.439 125.044  0.00  0.00    +0.012 C 
ENDROOT
BRANCH   4  16
ATOM     16  O   LIG A   1      -4.408   1.139 128.613  0.00  0.00    -0.391 OA
ATOM     17  H   LIG A   1      -4.336   1.743 129.381  0.00  0.00    +0.210 HD
ENDBRANCH   4  16
BRANCH   9  18
ATOM     18  O   LIG A   1      -5.722   3.741 125.646  0.00  0.00    -0.434 OA
BRANCH  18  19
ATOM     19  C   LIG A   1      -5.934   4.731 124.759  0.00  0.00    +0.306 C 
ATOM     20  C   LIG A   1      -5.652   4.243 123.371  0.00  0.00    +0.136 C 
ATOM     21  O   LIG A   1      -6.360   5.856 125.024  0.00  0.00    -0.251 OA
ENDBRANCH  18  19
ENDBRANCH   9  18
BRANCH   7  22
ATOM     22  O   LIG A   1      -4.503   4.649 129.250  0.00  0.00    -0.431 OA
BRANCH  22  23
ATOM     23  C   LIG A   1      -3.832   5.617 128.564  0.00  0.00    +0.306 C 
ATOM     24  C   LIG A   1      -2.715   4.998 127.779  0.00  0.00    +0.136 C 
ATOM     25  O   LIG A   1      -4.057   6.801 128.587  0.00  0.00    -0.251 OA
ENDBRANCH  22  23
ENDBRANCH   7  22
BRANCH  14  26
ATOM     26  C   LIG A   1      -8.538  -0.539 126.260  0.00  0.00    +0.034 C 
BRANCH  26  27
ATOM     27  C   LIG A   1      -9.000  -1.070 124.913  0.00  0.00    -0.023 C 
ATOM     28  C   LIG A   1      -8.787  -2.282 124.356  0.00  0.00    -0.055 C 
ATOM     29  C   LIG A   1      -9.376  -2.641 123.011  0.00  0.00    +0.043 C 
BRANCH  28  30
ATOM     30  C   LIG A   1      -7.963  -3.331 124.932  0.00  0.00    -0.005 C 
ATOM     31  C   LIG A   1      -6.830  -3.784 124.378  0.00  0.00    +0.008 C 
ENDBRANCH  28  30
ENDBRANCH  26  27
ENDBRANCH  14  26
BRANCH  11  32
ATOM     32  O   LIG A   1      -7.578   0.607 130.649  0.00  0.00    -0.457 OA
BRANCH  32  33
ATOM     33  C   LIG A   1      -8.390  -0.254 131.300  0.00  0.00    +0.308 C 
ATOM     34  O   LIG A   1      -9.453   0.039 131.868  0.00  0.00    -0.251 OA
BRANCH  33  35
ATOM     35  C   LIG A   1      -7.837  -1.673 131.297  0.00  0.00    +0.120 C 
BRANCH  35  36
ATOM     36  C   LIG A   1      -7.261  -2.080 129.946  0.00  0.00    +0.008 C 
ATOM     37  C   LIG A   1      -8.226  -2.944 129.143  0.00  0.00    +0.004 C 
ENDBRANCH  35  36
ENDBRANCH  33  35
ENDBRANCH  32  33
ENDBRANCH  11  32
TORSDOF 12
ENDMDL
MODEL 3
REMARK VINA RESULT:      -7.6      2.736      6.299
REMARK  Name = NuBBE_52
REMARK  18 active torsions:
REMARK  status: ('A' for Active; 'I' for Inactive)
REMARK    1  A    between atoms: C_1  and  C_2
REMARK    2  A    between atoms: C_5  and  O_42
REMARK    3  A    between atoms: C_9  and  O_18
REMARK    4  A    between atoms: C_12  and  O_14
REMARK    5  A    between atoms: O_14  and  C_15
REMARK    6  A    between atoms: C_15  and  C_16
REMARK    7  A    between atoms: O_18  and  C_19
REMARK    8  A    between atoms: C_19  and  C_20
REMARK    9  A    between atoms: C_23  and  O_36
REMARK   10  A    between atoms: C_27  and  C_28
REMARK   11  A    between atoms: C_27  and  C_34
REMARK   12  A    between atoms: C_28  and  C_29
REMARK   13  A    between atoms: C_30  and  C_31
REMARK   14  A    between atoms: C_30  and  C_32
REMARK   15  A    between atoms: O_36  and  C_37
REMARK   16  A    between atoms: C_37  and  C_38
REMARK   17  A    between atoms: C_38  and  C_39
REMARK   18  A    between atoms: C_39  and  C_40
REMARK                            x       y       z     vdW  Elec       q    Type
REMARK                         _______ _______ _______ _____ _____    ______ ____
ROOT
ATOM      1  C   LIG A   1      -5.484   2.730 129.088  0.00  0.00    +0.008 C 
ATOM      2  C   LIG A   1      -6.069   1.350 129.438  0.00  0.00    -0.005 C 
ATOM      3  C   LIG A   1      -5.157   0.209 128.865  0.00  0.00    +0.036 C 
ATOM      4  C   LIG A   1      -5.401  -0.251 127.395  0.00  0.00    +0.131 C 
ATOM      5  C   LIG A   1      -6.915  -0.414 127.008  0.00  0.00    +0.089 C 
ATOM      6  C   LIG A   1      -7.188  -0.611 125.527  0.00  0.00    +0.012 C 
ATOM      7  C   LIG A   1      -6.897  -2.012 125.155  0.00  0.00    +0.343 C 
ATOM      8  O   LIG A   1      -7.255  -2.741 126.327  0.00  0.00    -0.297 OA
ATOM      9  C   LIG A   1      -7.441  -1.821 127.438  0.00  0.00    +0.327 C 
ATOM     10  C   LIG A   1      -7.867   0.202 124.698  0.00  0.00    +0.023 C 
ATOM     11  C   LIG A   1      -8.547   1.444 125.160  0.00  0.00    +0.200 C 
ATOM     12  C   LIG A   1      -8.885   1.264 126.673  0.00  0.00    +0.054 C 
ATOM     13  C   LIG A   1      -7.619   0.905 127.501  0.00  0.00    +0.018 C 
ATOM     14  C   LIG A   1      -7.601   1.141 129.074  0.00  0.00    -0.022 C 
ATOM     15  C   LIG A   1      -8.074  -0.069 129.922  0.00  0.00    +0.012 C 
ENDROOT
BRANCH   4  16
ATOM     16  O   LIG A   1      -4.757   0.728 126.567  0.00  0.00    -0.391 OA
ATOM     17  H   LIG A   1      -4.644   1.550 127.089  0.00  0.00    +0.210 HD
ENDBRANCH   4  16
BRANCH   9  18
ATOM     18  O   LIG A   1      -6.707  -2.376 128.533  0.00  0.00    -0.434 OA
BRANCH  18  19
ATOM     19  C   LIG A   1      -7.321  -3.325 129.262  0.00  0.00    +0.306 C 
ATOM     20  C   LIG A   1      -6.324  -4.030 130.130  0.00  0.00    +0.136 C 
ATOM     21  O   LIG A   1      -8.532  -3.551 129.277  0.00  0.00    -0.251 OA
ENDBRANCH  18  19
ENDBRANCH   9  18
BRANCH   7  22
ATOM     22  O   LIG A   1      -5.547  -2.269 124.799  0.00  0.00    -0.431 OA
BRANCH  22  23
ATOM     23  C   LIG A   1      -5.386  -2.756 123.536  0.00  0.00    +0.306 C 
ATOM     24  C   LIG A   1      -4.517  -3.977 123.571  0.00  0.00    +0.136 C 
ATOM     25  O   LIG A   1      -5.834  -2.283 122.522  0.00  0.00    -0.251 OA
ENDBRANCH  22  23
ENDBRANCH   7  22
BRANCH  14  26
ATOM     26  C   LIG A   1      -8.551   2.354 129.462  0.00  0.00    +0.034 C 
BRANCH  26  27
ATOM     27  C   LIG A   1      -9.093   2.393 130.881  0.00  0.00    -0.023 C 
ATOM     28  C   LIG A   1      -8.607   3.042 131.962  0.00  0.00    -0.055 C 
ATOM     29  C   LIG A   1      -9.325   2.996 133.292  0.00  0.00    +0.043 C 
BRANCH  28  30
ATOM     30  C   LIG A   1      -7.364   3.793 131.994  0.00  0.00    -0.005 C 
ATOM     31  C   LIG A   1      -7.263   5.089 131.674  0.00  0.00    +0.008 C 
ENDBRANCH  28  30
ENDBRANCH  26  27
ENDBRANCH  14  26
BRANCH  11  32
ATOM     32  O   LIG A   1      -7.659   2.555 124.917  0.00  0.00    -0.457 OA
BRANCH  32  33
ATOM     33  C   LIG A   1      -7.696   3.086 123.676  0.00  0.00    +0.308 C 
ATOM     34  O   LIG A   1      -8.713   3.250 122.986  0.00  0.00    -0.251 OA
BRANCH  33  35
ATOM     35  C   LIG A   1      -6.306   3.451 123.169  0.00  0.00    +0.120 C 
BRANCH  35  36
ATOM     36  C   LIG A   1      -6.106   3.112 121.697  0.00  0.00    +0.008 C 
ATOM     37  C   LIG A   1      -5.397   4.228 120.938  0.00  0.00    +0.004 C 
ENDBRANCH  35  36
ENDBRANCH  33  35
ENDBRANCH  32  33
ENDBRANCH  11  32
TORSDOF 12
ENDMDL
MODEL 4
REMARK VINA RESULT:      -7.6      2.234      6.321
REMARK  Name = NuBBE_52
REMARK  18 active torsions:
REMARK  status: ('A' for Active; 'I' for Inactive)
REMARK    1  A    between atoms: C_1  and  C_2
REMARK    2  A    between atoms: C_5  and  O_42
REMARK    3  A    between atoms: C_9  and  O_18
REMARK    4  A    between atoms: C_12  and  O_14
REMARK    5  A    between atoms: O_14  and  C_15
REMARK    6  A    between atoms: C_15  and  C_16
REMARK    7  A    between atoms: O_18  and  C_19
REMARK    8  A    between atoms: C_19  and  C_20
REMARK    9  A    between atoms: C_23  and  O_36
REMARK   10  A    between atoms: C_27  and  C_28
REMARK   11  A    between atoms: C_27  and  C_34
REMARK   12  A    between atoms: C_28  and  C_29
REMARK   13  A    between atoms: C_30  and  C_31
REMARK   14  A    between atoms: C_30  and  C_32
REMARK   15  A    between atoms: O_36  and  C_37
REMARK   16  A    between atoms: C_37  and  C_38
REMARK   17  A    between atoms: C_38  and  C_39
REMARK   18  A    between atoms: C_39  and  C_40
REMARK                            x       y       z     vdW  Elec       q    Type
REMARK                         _______ _______ _______ _____ _____    ______ ____
ROOT
ATOM      1  C   LIG A   1      -6.929   3.971 128.651  0.00  0.00    +0.008 C 
ATOM      2  C   LIG A   1      -6.564   4.181 127.171  0.00  0.00    -0.005 C 
ATOM      3  C   LIG A   1      -7.820   3.944 126.260  0.00  0.00    +0.036 C 
ATOM      4  C   LIG A   1      -8.124   2.486 125.801  0.00  0.00    +0.131 C 
ATOM      5  C   LIG A   1      -6.861   1.674 125.338  0.00  0.00    +0.089 C 
ATOM      6  C   LIG A   1      -7.087   0.186 125.130  0.00  0.00    +0.012 C 
ATOM      7  C   LIG A   1      -7.759  -0.033 123.831  0.00  0.00    +0.343 C 
ATOM      8  O   LIG A   1      -7.227   1.005 123.012  0.00  0.00    -0.297 OA
ATOM      9  C   LIG A   1      -6.534   1.978 123.841  0.00  0.00    +0.327 C 
ATOM     10  C   LIG A   1      -6.533  -0.834 125.807  0.00  0.00    +0.023 C 
ATOM     11  C   LIG A   1      -5.506  -0.639 126.868  0.00  0.00    +0.200 C 
ATOM     12  C   LIG A   1      -4.778   0.711 126.580  0.00  0.00    +0.054 C 
ATOM     13  C   LIG A   1      -5.787   1.889 126.468  0.00  0.00    +0.018 C 
ATOM     14  C   LIG A   1      -5.287   3.387 126.658  0.00  0.00    -0.022 C 
ATOM     15  C   LIG A   1      -4.844   4.099 125.353  0.00  0.00    +0.012 C 
ENDROOT
BRANCH   4  16
ATOM     16  O   LIG A   1      -8.768   1.852 126.915  0.00  0.00    -0.391 OA
ATOM     17  H   LIG A   1      -9.619   1.476 126.609  0.00  0.00    +0.210 HD
ENDBRANCH   4  16
BRANCH   9  18
ATOM     18  O   LIG A   1      -7.008   3.261 123.420  0.00  0.00    -0.434 OA
BRANCH  18  19
ATOM     19  C   LIG A   1      -7.034   3.498 122.096  0.00  0.00    +0.306 C 
ATOM     20  C   LIG A   1      -5.639   3.671 121.579  0.00  0.00    +0.136 C 
ATOM     21  O   LIG A   1      -8.041   3.508 121.386  0.00  0.00    -0.251 OA
ENDBRANCH  18  19
ENDBRANCH   9  18
BRANCH   7  22
ATOM     22  O   LIG A   1      -9.176   0.037 123.870  0.00  0.00    -0.431 OA
BRANCH  22  23
ATOM     23  C   LIG A   1      -9.796  -0.655 122.871  0.00  0.00    +0.306 C 
ATOM     24  C   LIG A   1      -9.261  -2.054 122.817  0.00  0.00    +0.136 C 
ATOM     25  O   LIG A   1     -10.628  -0.227 122.111  0.00  0.00    -0.251 OA
ENDBRANCH  22  23
ENDBRANCH   7  22
BRANCH  14  26
ATOM     26  C   LIG A   1      -4.036   3.433 127.636  0.00  0.00    +0.034 C 
BRANCH  26  27
ATOM     27  C   LIG A   1      -3.171   4.682 127.609  0.00  0.00    -0.023 C 
ATOM     28  C   LIG A   1      -3.063   5.665 128.530  0.00  0.00    -0.055 C 
ATOM     29  C   LIG A   1      -2.100   6.814 128.341  0.00  0.00    +0.043 C 
BRANCH  28  30
ATOM     30  C   LIG A   1      -3.857   5.761 129.743  0.00  0.00    -0.005 C 
ATOM     31  C   LIG A   1      -4.507   6.867 130.128  0.00  0.00    +0.008 C 
ENDBRANCH  28  30
ENDBRANCH  26  27
ENDBRANCH  14  26
BRANCH  11  32
ATOM     32  O   LIG A   1      -6.177  -0.648 128.145  0.00  0.00    -0.457 OA
BRANCH  32  33
ATOM     33  C   LIG A   1      -6.293  -1.850 128.749  0.00  0.00    +0.308 C 
ATOM     34  O   LIG A   1      -5.367  -2.645 128.970  0.00  0.00    -0.251 OA
BRANCH  33  35
ATOM     35  C   LIG A   1      -7.737  -2.166 129.119  0.00  0.00    +0.120 C 
BRANCH  35  36
ATOM     36  C   LIG A   1      -8.203  -3.513 128.580  0.00  0.00    +0.008 C 
ATOM     37  C   LIG A   1      -8.778  -3.404 127.172  0.00  0.00    +0.004 C 
ENDBRANCH  35  36
ENDBRANCH  33  35
ENDBRANCH  32  33
ENDBRANCH  11  32
TORSDOF 12
ENDMDL
MODEL 5
REMARK VINA RESULT:      -7.5      2.396      7.841
REMARK  Name = NuBBE_52
REMARK  18 active torsions:
REMARK  status: ('A' for Active; 'I' for Inactive)
REMARK    1  A    between atoms: C_1  and  C_2
REMARK    2  A    between atoms: C_5  and  O_42
REMARK    3  A    between atoms: C_9  and  O_18
REMARK    4  A    between atoms: C_12  and  O_14
REMARK    5  A    between atoms: O_14  and  C_15
REMARK    6  A    between atoms: C_15  and  C_16
REMARK    7  A    between atoms: O_18  and  C_19
REMARK    8  A    between atoms: C_19  and  C_20
REMARK    9  A    between atoms: C_23  and  O_36
REMARK   10  A    between atoms: C_27  and  C_28
REMARK   11  A    between atoms: C_27  and  C_34
REMARK   12  A    between atoms: C_28  and  C_29
REMARK   13  A    between atoms: C_30  and  C_31
REMARK   14  A    between atoms: C_30  and  C_32
REMARK   15  A    between atoms: O_36  and  C_37
REMARK   16  A    between atoms: C_37  and  C_38
REMARK   17  A    between atoms: C_38  and  C_39
REMARK   18  A    between atoms: C_39  and  C_40
REMARK                            x       y       z     vdW  Elec       q    Type
REMARK                         _______ _______ _______ _____ _____    ______ ____
ROOT
ATOM      1  C   LIG A   1      -8.471   0.924 130.558  0.00  0.00    +0.008 C 
ATOM      2  C   LIG A   1      -7.112   1.563 130.223  0.00  0.00    -0.005 C 
ATOM      3  C   LIG A   1      -7.316   2.871 129.380  0.00  0.00    +0.036 C 
ATOM      4  C   LIG A   1      -7.439   2.730 127.833  0.00  0.00    +0.131 C 
ATOM      5  C   LIG A   1      -6.412   1.731 127.187  0.00  0.00    +0.089 C 
ATOM      6  C   LIG A   1      -6.671   1.385 125.732  0.00  0.00    +0.012 C 
ATOM      7  C   LIG A   1      -6.204   2.491 124.870  0.00  0.00    +0.343 C 
ATOM      8  O   LIG A   1      -5.071   2.994 125.574  0.00  0.00    -0.297 OA
ATOM      9  C   LIG A   1      -5.048   2.447 126.921  0.00  0.00    +0.327 C 
ATOM     10  C   LIG A   1      -6.981   0.183 125.213  0.00  0.00    +0.023 C 
ATOM     11  C   LIG A   1      -7.044  -1.060 126.032  0.00  0.00    +0.200 C 
ATOM     12  C   LIG A   1      -6.115  -0.859 127.270  0.00  0.00    +0.054 C 
ATOM     13  C   LIG A   1      -6.491   0.425 128.061  0.00  0.00    +0.018 C 
ATOM     14  C   LIG A   1      -6.035   0.589 129.576  0.00  0.00    -0.022 C 
ATOM     15  C   LIG A   1      -4.664   1.286 129.775  0.00  0.00    +0.012 C 
ENDROOT
BRANCH   4  16
ATOM     16  O   LIG A   1      -8.790   2.316 127.584  0.00  0.00    -0.391 OA
ATOM     17  H   LIG A   1      -9.370   3.105 127.629  0.00  0.00    +0.210 HD
ENDBRANCH   4  16
BRANCH   9  18
ATOM     18  O   LIG A   1      -4.827   3.559 127.793  0.00  0.00    -0.434 OA
BRANCH  18  19
ATOM     19  C   LIG A   1      -3.744   4.320 127.550  0.00  0.00    +0.306 C 
ATOM     20  C   LIG A   1      -2.509   3.473 127.563  0.00  0.00    +0.136 C 
ATOM     21  O   LIG A   1      -3.754   5.523 127.286  0.00  0.00    -0.251 OA
ENDBRANCH  18  19
ENDBRANCH   9  18
BRANCH   7  22
ATOM     22  O   LIG A   1      -7.154   3.523 124.650  0.00  0.00    -0.431 OA
BRANCH  22  23
ATOM     23  C   LIG A   1      -8.346   3.086 124.152  0.00  0.00    +0.306 C 
ATOM     24  C   LIG A   1      -8.265   2.990 122.658  0.00  0.00    +0.136 C 
ATOM     25  O   LIG A   1      -9.341   2.836 124.785  0.00  0.00    -0.251 OA
ENDBRANCH  22  23
ENDBRANCH   7  22
BRANCH  14  26
ATOM     26  C   LIG A   1      -5.917  -0.833 130.276  0.00  0.00    +0.034 C 
BRANCH  26  27
ATOM     27  C   LIG A   1      -4.898  -0.981 131.393  0.00  0.00    -0.023 C 
ATOM     28  C   LIG A   1      -3.661  -1.523 131.352  0.00  0.00    -0.055 C 
ATOM     29  C   LIG A   1      -2.769  -1.534 132.573  0.00  0.00    +0.043 C 
BRANCH  28  30
ATOM     30  C   LIG A   1      -3.076  -2.177 130.195  0.00  0.00    -0.005 C 
ATOM     31  C   LIG A   1      -3.394  -3.414 129.791  0.00  0.00    +0.008 C 
ENDBRANCH  28  30
ENDBRANCH  26  27
ENDBRANCH  14  26
BRANCH  11  32
ATOM     32  O   LIG A   1      -8.422  -1.282 126.400  0.00  0.00    -0.457 OA
BRANCH  32  33
ATOM     33  C   LIG A   1      -8.994  -2.405 125.917  0.00  0.00    +0.308 C 
ATOM     34  O   LIG A   1      -9.873  -2.455 125.043  0.00  0.00    -0.251 OA
BRANCH  33  35
ATOM     35  C   LIG A   1      -8.458  -3.658 126.599  0.00  0.00    +0.120 C 
BRANCH  35  36
ATOM     36  C   LIG A   1      -9.093  -3.906 127.962  0.00  0.00    +0.008 C 
ATOM     37  C   LIG A   1      -8.236  -3.374 129.105  0.00  0.00    +0.004 C 
ENDBRANCH  35  36
ENDBRANCH  33  35
ENDBRANCH  32  33
ENDBRANCH  11  32
TORSDOF 12
ENDMDL
MODEL 6
REMARK VINA RESULT:      -7.4      2.563      5.812
REMARK  Name = NuBBE_52
REMARK  18 active torsions:
REMARK  status: ('A' for Active; 'I' for Inactive)
REMARK    1  A    between atoms: C_1  and  C_2
REMARK    2  A    between atoms: C_5  and  O_42
REMARK    3  A    between atoms: C_9  and  O_18
REMARK    4  A    between atoms: C_12  and  O_14
REMARK    5  A    between atoms: O_14  and  C_15
REMARK    6  A    between atoms: C_15  and  C_16
REMARK    7  A    between atoms: O_18  and  C_19
REMARK    8  A    between atoms: C_19  and  C_20
REMARK    9  A    between atoms: C_23  and  O_36
REMARK   10  A    between atoms: C_27  and  C_28
REMARK   11  A    between atoms: C_27  and  C_34
REMARK   12  A    between atoms: C_28  and  C_29
REMARK   13  A    between atoms: C_30  and  C_31
REMARK   14  A    between atoms: C_30  and  C_32
REMARK   15  A    between atoms: O_36  and  C_37
REMARK   16  A    between atoms: C_37  and  C_38
REMARK   17  A    between atoms: C_38  and  C_39
REMARK   18  A    between atoms: C_39  and  C_40
REMARK                            x       y       z     vdW  Elec       q    Type
REMARK                         _______ _______ _______ _____ _____    ______ ____
ROOT
ATOM      1  C   LIG A   1      -8.752  -0.129 126.247  0.00  0.00    +0.008 C 
ATOM      2  C   LIG A   1      -7.664  -0.750 127.141  0.00  0.00    -0.005 C 
ATOM      3  C   LIG A   1      -7.881  -0.328 128.638  0.00  0.00    +0.036 C 
ATOM      4  C   LIG A   1      -7.262   1.021 129.113  0.00  0.00    +0.131 C 
ATOM      5  C   LIG A   1      -5.798   1.279 128.602  0.00  0.00    +0.089 C 
ATOM      6  C   LIG A   1      -5.268   2.683 128.835  0.00  0.00    +0.012 C 
ATOM      7  C   LIG A   1      -4.847   2.824 130.245  0.00  0.00    +0.343 C 
ATOM      8  O   LIG A   1      -4.363   1.523 130.570  0.00  0.00    -0.297 OA
ATOM      9  C   LIG A   1      -4.761   0.579 129.538  0.00  0.00    +0.327 C 
ATOM     10  C   LIG A   1      -4.921   3.597 127.912  0.00  0.00    +0.023 C 
ATOM     11  C   LIG A   1      -4.939   3.317 126.449  0.00  0.00    +0.200 C 
ATOM     12  C   LIG A   1      -4.764   1.778 126.259  0.00  0.00    +0.054 C 
ATOM     13  C   LIG A   1      -5.834   0.981 127.057  0.00  0.00    +0.018 C 
ATOM     14  C   LIG A   1      -6.167  -0.523 126.661  0.00  0.00    -0.022 C 
ATOM     15  C   LIG A   1      -5.321  -1.597 127.395  0.00  0.00    +0.012 C 
ENDROOT
BRANCH   4  16
ATOM     16  O   LIG A   1      -8.157   2.045 128.657  0.00  0.00    -0.391 OA
ATOM     17  H   LIG A   1      -7.651   2.676 128.104  0.00  0.00    +0.210 HD
ENDBRANCH   4  16
BRANCH   9  18
ATOM     18  O   LIG A   1      -5.309  -0.548 130.227  0.00  0.00    -0.434 OA
BRANCH  18  19
ATOM     19  C   LIG A   1      -4.515  -1.162 131.124  0.00  0.00    +0.306 C 
ATOM     20  C   LIG A   1      -3.331  -1.763 130.431  0.00  0.00    +0.136 C 
ATOM     21  O   LIG A   1      -4.685  -1.179 132.343  0.00  0.00    -0.251 OA
ENDBRANCH  18  19
ENDBRANCH   9  18
BRANCH   7  22
ATOM     22  O   LIG A   1      -5.877   3.212 131.142  0.00  0.00    -0.431 OA
BRANCH  22  23
ATOM     23  C   LIG A   1      -6.474   4.397 130.827  0.00  0.00    +0.306 C 
ATOM     24  C   LIG A   1      -5.564   5.533 131.184  0.00  0.00    +0.136 C 
ATOM     25  O   LIG A   1      -7.575   4.543 130.360  0.00  0.00    -0.251 OA
ENDBRANCH  22  23
ENDBRANCH   7  22
BRANCH  14  26
ATOM     26  C   LIG A   1      -5.924  -0.752 125.107  0.00  0.00    +0.034 C 
BRANCH  26  27
ATOM     27  C   LIG A   1      -5.230  -2.038 124.689  0.00  0.00    -0.023 C 
ATOM     28  C   LIG A   1      -5.765  -3.167 124.175  0.00  0.00    -0.055 C 
ATOM     29  C   LIG A   1      -4.893  -4.335 123.772  0.00  0.00    +0.043 C 
BRANCH  28  30
ATOM     30  C   LIG A   1      -7.186  -3.410 123.995  0.00  0.00    -0.005 C 
ATOM     31  C   LIG A   1      -8.005  -3.821 124.972  0.00  0.00    +0.008 C 
ENDBRANCH  28  30
ENDBRANCH  26  27
ENDBRANCH  14  26
BRANCH  11  32
ATOM     32  O   LIG A   1      -6.188   3.805 125.917  0.00  0.00    -0.457 OA
BRANCH  32  33
ATOM     33  C   LIG A   1      -6.098   4.714 124.922  0.00  0.00    +0.308 C 
ATOM     34  O   LIG A   1      -6.208   5.942 125.049  0.00  0.00    -0.251 OA
BRANCH  33  35
ATOM     35  C   LIG A   1      -5.873   4.056 123.567  0.00  0.00    +0.120 C 
BRANCH  35  36
ATOM     36  C   LIG A   1      -6.699   2.790 123.380  0.00  0.00    +0.008 C 
ATOM     37  C   LIG A   1      -8.169   3.093 123.113  0.00  0.00    +0.004 C 
ENDBRANCH  35  36
ENDBRANCH  33  35
ENDBRANCH  32  33
ENDBRANCH  11  32
TORSDOF 12
ENDMDL
MODEL 7
REMARK VINA RESULT:      -7.3      2.772      5.989
REMARK  Name = NuBBE_52
REMARK  18 active torsions:
REMARK  status: ('A' for Active; 'I' for Inactive)
REMARK    1  A    between atoms: C_1  and  C_2
REMARK    2  A    between atoms: C_5  and  O_42
REMARK    3  A    between atoms: C_9  and  O_18
REMARK    4  A    between atoms: C_12  and  O_14
REMARK    5  A    between atoms: O_14  and  C_15
REMARK    6  A    between atoms: C_15  and  C_16
REMARK    7  A    between atoms: O_18  and  C_19
REMARK    8  A    between atoms: C_19  and  C_20
REMARK    9  A    between atoms: C_23  and  O_36
REMARK   10  A    between atoms: C_27  and  C_28
REMARK   11  A    between atoms: C_27  and  C_34
REMARK   12  A    between atoms: C_28  and  C_29
REMARK   13  A    between atoms: C_30  and  C_31
REMARK   14  A    between atoms: C_30  and  C_32
REMARK   15  A    between atoms: O_36  and  C_37
REMARK   16  A    between atoms: C_37  and  C_38
REMARK   17  A    between atoms: C_38  and  C_39
REMARK   18  A    between atoms: C_39  and  C_40
REMARK                            x       y       z     vdW  Elec       q    Type
REMARK                         _______ _______ _______ _____ _____    ______ ____
ROOT
ATOM      1  C   LIG A   1      -5.341   2.525 129.294  0.00  0.00    +0.008 C 
ATOM      2  C   LIG A   1      -6.008   1.170 129.592  0.00  0.00    -0.005 C 
ATOM      3  C   LIG A   1      -5.147  -0.003 129.004  0.00  0.00    +0.036 C 
ATOM      4  C   LIG A   1      -5.381  -0.407 127.518  0.00  0.00    +0.131 C 
ATOM      5  C   LIG A   1      -6.893  -0.476 127.093  0.00  0.00    +0.089 C 
ATOM      6  C   LIG A   1      -7.141  -0.617 125.602  0.00  0.00    +0.012 C 
ATOM      7  C   LIG A   1      -6.918  -2.020 125.194  0.00  0.00    +0.343 C 
ATOM      8  O   LIG A   1      -7.342  -2.761 126.337  0.00  0.00    -0.297 OA
ATOM      9  C   LIG A   1      -7.504  -1.864 127.470  0.00  0.00    +0.327 C 
ATOM     10  C   LIG A   1      -7.755   0.255 124.782  0.00  0.00    +0.023 C 
ATOM     11  C   LIG A   1      -8.377   1.519 125.266  0.00  0.00    +0.200 C 
ATOM     12  C   LIG A   1      -8.760   1.316 126.765  0.00  0.00    +0.054 C 
ATOM     13  C   LIG A   1      -7.535   0.865 127.609  0.00  0.00    +0.018 C 
ATOM     14  C   LIG A   1      -7.541   1.055 129.188  0.00  0.00    -0.022 C 
ATOM     15  C   LIG A   1      -8.098  -0.151 129.990  0.00  0.00    +0.012 C 
ENDROOT
BRANCH   4  16
ATOM     16  O   LIG A   1      -4.666   0.558 126.733  0.00  0.00    -0.391 OA
ATOM     17  H   LIG A   1      -3.754   0.227 126.590  0.00  0.00    +0.210 HD
ENDBRANCH   4  16
BRANCH   9  18
ATOM     18  O   LIG A   1      -6.826  -2.489 128.564  0.00  0.00    -0.434 OA
BRANCH  18  19
ATOM     19  C   LIG A   1      -7.548  -3.325 129.332  0.00  0.00    +0.306 C 
ATOM     20  C   LIG A   1      -6.728  -3.785 130.498  0.00  0.00    +0.136 C 
ATOM     21  O   LIG A   1      -8.729  -3.626 129.156  0.00  0.00    -0.251 OA
ENDBRANCH  18  19
ENDBRANCH   9  18
BRANCH   7  22
ATOM     22  O   LIG A   1      -5.576  -2.341 124.861  0.00  0.00    -0.431 OA
BRANCH  22  23
ATOM     23  C   LIG A   1      -5.404  -2.753 123.572  0.00  0.00    +0.306 C 
ATOM     24  C   LIG A   1      -4.491  -3.941 123.537  0.00  0.00    +0.136 C 
ATOM     25  O   LIG A   1      -5.876  -2.242 122.587  0.00  0.00    -0.251 OA
ENDBRANCH  22  23
ENDBRANCH   7  22
BRANCH  14  26
ATOM     26  C   LIG A   1      -8.432   2.308 129.591  0.00  0.00    +0.034 C 
BRANCH  26  27
ATOM     27  C   LIG A   1      -8.917   2.388 131.029  0.00  0.00    -0.023 C 
ATOM     28  C   LIG A   1      -8.536   3.234 132.011  0.00  0.00    -0.055 C 
ATOM     29  C   LIG A   1      -9.179   3.187 133.378  0.00  0.00    +0.043 C 
BRANCH  28  30
ATOM     30  C   LIG A   1      -7.475   4.219 131.897  0.00  0.00    -0.005 C 
ATOM     31  C   LIG A   1      -7.669   5.542 131.981  0.00  0.00    +0.008 C 
ENDBRANCH  28  30
ENDBRANCH  26  27
ENDBRANCH  14  26
BRANCH  11  32
ATOM     32  O   LIG A   1      -7.425   2.586 125.074  0.00  0.00    -0.457 OA
BRANCH  32  33
ATOM     33  C   LIG A   1      -7.776   3.794 125.566  0.00  0.00    +0.308 C 
ATOM     34  O   LIG A   1      -8.861   4.366 125.381  0.00  0.00    -0.251 OA
BRANCH  33  35
ATOM     35  C   LIG A   1      -6.653   4.428 126.378  0.00  0.00    +0.120 C 
BRANCH  35  36
ATOM     36  C   LIG A   1      -5.270   3.995 125.910  0.00  0.00    +0.008 C 
ATOM     37  C   LIG A   1      -4.155   4.640 126.726  0.00  0.00    +0.004 C 
ENDBRANCH  35  36
ENDBRANCH  33  35
ENDBRANCH  32  33
ENDBRANCH  11  32
TORSDOF 12
ENDMDL
MODEL 8
REMARK VINA RESULT:      -7.3      2.530      6.025
REMARK  Name = NuBBE_52
REMARK  18 active torsions:
REMARK  status: ('A' for Active; 'I' for Inactive)
REMARK    1  A    between atoms: C_1  and  C_2
REMARK    2  A    between atoms: C_5  and  O_42
REMARK    3  A    between atoms: C_9  and  O_18
REMARK    4  A    between atoms: C_12  and  O_14
REMARK    5  A    between atoms: O_14  and  C_15
REMARK    6  A    between atoms: C_15  and  C_16
REMARK    7  A    between atoms: O_18  and  C_19
REMARK    8  A    between atoms: C_19  and  C_20
REMARK    9  A    between atoms: C_23  and  O_36
REMARK   10  A    between atoms: C_27  and  C_28
REMARK   11  A    between atoms: C_27  and  C_34
REMARK   12  A    between atoms: C_28  and  C_29
REMARK   13  A    between atoms: C_30  and  C_31
REMARK   14  A    between atoms: C_30  and  C_32
REMARK   15  A    between atoms: O_36  and  C_37
REMARK   16  A    between atoms: C_37  and  C_38
REMARK   17  A    between atoms: C_38  and  C_39
REMARK   18  A    between atoms: C_39  and  C_40
REMARK                            x       y       z     vdW  Elec       q    Type
REMARK                         _______ _______ _______ _____ _____    ______ ____
ROOT
ATOM      1  C   LIG A   1      -4.796   1.669 126.580  0.00  0.00    +0.008 C 
ATOM      2  C   LIG A   1      -5.741   1.901 127.772  0.00  0.00    -0.005 C 
ATOM      3  C   LIG A   1      -5.149   1.252 129.073  0.00  0.00    +0.036 C 
ATOM      4  C   LIG A   1      -5.455  -0.252 129.343  0.00  0.00    +0.131 C 
ATOM      5  C   LIG A   1      -6.943  -0.673 129.063  0.00  0.00    +0.089 C 
ATOM      6  C   LIG A   1      -7.207  -2.168 129.072  0.00  0.00    +0.012 C 
ATOM      7  C   LIG A   1      -7.289  -2.646 130.469  0.00  0.00    +0.343 C 
ATOM      8  O   LIG A   1      -7.870  -1.540 131.156  0.00  0.00    -0.297 OA
ATOM      9  C   LIG A   1      -7.842  -0.363 130.303  0.00  0.00    +0.327 C 
ATOM     10  C   LIG A   1      -7.613  -2.940 128.049  0.00  0.00    +0.023 C 
ATOM     11  C   LIG A   1      -7.951  -2.392 126.706  0.00  0.00    +0.200 C 
ATOM     12  C   LIG A   1      -8.378  -0.903 126.896  0.00  0.00    +0.054 C 
ATOM     13  C   LIG A   1      -7.284  -0.088 127.642  0.00  0.00    +0.018 C 
ATOM     14  C   LIG A   1      -7.260   1.499 127.534  0.00  0.00    -0.022 C 
ATOM     15  C   LIG A   1      -8.069   2.242 128.629  0.00  0.00    +0.012 C 
ENDROOT
BRANCH   4  16
ATOM     16  O   LIG A   1      -4.544  -0.991 128.517  0.00  0.00    -0.391 OA
ATOM     17  H   LIG A   1      -4.212  -0.396 127.812  0.00  0.00    +0.210 HD
ENDBRANCH   4  16
BRANCH   9  18
ATOM     18  O   LIG A   1      -7.322   0.696 131.112  0.00  0.00    -0.434 OA
BRANCH  18  19
ATOM     19  C   LIG A   1      -7.996   0.991 132.239  0.00  0.00    +0.306 C 
ATOM     20  C   LIG A   1      -9.417   1.331 131.911  0.00  0.00    +0.136 C 
ATOM     21  O   LIG A   1      -7.547   0.930 133.384  0.00  0.00    -0.251 OA
ENDBRANCH  18  19
ENDBRANCH   9  18
BRANCH   7  22
ATOM     22  O   LIG A   1      -6.045  -3.001 131.055  0.00  0.00    -0.431 OA
BRANCH  22  23
ATOM     23  C   LIG A   1      -5.349  -3.943 130.357  0.00  0.00    +0.306 C 
ATOM     24  C   LIG A   1      -5.731  -5.312 130.835  0.00  0.00    +0.136 C 
ATOM     25  O   LIG A   1      -4.523  -3.739 129.504  0.00  0.00    -0.251 OA
ENDBRANCH  22  23
ENDBRANCH   7  22
BRANCH  14  26
ATOM     26  C   LIG A   1      -7.862   1.967 126.140  0.00  0.00    +0.034 C 
BRANCH  26  27
ATOM     27  C   LIG A   1      -7.003   2.875 125.275  0.00  0.00    -0.023 C 
ATOM     28  C   LIG A   1      -6.967   2.987 123.929  0.00  0.00    -0.055 C 
ATOM     29  C   LIG A   1      -6.069   3.995 123.250  0.00  0.00    +0.043 C 
BRANCH  28  30
ATOM     30  C   LIG A   1      -7.720   2.157 123.004  0.00  0.00    -0.005 C 
ATOM     31  C   LIG A   1      -8.930   2.475 122.526  0.00  0.00    +0.008 C 
ENDBRANCH  28  30
ENDBRANCH  26  27
ENDBRANCH  14  26
BRANCH  11  32
ATOM     32  O   LIG A   1      -6.790  -2.534 125.861  0.00  0.00    -0.457 OA
BRANCH  32  33
ATOM     33  C   LIG A   1      -6.959  -3.255 124.732  0.00  0.00    +0.308 C 
ATOM     34  O   LIG A   1      -6.058  -3.624 123.963  0.00  0.00    -0.251 OA
BRANCH  33  35
ATOM     35  C   LIG A   1      -8.428  -3.558 124.463  0.00  0.00    +0.120 C 
BRANCH  35  36
ATOM     36  C   LIG A   1      -8.929  -2.941 123.163  0.00  0.00    +0.008 C 
ATOM     37  C   LIG A   1      -9.032  -1.422 123.246  0.00  0.00    +0.004 C 
ENDBRANCH  35  36
ENDBRANCH  33  35
ENDBRANCH  32  33
ENDBRANCH  11  32
TORSDOF 12
ENDMDL
MODEL 9
REMARK VINA RESULT:      -7.0      4.865      6.330
REMARK  Name = NuBBE_52
REMARK  18 active torsions:
REMARK  status: ('A' for Active; 'I' for Inactive)
REMARK    1  A    between atoms: C_1  and  C_2
REMARK    2  A    between atoms: C_5  and  O_42
REMARK    3  A    between atoms: C_9  and  O_18
REMARK    4  A    between atoms: C_12  and  O_14
REMARK    5  A    between atoms: O_14  and  C_15
REMARK    6  A    between atoms: C_15  and  C_16
REMARK    7  A    between atoms: O_18  and  C_19
REMARK    8  A    between atoms: C_19  and  C_20
REMARK    9  A    between atoms: C_23  and  O_36
REMARK   10  A    between atoms: C_27  and  C_28
REMARK   11  A    between atoms: C_27  and  C_34
REMARK   12  A    between atoms: C_28  and  C_29
REMARK   13  A    between atoms: C_30  and  C_31
REMARK   14  A    between atoms: C_30  and  C_32
REMARK   15  A    between atoms: O_36  and  C_37
REMARK   16  A    between atoms: C_37  and  C_38
REMARK   17  A    between atoms: C_38  and  C_39
REMARK   18  A    between atoms: C_39  and  C_40
REMARK                            x       y       z     vdW  Elec       q    Type
REMARK                         _______ _______ _______ _____ _____    ______ ____
ROOT
ATOM      1  C   LIG A   1      -9.311   2.515 132.837  0.00  0.00    +0.008 C 
ATOM      2  C   LIG A   1      -9.193   1.737 131.515  0.00  0.00    -0.005 C 
ATOM      3  C   LIG A   1      -9.010   0.204 131.798  0.00  0.00    +0.036 C 
ATOM      4  C   LIG A   1      -7.566  -0.327 132.042  0.00  0.00    +0.131 C 
ATOM      5  C   LIG A   1      -6.486   0.255 131.058  0.00  0.00    +0.089 C 
ATOM      6  C   LIG A   1      -5.044  -0.045 131.429  0.00  0.00    +0.012 C 
ATOM      7  C   LIG A   1      -4.713  -1.433 131.041  0.00  0.00    +0.343 C 
ATOM      8  O   LIG A   1      -5.487  -1.633 129.861  0.00  0.00    -0.297 OA
ATOM      9  C   LIG A   1      -6.462  -0.563 129.727  0.00  0.00    +0.327 C 
ATOM     10  C   LIG A   1      -4.081   0.831 131.767  0.00  0.00    +0.023 C 
ATOM     11  C   LIG A   1      -4.287   2.306 131.753  0.00  0.00    +0.200 C 
ATOM     12  C   LIG A   1      -5.425   2.616 130.731  0.00  0.00    +0.054 C 
ATOM     13  C   LIG A   1      -6.715   1.811 131.056  0.00  0.00    +0.018 C 
ATOM     14  C   LIG A   1      -8.119   2.293 130.484  0.00  0.00    -0.022 C 
ATOM     15  C   LIG A   1      -8.506   1.690 129.107  0.00  0.00    +0.012 C 
ENDROOT
BRANCH   4  16
ATOM     16  O   LIG A   1      -7.254  -0.002 133.404  0.00  0.00    -0.391 OA
ATOM     17  H   LIG A   1      -7.739  -0.620 133.989  0.00  0.00    +0.210 HD
ENDBRANCH   4  16
BRANCH   9  18
ATOM     18  O   LIG A   1      -7.711  -1.203 129.448  0.00  0.00    -0.434 OA
BRANCH  18  19
ATOM     19  C   LIG A   1      -7.747  -2.040 128.395  0.00  0.00    +0.306 C 
ATOM     20  C   LIG A   1      -8.322  -3.359 128.809  0.00  0.00    +0.136 C 
ATOM     21  O   LIG A   1      -7.424  -1.758 127.240  0.00  0.00    -0.251 OA
ENDBRANCH  18  19
ENDBRANCH   9  18
BRANCH   7  22
ATOM     22  O   LIG A   1      -5.023  -2.417 132.016  0.00  0.00    -0.431 OA
BRANCH  22  23
ATOM     23  C   LIG A   1      -4.437  -3.628 131.792  0.00  0.00    +0.306 C 
ATOM     24  C   LIG A   1      -5.493  -4.677 131.617  0.00  0.00    +0.136 C 
ATOM     25  O   LIG A   1      -3.254  -3.858 131.765  0.00  0.00    -0.251 OA
ENDBRANCH  22  23
ENDBRANCH   7  22
BRANCH  14  26
ATOM     26  C   LIG A   1      -8.129   3.871 130.297  0.00  0.00    +0.034 C 
BRANCH  26  27
ATOM     27  C   LIG A   1      -9.425   4.513 129.831  0.00  0.00    -0.023 C 
ATOM     28  C   LIG A   1     -10.047   5.617 130.301  0.00  0.00    -0.055 C 
ATOM     29  C   LIG A   1     -11.318   6.131 129.665  0.00  0.00    +0.043 C 
BRANCH  28  30
ATOM     30  C   LIG A   1      -9.617   6.388 131.454  0.00  0.00    -0.005 C 
ATOM     31  C   LIG A   1      -9.980   6.118 132.715  0.00  0.00    +0.008 C 
ENDBRANCH  28  30
ENDBRANCH  26  27
ENDBRANCH  14  26
BRANCH  11  32
ATOM     32  O   LIG A   1      -4.615   2.723 133.095  0.00  0.00    -0.457 OA
BRANCH  32  33
ATOM     33  C   LIG A   1      -4.173   3.944 133.465  0.00  0.00    +0.308 C 
ATOM     34  O   LIG A   1      -3.034   4.394 133.269  0.00  0.00    -0.251 OA
BRANCH  33  35
ATOM     35  C   LIG A   1      -5.241   4.738 134.206  0.00  0.00    +0.120 C 
BRANCH  35  36
ATOM     36  C   LIG A   1      -6.394   5.161 133.303  0.00  0.00    +0.008 C 
ATOM     37  C   LIG A   1      -5.948   6.122 132.207  0.00  0.00    +0.004 C 
ENDBRANCH  35  36
ENDBRANCH  33  35
ENDBRANCH  32  33
ENDBRANCH  11  32
TORSDOF 12
ENDMDL
