MODEL 1
REMARK VINA RESULT:      -6.6      0.000      0.000
REMARK  Name = NuBBE_1338
REMARK  5 active torsions:
REMARK  status: ('A' for Active; 'I' for Inactive)
REMARK    1  A    between atoms: C_1  and  C_2
REMARK    2  A    between atoms: C_5  and  C_6
REMARK    3  A    between atoms: C_6  and  C_7
REMARK    4  A    between atoms: C_6  and  C_8
REMARK    5  A    between atoms: C_11  and  C_12
REMARK                            x       y       z     vdW  Elec       q    Type
REMARK                         _______ _______ _______ _____ _____    ______ ____
ROOT
ATOM      1  C   LIG A   1      -9.448  -3.275 123.472  0.00  0.00    +0.044 C 
ATOM      2  C   LIG A   1      -9.000  -2.131 124.336  0.00  0.00    -0.047 C 
ATOM      3  C   LIG A   1      -8.929  -0.878 123.851  0.00  0.00    -0.022 C 
ATOM      4  C   LIG A   1      -8.479   0.291 124.674  0.00  0.00    +0.036 C 
ATOM      5  C   LIG A   1      -7.533  -0.082 125.837  0.00  0.00    +0.026 C 
ATOM      6  C   LIG A   1      -7.989  -1.373 126.505  0.00  0.00    -0.036 A 
ATOM      7  C   LIG A   1      -7.732  -1.577 127.873  0.00  0.00    +0.007 A 
ATOM      8  C   LIG A   1      -8.093  -2.768 128.510  0.00  0.00    -0.050 A 
ATOM      9  C   LIG A   1      -7.834  -2.959 129.975  0.00  0.00    +0.044 C 
ATOM     10  C   LIG A   1      -8.750  -3.752 127.771  0.00  0.00    +0.004 A 
ATOM     11  C   LIG A   1      -9.030  -3.554 126.416  0.00  0.00    +0.009 A 
ATOM     12  C   LIG A   1      -8.666  -2.365 125.763  0.00  0.00    -0.019 A 
ENDROOT
BRANCH   5  13
ATOM     13  C   LIG A   1      -6.031  -0.069 125.400  0.00  0.00    -0.010 C 
ATOM     14  C   LIG A   1      -5.137   0.695 126.385  0.00  0.00    +0.008 C 
ATOM     15  C   LIG A   1      -5.418  -1.444 125.125  0.00  0.00    +0.008 C 
ENDBRANCH   5  13
TORSDOF 1
ENDMDL
MODEL 2
REMARK VINA RESULT:      -6.4      1.955      4.188
REMARK  Name = NuBBE_1338
REMARK  5 active torsions:
REMARK  status: ('A' for Active; 'I' for Inactive)
REMARK    1  A    between atoms: C_1  and  C_2
REMARK    2  A    between atoms: C_5  and  C_6
REMARK    3  A    between atoms: C_6  and  C_7
REMARK    4  A    between atoms: C_6  and  C_8
REMARK    5  A    between atoms: C_11  and  C_12
REMARK                            x       y       z     vdW  Elec       q    Type
REMARK                         _______ _______ _______ _____ _____    ______ ____
ROOT
ATOM      1  C   LIG A   1      -8.246   0.571 123.546  0.00  0.00    +0.044 C 
ATOM      2  C   LIG A   1      -8.267  -0.721 124.311  0.00  0.00    -0.047 C 
ATOM      3  C   LIG A   1      -9.278  -1.020 125.146  0.00  0.00    -0.022 C 
ATOM      4  C   LIG A   1      -9.336  -2.293 125.935  0.00  0.00    +0.036 C 
ATOM      5  C   LIG A   1      -7.953  -2.915 126.232  0.00  0.00    +0.026 C 
ATOM      6  C   LIG A   1      -7.040  -2.793 125.019  0.00  0.00    -0.036 A 
ATOM      7  C   LIG A   1      -6.047  -3.765 124.795  0.00  0.00    +0.007 A 
ATOM      8  C   LIG A   1      -5.160  -3.661 123.720  0.00  0.00    -0.050 A 
ATOM      9  C   LIG A   1      -4.124  -4.719 123.481  0.00  0.00    +0.044 C 
ATOM     10  C   LIG A   1      -5.292  -2.587 122.840  0.00  0.00    +0.004 A 
ATOM     11  C   LIG A   1      -6.288  -1.626 123.040  0.00  0.00    +0.009 A 
ATOM     12  C   LIG A   1      -7.181  -1.714 124.119  0.00  0.00    -0.019 A 
ENDROOT
BRANCH   5  13
ATOM     13  C   LIG A   1      -7.341  -2.376 127.566  0.00  0.00    -0.010 C 
ATOM     14  C   LIG A   1      -7.677  -3.265 128.771  0.00  0.00    +0.008 C 
ATOM     15  C   LIG A   1      -5.832  -2.118 127.537  0.00  0.00    +0.008 C 
ENDBRANCH   5  13
TORSDOF 1
ENDMDL
MODEL 3
REMARK VINA RESULT:      -6.3      1.537      4.629
REMARK  Name = NuBBE_1338
REMARK  5 active torsions:
REMARK  status: ('A' for Active; 'I' for Inactive)
REMARK    1  A    between atoms: C_1  and  C_2
REMARK    2  A    between atoms: C_5  and  C_6
REMARK    3  A    between atoms: C_6  and  C_7
REMARK    4  A    between atoms: C_6  and  C_8
REMARK    5  A    between atoms: C_11  and  C_12
REMARK                            x       y       z     vdW  Elec       q    Type
REMARK                         _______ _______ _______ _____ _____    ______ ____
ROOT
ATOM      1  C   LIG A   1      -6.210  -2.379 129.008  0.00  0.00    +0.044 C 
ATOM      2  C   LIG A   1      -7.423  -2.467 128.127  0.00  0.00    -0.047 C 
ATOM      3  C   LIG A   1      -8.200  -3.565 128.119  0.00  0.00    -0.022 C 
ATOM      4  C   LIG A   1      -9.415  -3.699 127.251  0.00  0.00    +0.036 C 
ATOM      5  C   LIG A   1      -9.368  -2.845 125.964  0.00  0.00    +0.026 C 
ATOM      6  C   LIG A   1      -8.767  -1.476 126.252  0.00  0.00    -0.036 A 
ATOM      7  C   LIG A   1      -9.171  -0.363 125.491  0.00  0.00    +0.007 A 
ATOM      8  C   LIG A   1      -8.607   0.899 125.694  0.00  0.00    -0.050 A 
ATOM      9  C   LIG A   1      -9.068   2.079 124.891  0.00  0.00    +0.044 C 
ATOM     10  C   LIG A   1      -7.650   1.054 126.697  0.00  0.00    +0.004 A 
ATOM     11  C   LIG A   1      -7.254  -0.039 127.475  0.00  0.00    +0.009 A 
ATOM     12  C   LIG A   1      -7.807  -1.313 127.276  0.00  0.00    -0.019 A 
ENDROOT
BRANCH   5  13
ATOM     13  C   LIG A   1      -8.704  -3.612 124.773  0.00  0.00    -0.010 C 
ATOM     14  C   LIG A   1      -9.472  -3.436 123.457  0.00  0.00    +0.008 C 
ATOM     15  C   LIG A   1      -7.224  -3.299 124.538  0.00  0.00    +0.008 C 
ENDBRANCH   5  13
TORSDOF 1
ENDMDL
MODEL 4
REMARK VINA RESULT:      -6.2     14.955     17.051
REMARK  Name = NuBBE_1338
REMARK  5 active torsions:
REMARK  status: ('A' for Active; 'I' for Inactive)
REMARK    1  A    between atoms: C_1  and  C_2
REMARK    2  A    between atoms: C_5  and  C_6
REMARK    3  A    between atoms: C_6  and  C_7
REMARK    4  A    between atoms: C_6  and  C_8
REMARK    5  A    between atoms: C_11  and  C_12
REMARK                            x       y       z     vdW  Elec       q    Type
REMARK                         _______ _______ _______ _____ _____    ______ ____
ROOT
ATOM      1  C   LIG A   1      -9.755  10.851 140.676  0.00  0.00    +0.044 C 
ATOM      2  C   LIG A   1      -9.326  10.198 139.394  0.00  0.00    -0.047 C 
ATOM      3  C   LIG A   1     -10.209   9.549 138.614  0.00  0.00    -0.022 C 
ATOM      4  C   LIG A   1      -9.825   8.877 137.330  0.00  0.00    +0.036 C 
ATOM      5  C   LIG A   1      -8.349   8.423 137.274  0.00  0.00    +0.026 C 
ATOM      6  C   LIG A   1      -7.441   9.472 137.903  0.00  0.00    -0.036 A 
ATOM      7  C   LIG A   1      -6.120   9.617 137.442  0.00  0.00    +0.007 A 
ATOM      8  C   LIG A   1      -5.243  10.535 138.027  0.00  0.00    -0.050 A 
ATOM      9  C   LIG A   1      -3.846  10.694 137.507  0.00  0.00    +0.044 C 
ATOM     10  C   LIG A   1      -5.710  11.341 139.066  0.00  0.00    +0.004 A 
ATOM     11  C   LIG A   1      -7.027  11.222 139.520  0.00  0.00    +0.009 A 
ATOM     12  C   LIG A   1      -7.915  10.299 138.945  0.00  0.00    -0.019 A 
ENDROOT
BRANCH   5  13
ATOM     13  C   LIG A   1      -8.157   6.975 137.832  0.00  0.00    -0.010 C 
ATOM     14  C   LIG A   1      -7.449   6.047 136.836  0.00  0.00    +0.008 C 
ATOM     15  C   LIG A   1      -7.457   6.884 139.190  0.00  0.00    +0.008 C 
ENDBRANCH   5  13
TORSDOF 1
ENDMDL
MODEL 5
REMARK VINA RESULT:      -6.1      1.994      4.406
REMARK  Name = NuBBE_1338
REMARK  5 active torsions:
REMARK  status: ('A' for Active; 'I' for Inactive)
REMARK    1  A    between atoms: C_1  and  C_2
REMARK    2  A    between atoms: C_5  and  C_6
REMARK    3  A    between atoms: C_6  and  C_7
REMARK    4  A    between atoms: C_6  and  C_8
REMARK    5  A    between atoms: C_11  and  C_12
REMARK                            x       y       z     vdW  Elec       q    Type
REMARK                         _______ _______ _______ _____ _____    ______ ____
ROOT
ATOM      1  C   LIG A   1      -9.763  -3.526 123.598  0.00  0.00    +0.044 C 
ATOM      2  C   LIG A   1      -8.503  -2.710 123.641  0.00  0.00    -0.047 C 
ATOM      3  C   LIG A   1      -7.307  -3.285 123.861  0.00  0.00    -0.022 C 
ATOM      4  C   LIG A   1      -6.027  -2.508 123.920  0.00  0.00    +0.036 C 
ATOM      5  C   LIG A   1      -6.202  -1.034 124.347  0.00  0.00    +0.026 C 
ATOM      6  C   LIG A   1      -7.445  -0.434 123.703  0.00  0.00    -0.036 A 
ATOM      7  C   LIG A   1      -7.483   0.942 123.410  0.00  0.00    +0.007 A 
ATOM      8  C   LIG A   1      -8.623   1.537 122.863  0.00  0.00    -0.050 A 
ATOM      9  C   LIG A   1      -8.637   2.999 122.533  0.00  0.00    +0.044 C 
ATOM     10  C   LIG A   1      -9.727   0.734 122.574  0.00  0.00    +0.004 A 
ATOM     11  C   LIG A   1      -9.695  -0.639 122.840  0.00  0.00    +0.009 A 
ATOM     12  C   LIG A   1      -8.559  -1.246 123.397  0.00  0.00    -0.019 A 
ENDROOT
BRANCH   5  13
ATOM     13  C   LIG A   1      -6.123  -0.857 125.899  0.00  0.00    -0.010 C 
ATOM     14  C   LIG A   1      -5.261   0.342 126.313  0.00  0.00    +0.008 C 
ATOM     15  C   LIG A   1      -7.472  -0.781 126.619  0.00  0.00    +0.008 C 
ENDBRANCH   5  13
TORSDOF 1
ENDMDL
MODEL 6
REMARK VINA RESULT:      -5.9      2.155      4.417
REMARK  Name = NuBBE_1338
REMARK  5 active torsions:
REMARK  status: ('A' for Active; 'I' for Inactive)
REMARK    1  A    between atoms: C_1  and  C_2
REMARK    2  A    between atoms: C_5  and  C_6
REMARK    3  A    between atoms: C_6  and  C_7
REMARK    4  A    between atoms: C_6  and  C_8
REMARK    5  A    between atoms: C_11  and  C_12
REMARK                            x       y       z     vdW  Elec       q    Type
REMARK                         _______ _______ _______ _____ _____    ______ ____
ROOT
ATOM      1  C   LIG A   1      -7.612  -0.244 127.336  0.00  0.00    +0.044 C 
ATOM      2  C   LIG A   1      -7.375  -0.293 125.854  0.00  0.00    -0.047 C 
ATOM      3  C   LIG A   1      -7.831   0.679 125.044  0.00  0.00    -0.022 C 
ATOM      4  C   LIG A   1      -7.625   0.667 123.559  0.00  0.00    +0.036 C 
ATOM      5  C   LIG A   1      -7.452  -0.745 122.957  0.00  0.00    +0.026 C 
ATOM      6  C   LIG A   1      -6.594  -1.614 123.868  0.00  0.00    -0.036 A 
ATOM      7  C   LIG A   1      -5.798  -2.632 123.311  0.00  0.00    +0.007 A 
ATOM      8  C   LIG A   1      -5.034  -3.480 124.118  0.00  0.00    -0.050 A 
ATOM      9  C   LIG A   1      -4.172  -4.544 123.507  0.00  0.00    +0.044 C 
ATOM     10  C   LIG A   1      -5.044  -3.281 125.499  0.00  0.00    +0.004 A 
ATOM     11  C   LIG A   1      -5.814  -2.259 126.063  0.00  0.00    +0.009 A 
ATOM     12  C   LIG A   1      -6.590  -1.407 125.264  0.00  0.00    -0.019 A 
ENDROOT
BRANCH   5  13
ATOM     13  C   LIG A   1      -8.821  -1.382 122.549  0.00  0.00    -0.010 C 
ATOM     14  C   LIG A   1      -9.190  -2.593 123.415  0.00  0.00    +0.008 C 
ATOM     15  C   LIG A   1     -10.006  -0.413 122.508  0.00  0.00    +0.008 C 
ENDBRANCH   5  13
TORSDOF 1
ENDMDL
MODEL 7
REMARK VINA RESULT:      -5.9      1.812      3.800
REMARK  Name = NuBBE_1338
REMARK  5 active torsions:
REMARK  status: ('A' for Active; 'I' for Inactive)
REMARK    1  A    between atoms: C_1  and  C_2
REMARK    2  A    between atoms: C_5  and  C_6
REMARK    3  A    between atoms: C_6  and  C_7
REMARK    4  A    between atoms: C_6  and  C_8
REMARK    5  A    between atoms: C_11  and  C_12
REMARK                            x       y       z     vdW  Elec       q    Type
REMARK                         _______ _______ _______ _____ _____    ______ ____
ROOT
ATOM      1  C   LIG A   1      -7.137   1.576 123.979  0.00  0.00    +0.044 C 
ATOM      2  C   LIG A   1      -6.888   0.096 124.041  0.00  0.00    -0.047 C 
ATOM      3  C   LIG A   1      -7.076  -0.687 122.964  0.00  0.00    -0.022 C 
ATOM      4  C   LIG A   1      -6.848  -2.169 122.983  0.00  0.00    +0.036 C 
ATOM      5  C   LIG A   1      -7.012  -2.814 124.377  0.00  0.00    +0.026 C 
ATOM      6  C   LIG A   1      -6.410  -1.922 125.455  0.00  0.00    -0.036 A 
ATOM      7  C   LIG A   1      -5.874  -2.502 126.620  0.00  0.00    +0.007 A 
ATOM      8  C   LIG A   1      -5.356  -1.713 127.651  0.00  0.00    -0.050 A 
ATOM      9  C   LIG A   1      -4.766  -2.348 128.874  0.00  0.00    +0.044 C 
ATOM     10  C   LIG A   1      -5.346  -0.327 127.496  0.00  0.00    +0.004 A 
ATOM     11  C   LIG A   1      -5.856   0.261 126.334  0.00  0.00    +0.009 A 
ATOM     12  C   LIG A   1      -6.385  -0.519 125.295  0.00  0.00    -0.019 A 
ENDROOT
BRANCH   5  13
ATOM     13  C   LIG A   1      -8.486  -3.261 124.649  0.00  0.00    -0.010 C 
ATOM     14  C   LIG A   1      -9.156  -2.442 125.759  0.00  0.00    +0.008 C 
ATOM     15  C   LIG A   1      -9.399  -3.285 123.420  0.00  0.00    +0.008 C 
ENDBRANCH   5  13
TORSDOF 1
ENDMDL
MODEL 8
REMARK VINA RESULT:      -5.9     17.238     19.190
REMARK  Name = NuBBE_1338
REMARK  5 active torsions:
REMARK  status: ('A' for Active; 'I' for Inactive)
REMARK    1  A    between atoms: C_1  and  C_2
REMARK    2  A    between atoms: C_5  and  C_6
REMARK    3  A    between atoms: C_6  and  C_7
REMARK    4  A    between atoms: C_6  and  C_8
REMARK    5  A    between atoms: C_11  and  C_12
REMARK                            x       y       z     vdW  Elec       q    Type
REMARK                         _______ _______ _______ _____ _____    ______ ____
ROOT
ATOM      1  C   LIG A   1      -5.795  13.193 139.764  0.00  0.00    +0.044 C 
ATOM      2  C   LIG A   1      -7.230  12.752 139.730  0.00  0.00    -0.047 C 
ATOM      3  C   LIG A   1      -8.224  13.587 140.082  0.00  0.00    -0.022 C 
ATOM      4  C   LIG A   1      -9.669  13.187 140.072  0.00  0.00    +0.036 C 
ATOM      5  C   LIG A   1      -9.905  11.672 140.261  0.00  0.00    +0.026 C 
ATOM      6  C   LIG A   1      -8.871  10.868 139.485  0.00  0.00    -0.036 A 
ATOM      7  C   LIG A   1      -9.210   9.597 138.983  0.00  0.00    +0.007 A 
ATOM      8  C   LIG A   1      -8.273   8.810 138.308  0.00  0.00    -0.050 A 
ATOM      9  C   LIG A   1      -8.658   7.469 137.758  0.00  0.00    +0.044 C 
ATOM     10  C   LIG A   1      -6.991   9.319 138.103  0.00  0.00    +0.004 A 
ATOM     11  C   LIG A   1      -6.647  10.589 138.577  0.00  0.00    +0.009 A 
ATOM     12  C   LIG A   1      -7.576  11.386 139.263  0.00  0.00    -0.019 A 
ENDROOT
BRANCH   5  13
ATOM     13  C   LIG A   1     -10.037  11.282 141.770  0.00  0.00    -0.010 C 
ATOM     14  C   LIG A   1      -8.753  10.657 142.332  0.00  0.00    +0.008 C 
ATOM     15  C   LIG A   1     -10.497  12.407 142.699  0.00  0.00    +0.008 C 
ENDBRANCH   5  13
TORSDOF 1
ENDMDL
MODEL 9
REMARK VINA RESULT:      -5.8      1.597      4.451
REMARK  Name = NuBBE_1338
REMARK  5 active torsions:
REMARK  status: ('A' for Active; 'I' for Inactive)
REMARK    1  A    between atoms: C_1  and  C_2
REMARK    2  A    between atoms: C_5  and  C_6
REMARK    3  A    between atoms: C_6  and  C_7
REMARK    4  A    between atoms: C_6  and  C_8
REMARK    5  A    between atoms: C_11  and  C_12
REMARK                            x       y       z     vdW  Elec       q    Type
REMARK                         _______ _______ _______ _____ _____    ______ ____
ROOT
ATOM      1  C   LIG A   1      -5.116  -2.876 123.247  0.00  0.00    +0.044 C 
ATOM      2  C   LIG A   1      -5.716  -2.367 124.526  0.00  0.00    -0.047 C 
ATOM      3  C   LIG A   1      -5.188  -2.690 125.720  0.00  0.00    -0.022 C 
ATOM      4  C   LIG A   1      -5.758  -2.212 127.021  0.00  0.00    +0.036 C 
ATOM      5  C   LIG A   1      -7.269  -1.893 126.968  0.00  0.00    +0.026 C 
ATOM      6  C   LIG A   1      -7.624  -1.196 125.662  0.00  0.00    -0.036 A 
ATOM      7  C   LIG A   1      -8.695  -0.283 125.628  0.00  0.00    +0.007 A 
ATOM      8  C   LIG A   1      -9.080   0.340 124.437  0.00  0.00    -0.050 A 
ATOM      9  C   LIG A   1     -10.207   1.329 124.424  0.00  0.00    +0.044 C 
ATOM     10  C   LIG A   1      -8.360   0.069 123.274  0.00  0.00    +0.004 A 
ATOM     11  C   LIG A   1      -7.280  -0.819 123.298  0.00  0.00    +0.009 A 
ATOM     12  C   LIG A   1      -6.888  -1.457 124.485  0.00  0.00    -0.019 A 
ENDROOT
BRANCH   5  13
ATOM     13  C   LIG A   1      -8.146  -3.145 127.298  0.00  0.00    -0.010 C 
ATOM     14  C   LIG A   1      -8.505  -3.238 128.787  0.00  0.00    +0.008 C 
ATOM     15  C   LIG A   1      -9.421  -3.290 126.463  0.00  0.00    +0.008 C 
ENDBRANCH   5  13
TORSDOF 1
ENDMDL
