MODEL 1
REMARK VINA RESULT:      -5.5      0.000      0.000
REMARK  Name = NuBBE_1802
REMARK  16 active torsions:
REMARK  status: ('A' for Active; 'I' for Inactive)
REMARK    1  A    between atoms: C_4  and  C_5
REMARK    2  A    between atoms: C_5  and  C_6
REMARK    3  A    between atoms: C_6  and  O_7
REMARK    4  A    between atoms: C_6  and  C_9
REMARK    5  A    between atoms: O_7  and  C_8
REMARK    6  A    between atoms: C_9  and  O_10
REMARK    7  A    between atoms: O_10  and  C_11
REMARK    8  A    between atoms: C_13  and  C_14
REMARK    9  A    between atoms: C_14  and  C_15
REMARK   10  A    between atoms: C_15  and  C_16
REMARK   11  A    between atoms: C_16  and  C_17
REMARK   12  A    between atoms: C_17  and  C_18
REMARK   13  A    between atoms: C_18  and  C_19
REMARK   14  A    between atoms: C_19  and  C_20
REMARK   15  A    between atoms: C_20  and  C_21
REMARK   16  A    between atoms: C_21  and  C_22
REMARK                            x       y       z     vdW  Elec       q    Type
REMARK                         _______ _______ _______ _____ _____    ______ ____
ROOT
ATOM      1  O   LIG A   1     -10.750   1.077 124.191  0.00  0.00    -0.251 OA
ATOM      2  C   LIG A   1      -9.568   1.133 124.517  0.00  0.00    +0.311 C 
ATOM      3  O   LIG A   1      -9.138   1.184 125.815  0.00  0.00    -0.461 OA
ATOM      4  C   LIG A   1      -8.394   1.217 123.569  0.00  0.00    +0.104 C 
ATOM      5  C   LIG A   1      -7.285   0.749 124.498  0.00  0.00    +0.059 C 
ATOM      6  C   LIG A   1      -7.716   1.340 125.821  0.00  0.00    +0.177 C 
ENDROOT
BRANCH   4   7
ATOM      7  C   LIG A   1      -8.277   2.667 123.057  0.00  0.00    +0.048 C 
BRANCH   7   8
ATOM      8  C   LIG A   1      -6.959   3.004 122.331  0.00  0.00    +0.144 C 
BRANCH   8   9
ATOM      9  O   LIG A   1      -7.352   3.678 121.127  0.00  0.00    -0.378 OA
ATOM     10  C   LIG A   1      -8.747   3.649 120.866  0.00  0.00    +0.194 C 
ENDBRANCH   8   9
BRANCH   8  11
ATOM     11  C   LIG A   1      -6.068   3.886 123.247  0.00  0.00    +0.191 C 
BRANCH  11  12
ATOM     12  O   LIG A   1      -6.789   4.359 124.394  0.00  0.00    -0.380 OA
ATOM     13  C   LIG A   1      -5.903   4.758 125.437  0.00  0.00    +0.194 C 
ENDBRANCH  11  12
ENDBRANCH   8  11
ENDBRANCH   7   8
ENDBRANCH   4   7
BRANCH   6  14
ATOM     14  C   LIG A   1      -7.085   0.645 127.021  0.00  0.00    +0.045 C 
BRANCH  14  15
ATOM     15  C   LIG A   1      -7.924  -0.547 127.484  0.00  0.00    +0.003 C 
BRANCH  15  16
ATOM     16  C   LIG A   1      -7.186  -1.858 127.227  0.00  0.00    +0.000 C 
BRANCH  16  17
ATOM     17  C   LIG A   1      -8.161  -2.981 126.888  0.00  0.00    -0.000 C 
BRANCH  17  18
ATOM     18  C   LIG A   1      -9.251  -2.477 125.946  0.00  0.00    +0.000 C 
BRANCH  18  19
ATOM     19  C   LIG A   1      -8.793  -2.558 124.494  0.00  0.00    +0.000 C 
BRANCH  19  20
ATOM     20  C   LIG A   1      -7.613  -3.519 124.340  0.00  0.00    +0.004 C 
BRANCH  20  21
ATOM     21  C   LIG A   1      -6.398  -2.844 123.702  0.00  0.00    +0.026 C 
BRANCH  21  22
ATOM     22  C   LIG A   1      -5.106  -3.421 124.203  0.00  0.00    -0.035 C 
ATOM     23  C   LIG A   1      -4.534  -4.517 123.691  0.00  0.00    +0.004 C 
ENDBRANCH  21  22
ENDBRANCH  20  21
ENDBRANCH  19  20
ENDBRANCH  18  19
ENDBRANCH  17  18
ENDBRANCH  16  17
ENDBRANCH  15  16
ENDBRANCH  14  15
ENDBRANCH   6  14
TORSDOF 14
ENDMDL
MODEL 2
REMARK VINA RESULT:      -5.5      1.583      3.006
REMARK  Name = NuBBE_1802
REMARK  16 active torsions:
REMARK  status: ('A' for Active; 'I' for Inactive)
REMARK    1  A    between atoms: C_4  and  C_5
REMARK    2  A    between atoms: C_5  and  C_6
REMARK    3  A    between atoms: C_6  and  O_7
REMARK    4  A    between atoms: C_6  and  C_9
REMARK    5  A    between atoms: O_7  and  C_8
REMARK    6  A    between atoms: C_9  and  O_10
REMARK    7  A    between atoms: O_10  and  C_11
REMARK    8  A    between atoms: C_13  and  C_14
REMARK    9  A    between atoms: C_14  and  C_15
REMARK   10  A    between atoms: C_15  and  C_16
REMARK   11  A    between atoms: C_16  and  C_17
REMARK   12  A    between atoms: C_17  and  C_18
REMARK   13  A    between atoms: C_18  and  C_19
REMARK   14  A    between atoms: C_19  and  C_20
REMARK   15  A    between atoms: C_20  and  C_21
REMARK   16  A    between atoms: C_21  and  C_22
REMARK                            x       y       z     vdW  Elec       q    Type
REMARK                         _______ _______ _______ _____ _____    ______ ____
ROOT
ATOM      1  O   LIG A   1     -10.514   0.972 122.261  0.00  0.00    -0.251 OA
ATOM      2  C   LIG A   1      -9.719   0.228 122.825  0.00  0.00    +0.311 C 
ATOM      3  O   LIG A   1      -9.980  -1.084 123.116  0.00  0.00    -0.461 OA
ATOM      4  C   LIG A   1      -8.358   0.623 123.349  0.00  0.00    +0.104 C 
ATOM      5  C   LIG A   1      -7.713  -0.750 123.439  0.00  0.00    +0.059 C 
ATOM      6  C   LIG A   1      -8.879  -1.617 123.857  0.00  0.00    +0.177 C 
ENDROOT
BRANCH   4   7
ATOM      7  C   LIG A   1      -8.544   1.369 124.687  0.00  0.00    +0.048 C 
BRANCH   7   8
ATOM      8  C   LIG A   1      -8.627   2.905 124.577  0.00  0.00    +0.144 C 
BRANCH   8   9
ATOM      9  O   LIG A   1      -8.547   3.385 125.926  0.00  0.00    -0.378 OA
ATOM     10  C   LIG A   1      -8.199   2.396 126.883  0.00  0.00    +0.194 C 
ENDBRANCH   8   9
BRANCH   8  11
ATOM     11  C   LIG A   1      -7.469   3.429 123.686  0.00  0.00    +0.191 C 
BRANCH  11  12
ATOM     12  O   LIG A   1      -6.611   4.328 124.405  0.00  0.00    -0.380 OA
ATOM     13  C   LIG A   1      -5.376   3.703 124.750  0.00  0.00    +0.194 C 
ENDBRANCH  11  12
ENDBRANCH   8  11
ENDBRANCH   7   8
ENDBRANCH   4   7
BRANCH   6  14
ATOM     14  C   LIG A   1      -8.666  -3.095 123.552  0.00  0.00    +0.045 C 
BRANCH  14  15
ATOM     15  C   LIG A   1      -8.533  -3.918 124.835  0.00  0.00    +0.003 C 
BRANCH  15  16
ATOM     16  C   LIG A   1      -9.173  -3.189 126.012  0.00  0.00    +0.000 C 
BRANCH  16  17
ATOM     17  C   LIG A   1      -8.292  -3.273 127.255  0.00  0.00    -0.000 C 
BRANCH  17  18
ATOM     18  C   LIG A   1      -8.024  -1.879 127.817  0.00  0.00    +0.000 C 
BRANCH  18  19
ATOM     19  C   LIG A   1      -6.923  -1.180 127.028  0.00  0.00    +0.000 C 
BRANCH  19  20
ATOM     20  C   LIG A   1      -5.781  -2.143 126.700  0.00  0.00    +0.004 C 
BRANCH  20  21
ATOM     21  C   LIG A   1      -5.171  -1.869 125.325  0.00  0.00    +0.026 C 
BRANCH  21  22
ATOM     22  C   LIG A   1      -4.966  -3.132 124.539  0.00  0.00    -0.035 C 
ATOM     23  C   LIG A   1      -4.951  -3.181 123.202  0.00  0.00    +0.004 C 
ENDBRANCH  21  22
ENDBRANCH  20  21
ENDBRANCH  19  20
ENDBRANCH  18  19
ENDBRANCH  17  18
ENDBRANCH  16  17
ENDBRANCH  15  16
ENDBRANCH  14  15
ENDBRANCH   6  14
TORSDOF 14
ENDMDL
MODEL 3
REMARK VINA RESULT:      -5.3      4.223      7.286
REMARK  Name = NuBBE_1802
REMARK  16 active torsions:
REMARK  status: ('A' for Active; 'I' for Inactive)
REMARK    1  A    between atoms: C_4  and  C_5
REMARK    2  A    between atoms: C_5  and  C_6
REMARK    3  A    between atoms: C_6  and  O_7
REMARK    4  A    between atoms: C_6  and  C_9
REMARK    5  A    between atoms: O_7  and  C_8
REMARK    6  A    between atoms: C_9  and  O_10
REMARK    7  A    between atoms: O_10  and  C_11
REMARK    8  A    between atoms: C_13  and  C_14
REMARK    9  A    between atoms: C_14  and  C_15
REMARK   10  A    between atoms: C_15  and  C_16
REMARK   11  A    between atoms: C_16  and  C_17
REMARK   12  A    between atoms: C_17  and  C_18
REMARK   13  A    between atoms: C_18  and  C_19
REMARK   14  A    between atoms: C_19  and  C_20
REMARK   15  A    between atoms: C_20  and  C_21
REMARK   16  A    between atoms: C_21  and  C_22
REMARK                            x       y       z     vdW  Elec       q    Type
REMARK                         _______ _______ _______ _____ _____    ______ ____
ROOT
ATOM      1  O   LIG A   1      -6.018  -0.473 129.626  0.00  0.00    -0.251 OA
ATOM      2  C   LIG A   1      -6.632  -1.535 129.605  0.00  0.00    +0.311 C 
ATOM      3  O   LIG A   1      -7.704  -1.777 128.789  0.00  0.00    -0.461 OA
ATOM      4  C   LIG A   1      -6.367  -2.727 130.494  0.00  0.00    +0.104 C 
ATOM      5  C   LIG A   1      -7.045  -3.812 129.674  0.00  0.00    +0.059 C 
ATOM      6  C   LIG A   1      -8.230  -3.072 129.096  0.00  0.00    +0.177 C 
ENDROOT
BRANCH   4   7
ATOM      7  C   LIG A   1      -6.980  -2.451 131.883  0.00  0.00    +0.048 C 
BRANCH   7   8
ATOM      8  C   LIG A   1      -5.966  -2.106 132.992  0.00  0.00    +0.144 C 
BRANCH   8   9
ATOM      9  O   LIG A   1      -4.675  -2.278 132.392  0.00  0.00    -0.378 OA
ATOM     10  C   LIG A   1      -3.820  -1.151 132.505  0.00  0.00    +0.194 C 
ENDBRANCH   8   9
BRANCH   8  11
ATOM     11  C   LIG A   1      -6.207  -0.655 133.490  0.00  0.00    +0.191 C 
BRANCH  11  12
ATOM     12  O   LIG A   1      -7.526  -0.194 133.163  0.00  0.00    -0.380 OA
ATOM     13  C   LIG A   1      -7.497   1.127 132.627  0.00  0.00    +0.194 C 
ENDBRANCH  11  12
ENDBRANCH   8  11
ENDBRANCH   7   8
ENDBRANCH   4   7
BRANCH   6  14
ATOM     14  C   LIG A   1      -8.811  -3.744 127.858  0.00  0.00    +0.045 C 
BRANCH  14  15
ATOM     15  C   LIG A   1      -8.323  -3.071 126.574  0.00  0.00    +0.003 C 
BRANCH  15  16
ATOM     16  C   LIG A   1      -9.457  -2.956 125.560  0.00  0.00    +0.000 C 
BRANCH  16  17
ATOM     17  C   LIG A   1      -8.998  -3.385 124.170  0.00  0.00    -0.000 C 
BRANCH  17  18
ATOM     18  C   LIG A   1      -8.834  -2.169 123.261  0.00  0.00    +0.000 C 
BRANCH  18  19
ATOM     19  C   LIG A   1      -7.403  -2.066 122.747  0.00  0.00    +0.000 C 
BRANCH  19  20
ATOM     20  C   LIG A   1      -6.523  -1.274 123.716  0.00  0.00    +0.004 C 
BRANCH  20  21
ATOM     21  C   LIG A   1      -5.438  -2.143 124.353  0.00  0.00    +0.026 C 
BRANCH  21  22
ATOM     22  C   LIG A   1      -4.954  -3.214 123.419  0.00  0.00    -0.035 C 
ATOM     23  C   LIG A   1      -4.538  -4.420 123.822  0.00  0.00    +0.004 C 
ENDBRANCH  21  22
ENDBRANCH  20  21
ENDBRANCH  19  20
ENDBRANCH  18  19
ENDBRANCH  17  18
ENDBRANCH  16  17
ENDBRANCH  15  16
ENDBRANCH  14  15
ENDBRANCH   6  14
TORSDOF 14
ENDMDL
MODEL 4
REMARK VINA RESULT:      -5.3      5.452      8.836
REMARK  Name = NuBBE_1802
REMARK  16 active torsions:
REMARK  status: ('A' for Active; 'I' for Inactive)
REMARK    1  A    between atoms: C_4  and  C_5
REMARK    2  A    between atoms: C_5  and  C_6
REMARK    3  A    between atoms: C_6  and  O_7
REMARK    4  A    between atoms: C_6  and  C_9
REMARK    5  A    between atoms: O_7  and  C_8
REMARK    6  A    between atoms: C_9  and  O_10
REMARK    7  A    between atoms: O_10  and  C_11
REMARK    8  A    between atoms: C_13  and  C_14
REMARK    9  A    between atoms: C_14  and  C_15
REMARK   10  A    between atoms: C_15  and  C_16
REMARK   11  A    between atoms: C_16  and  C_17
REMARK   12  A    between atoms: C_17  and  C_18
REMARK   13  A    between atoms: C_18  and  C_19
REMARK   14  A    between atoms: C_19  and  C_20
REMARK   15  A    between atoms: C_20  and  C_21
REMARK   16  A    between atoms: C_21  and  C_22
REMARK                            x       y       z     vdW  Elec       q    Type
REMARK                         _______ _______ _______ _____ _____    ______ ____
ROOT
ATOM      1  O   LIG A   1      -2.871  -3.665 129.705  0.00  0.00    -0.251 OA
ATOM      2  C   LIG A   1      -4.085  -3.573 129.854  0.00  0.00    +0.311 C 
ATOM      3  O   LIG A   1      -4.866  -2.663 129.194  0.00  0.00    -0.461 OA
ATOM      4  C   LIG A   1      -4.921  -4.386 130.815  0.00  0.00    +0.104 C 
ATOM      5  C   LIG A   1      -6.290  -4.196 130.183  0.00  0.00    +0.059 C 
ATOM      6  C   LIG A   1      -6.207  -2.773 129.679  0.00  0.00    +0.177 C 
ENDROOT
BRANCH   4   7
ATOM      7  C   LIG A   1      -4.747  -3.803 132.233  0.00  0.00    +0.048 C 
BRANCH   7   8
ATOM      8  C   LIG A   1      -5.883  -4.131 133.223  0.00  0.00    +0.144 C 
BRANCH   8   9
ATOM      9  O   LIG A   1      -5.697  -5.511 133.568  0.00  0.00    -0.378 OA
ATOM     10  C   LIG A   1      -5.290  -5.732 134.909  0.00  0.00    +0.194 C 
ENDBRANCH   8   9
BRANCH   8  11
ATOM     11  C   LIG A   1      -5.792  -3.189 134.454  0.00  0.00    +0.191 C 
BRANCH  11  12
ATOM     12  O   LIG A   1      -6.970  -2.381 134.592  0.00  0.00    -0.380 OA
ATOM     13  C   LIG A   1      -8.141  -3.186 134.719  0.00  0.00    +0.194 C 
ENDBRANCH  11  12
ENDBRANCH   8  11
ENDBRANCH   7   8
ENDBRANCH   4   7
BRANCH   6  14
ATOM     14  C   LIG A   1      -7.222  -2.466 128.584  0.00  0.00    +0.045 C 
BRANCH  14  15
ATOM     15  C   LIG A   1      -8.485  -3.315 128.736  0.00  0.00    +0.003 C 
BRANCH  15  16
ATOM     16  C   LIG A   1      -8.882  -3.936 127.401  0.00  0.00    +0.000 C 
BRANCH  16  17
ATOM     17  C   LIG A   1      -8.821  -2.908 126.276  0.00  0.00    -0.000 C 
BRANCH  17  18
ATOM     18  C   LIG A   1      -8.767  -3.602 124.917  0.00  0.00    +0.000 C 
BRANCH  18  19
ATOM     19  C   LIG A   1      -7.605  -3.073 124.084  0.00  0.00    +0.000 C 
BRANCH  19  20
ATOM     20  C   LIG A   1      -6.610  -2.300 124.952  0.00  0.00    +0.004 C 
BRANCH  20  21
ATOM     21  C   LIG A   1      -5.195  -2.328 124.373  0.00  0.00    +0.026 C 
BRANCH  21  22
ATOM     22  C   LIG A   1      -4.999  -3.470 123.418  0.00  0.00    -0.035 C 
ATOM     23  C   LIG A   1      -4.160  -4.488 123.639  0.00  0.00    +0.004 C 
ENDBRANCH  21  22
ENDBRANCH  20  21
ENDBRANCH  19  20
ENDBRANCH  18  19
ENDBRANCH  17  18
ENDBRANCH  16  17
ENDBRANCH  15  16
ENDBRANCH  14  15
ENDBRANCH   6  14
TORSDOF 14
ENDMDL
MODEL 5
REMARK VINA RESULT:      -5.2      9.243     11.833
REMARK  Name = NuBBE_1802
REMARK  16 active torsions:
REMARK  status: ('A' for Active; 'I' for Inactive)
REMARK    1  A    between atoms: C_4  and  C_5
REMARK    2  A    between atoms: C_5  and  C_6
REMARK    3  A    between atoms: C_6  and  O_7
REMARK    4  A    between atoms: C_6  and  C_9
REMARK    5  A    between atoms: O_7  and  C_8
REMARK    6  A    between atoms: C_9  and  O_10
REMARK    7  A    between atoms: O_10  and  C_11
REMARK    8  A    between atoms: C_13  and  C_14
REMARK    9  A    between atoms: C_14  and  C_15
REMARK   10  A    between atoms: C_15  and  C_16
REMARK   11  A    between atoms: C_16  and  C_17
REMARK   12  A    between atoms: C_17  and  C_18
REMARK   13  A    between atoms: C_18  and  C_19
REMARK   14  A    between atoms: C_19  and  C_20
REMARK   15  A    between atoms: C_20  and  C_21
REMARK   16  A    between atoms: C_21  and  C_22
REMARK                            x       y       z     vdW  Elec       q    Type
REMARK                         _______ _______ _______ _____ _____    ______ ____
ROOT
ATOM      1  O   LIG A   1      -6.827   6.702 130.646  0.00  0.00    -0.251 OA
ATOM      2  C   LIG A   1      -7.830   6.193 131.136  0.00  0.00    +0.311 C 
ATOM      3  O   LIG A   1      -7.844   4.962 131.734  0.00  0.00    -0.461 OA
ATOM      4  C   LIG A   1      -9.220   6.786 131.118  0.00  0.00    +0.104 C 
ATOM      5  C   LIG A   1      -9.845   6.000 132.258  0.00  0.00    +0.059 C 
ATOM      6  C   LIG A   1      -9.190   4.646 132.101  0.00  0.00    +0.177 C 
ENDROOT
BRANCH   4   7
ATOM      7  C   LIG A   1      -9.835   6.555 129.723  0.00  0.00    +0.048 C 
BRANCH   7   8
ATOM      8  C   LIG A   1     -10.651   7.737 129.160  0.00  0.00    +0.144 C 
BRANCH   8   9
ATOM      9  O   LIG A   1     -10.123   7.969 127.847  0.00  0.00    -0.378 OA
ATOM     10  C   LIG A   1     -10.929   7.469 126.792  0.00  0.00    +0.194 C 
ENDBRANCH   8   9
BRANCH   8  11
ATOM     11  C   LIG A   1     -12.159   7.370 129.142  0.00  0.00    +0.191 C 
BRANCH  11  12
ATOM     12  O   LIG A   1     -12.953   8.356 129.817  0.00  0.00    -0.380 OA
ATOM     13  C   LIG A   1     -13.044   9.560 129.059  0.00  0.00    +0.194 C 
ENDBRANCH  11  12
ENDBRANCH   8  11
ENDBRANCH   7   8
ENDBRANCH   4   7
BRANCH   6  14
ATOM     14  C   LIG A   1      -9.238   3.806 133.371  0.00  0.00    +0.045 C 
BRANCH  14  15
ATOM     15  C   LIG A   1      -7.900   3.834 134.113  0.00  0.00    +0.003 C 
BRANCH  15  16
ATOM     16  C   LIG A   1      -7.834   5.028 135.061  0.00  0.00    +0.000 C 
BRANCH  16  17
ATOM     17  C   LIG A   1      -6.540   5.018 135.868  0.00  0.00    -0.000 C 
BRANCH  17  18
ATOM     18  C   LIG A   1      -6.362   6.339 136.612  0.00  0.00    +0.000 C 
BRANCH  18  19
ATOM     19  C   LIG A   1      -6.764   6.196 138.075  0.00  0.00    +0.000 C 
BRANCH  19  20
ATOM     20  C   LIG A   1      -8.158   6.775 138.324  0.00  0.00    +0.004 C 
BRANCH  20  21
ATOM     21  C   LIG A   1      -8.412   8.043 137.507  0.00  0.00    +0.026 C 
BRANCH  21  22
ATOM     22  C   LIG A   1      -9.815   8.550 137.676  0.00  0.00    -0.035 C 
ATOM     23  C   LIG A   1     -10.121   9.699 138.287  0.00  0.00    +0.004 C 
ENDBRANCH  21  22
ENDBRANCH  20  21
ENDBRANCH  19  20
ENDBRANCH  18  19
ENDBRANCH  17  18
ENDBRANCH  16  17
ENDBRANCH  15  16
ENDBRANCH  14  15
ENDBRANCH   6  14
TORSDOF 14
ENDMDL
MODEL 6
REMARK VINA RESULT:      -5.2      5.730      8.667
REMARK  Name = NuBBE_1802
REMARK  16 active torsions:
REMARK  status: ('A' for Active; 'I' for Inactive)
REMARK    1  A    between atoms: C_4  and  C_5
REMARK    2  A    between atoms: C_5  and  C_6
REMARK    3  A    between atoms: C_6  and  O_7
REMARK    4  A    between atoms: C_6  and  C_9
REMARK    5  A    between atoms: O_7  and  C_8
REMARK    6  A    between atoms: C_9  and  O_10
REMARK    7  A    between atoms: O_10  and  C_11
REMARK    8  A    between atoms: C_13  and  C_14
REMARK    9  A    between atoms: C_14  and  C_15
REMARK   10  A    between atoms: C_15  and  C_16
REMARK   11  A    between atoms: C_16  and  C_17
REMARK   12  A    between atoms: C_17  and  C_18
REMARK   13  A    between atoms: C_18  and  C_19
REMARK   14  A    between atoms: C_19  and  C_20
REMARK   15  A    between atoms: C_20  and  C_21
REMARK   16  A    between atoms: C_21  and  C_22
REMARK                            x       y       z     vdW  Elec       q    Type
REMARK                         _______ _______ _______ _____ _____    ______ ____
ROOT
ATOM      1  O   LIG A   1      -3.068  -3.749 128.989  0.00  0.00    -0.251 OA
ATOM      2  C   LIG A   1      -4.144  -3.493 129.521  0.00  0.00    +0.311 C 
ATOM      3  O   LIG A   1      -5.106  -2.706 128.949  0.00  0.00    -0.461 OA
ATOM      4  C   LIG A   1      -4.576  -3.937 130.899  0.00  0.00    +0.104 C 
ATOM      5  C   LIG A   1      -6.080  -3.771 130.759  0.00  0.00    +0.059 C 
ATOM      6  C   LIG A   1      -6.179  -2.543 129.883  0.00  0.00    +0.177 C 
ENDROOT
BRANCH   4   7
ATOM      7  C   LIG A   1      -3.893  -3.030 131.944  0.00  0.00    +0.048 C 
BRANCH   7   8
ATOM      8  C   LIG A   1      -3.655  -3.679 133.323  0.00  0.00    +0.144 C 
BRANCH   8   9
ATOM      9  O   LIG A   1      -2.927  -4.884 133.052  0.00  0.00    -0.378 OA
ATOM     10  C   LIG A   1      -2.463  -5.563 134.209  0.00  0.00    +0.194 C 
ENDBRANCH   8   9
BRANCH   8  11
ATOM     11  C   LIG A   1      -2.870  -2.698 134.235  0.00  0.00    +0.191 C 
BRANCH  11  12
ATOM     12  O   LIG A   1      -1.887  -1.958 133.497  0.00  0.00    -0.380 OA
ATOM     13  C   LIG A   1      -1.977  -0.560 133.766  0.00  0.00    +0.194 C 
ENDBRANCH  11  12
ENDBRANCH   8  11
ENDBRANCH   7   8
ENDBRANCH   4   7
BRANCH   6  14
ATOM     14  C   LIG A   1      -7.522  -2.421 129.171  0.00  0.00    +0.045 C 
BRANCH  14  15
ATOM     15  C   LIG A   1      -8.108  -3.795 128.842  0.00  0.00    +0.003 C 
BRANCH  15  16
ATOM     16  C   LIG A   1      -9.033  -3.711 127.632  0.00  0.00    +0.000 C 
BRANCH  16  17
ATOM     17  C   LIG A   1      -8.356  -2.988 126.472  0.00  0.00    -0.000 C 
BRANCH  17  18
ATOM     18  C   LIG A   1      -9.278  -2.943 125.257  0.00  0.00    +0.000 C 
BRANCH  18  19
ATOM     19  C   LIG A   1      -8.527  -3.336 123.990  0.00  0.00    +0.000 C 
BRANCH  19  20
ATOM     20  C   LIG A   1      -7.060  -3.648 124.292  0.00  0.00    +0.004 C 
BRANCH  20  21
ATOM     21  C   LIG A   1      -6.104  -2.736 123.521  0.00  0.00    +0.026 C 
BRANCH  21  22
ATOM     22  C   LIG A   1      -4.693  -3.248 123.549  0.00  0.00    -0.035 C 
ATOM     23  C   LIG A   1      -4.375  -4.546 123.618  0.00  0.00    +0.004 C 
ENDBRANCH  21  22
ENDBRANCH  20  21
ENDBRANCH  19  20
ENDBRANCH  18  19
ENDBRANCH  17  18
ENDBRANCH  16  17
ENDBRANCH  15  16
ENDBRANCH  14  15
ENDBRANCH   6  14
TORSDOF 14
ENDMDL
MODEL 7
REMARK VINA RESULT:      -5.1      2.438      4.369
REMARK  Name = NuBBE_1802
REMARK  16 active torsions:
REMARK  status: ('A' for Active; 'I' for Inactive)
REMARK    1  A    between atoms: C_4  and  C_5
REMARK    2  A    between atoms: C_5  and  C_6
REMARK    3  A    between atoms: C_6  and  O_7
REMARK    4  A    between atoms: C_6  and  C_9
REMARK    5  A    between atoms: O_7  and  C_8
REMARK    6  A    between atoms: C_9  and  O_10
REMARK    7  A    between atoms: O_10  and  C_11
REMARK    8  A    between atoms: C_13  and  C_14
REMARK    9  A    between atoms: C_14  and  C_15
REMARK   10  A    between atoms: C_15  and  C_16
REMARK   11  A    between atoms: C_16  and  C_17
REMARK   12  A    between atoms: C_17  and  C_18
REMARK   13  A    between atoms: C_18  and  C_19
REMARK   14  A    between atoms: C_19  and  C_20
REMARK   15  A    between atoms: C_20  and  C_21
REMARK   16  A    between atoms: C_21  and  C_22
REMARK                            x       y       z     vdW  Elec       q    Type
REMARK                         _______ _______ _______ _____ _____    ______ ____
ROOT
ATOM      1  O   LIG A   1      -8.168   5.652 125.811  0.00  0.00    -0.251 OA
ATOM      2  C   LIG A   1      -7.447   4.734 125.432  0.00  0.00    +0.311 C 
ATOM      3  O   LIG A   1      -7.917   3.514 125.030  0.00  0.00    -0.461 OA
ATOM      4  C   LIG A   1      -5.936   4.756 125.395  0.00  0.00    +0.104 C 
ATOM      5  C   LIG A   1      -5.691   3.629 124.405  0.00  0.00    +0.059 C 
ATOM      6  C   LIG A   1      -6.801   2.662 124.751  0.00  0.00    +0.177 C 
ENDROOT
BRANCH   4   7
ATOM      7  C   LIG A   1      -5.406   4.524 126.825  0.00  0.00    +0.048 C 
BRANCH   7   8
ATOM      8  C   LIG A   1      -4.255   5.455 127.258  0.00  0.00    +0.144 C 
BRANCH   8   9
ATOM      9  O   LIG A   1      -4.712   6.087 128.462  0.00  0.00    -0.378 OA
ATOM     10  C   LIG A   1      -3.816   7.047 128.998  0.00  0.00    +0.194 C 
ENDBRANCH   8   9
BRANCH   8  11
ATOM     11  C   LIG A   1      -2.962   4.622 127.474  0.00  0.00    +0.191 C 
BRANCH  11  12
ATOM     12  O   LIG A   1      -2.741   3.697 126.399  0.00  0.00    -0.380 OA
ATOM     13  C   LIG A   1      -1.539   2.954 126.592  0.00  0.00    +0.194 C 
ENDBRANCH  11  12
ENDBRANCH   8  11
ENDBRANCH   7   8
ENDBRANCH   4   7
BRANCH   6  14
ATOM     14  C   LIG A   1      -7.115   1.684 123.625  0.00  0.00    +0.045 C 
BRANCH  14  15
ATOM     15  C   LIG A   1      -7.315   0.264 124.157  0.00  0.00    +0.003 C 
BRANCH  15  16
ATOM     16  C   LIG A   1      -7.473   0.273 125.674  0.00  0.00    +0.000 C 
BRANCH  16  17
ATOM     17  C   LIG A   1      -8.201  -0.977 126.159  0.00  0.00    -0.000 C 
BRANCH  17  18
ATOM     18  C   LIG A   1      -8.569  -1.874 124.980  0.00  0.00    +0.000 C 
BRANCH  18  19
ATOM     19  C   LIG A   1      -8.160  -3.318 125.249  0.00  0.00    +0.000 C 
BRANCH  19  20
ATOM     20  C   LIG A   1      -7.083  -3.779 124.266  0.00  0.00    +0.004 C 
BRANCH  20  21
ATOM     21  C   LIG A   1      -5.749  -3.066 124.493  0.00  0.00    +0.026 C 
BRANCH  21  22
ATOM     22  C   LIG A   1      -4.684  -3.553 123.554  0.00  0.00    -0.035 C 
ATOM     23  C   LIG A   1      -4.293  -4.829 123.472  0.00  0.00    +0.004 C 
ENDBRANCH  21  22
ENDBRANCH  20  21
ENDBRANCH  19  20
ENDBRANCH  18  19
ENDBRANCH  17  18
ENDBRANCH  16  17
ENDBRANCH  15  16
ENDBRANCH  14  15
ENDBRANCH   6  14
TORSDOF 14
ENDMDL
MODEL 8
REMARK VINA RESULT:      -5.1      3.774      6.124
REMARK  Name = NuBBE_1802
REMARK  16 active torsions:
REMARK  status: ('A' for Active; 'I' for Inactive)
REMARK    1  A    between atoms: C_4  and  C_5
REMARK    2  A    between atoms: C_5  and  C_6
REMARK    3  A    between atoms: C_6  and  O_7
REMARK    4  A    between atoms: C_6  and  C_9
REMARK    5  A    between atoms: O_7  and  C_8
REMARK    6  A    between atoms: C_9  and  O_10
REMARK    7  A    between atoms: O_10  and  C_11
REMARK    8  A    between atoms: C_13  and  C_14
REMARK    9  A    between atoms: C_14  and  C_15
REMARK   10  A    between atoms: C_15  and  C_16
REMARK   11  A    between atoms: C_16  and  C_17
REMARK   12  A    between atoms: C_17  and  C_18
REMARK   13  A    between atoms: C_18  and  C_19
REMARK   14  A    between atoms: C_19  and  C_20
REMARK   15  A    between atoms: C_20  and  C_21
REMARK   16  A    between atoms: C_21  and  C_22
REMARK                            x       y       z     vdW  Elec       q    Type
REMARK                         _______ _______ _______ _____ _____    ______ ____
ROOT
ATOM      1  O   LIG A   1      -9.747  -0.953 123.014  0.00  0.00    -0.251 OA
ATOM      2  C   LIG A   1      -9.238  -1.771 123.775  0.00  0.00    +0.311 C 
ATOM      3  O   LIG A   1      -9.501  -1.827 125.117  0.00  0.00    -0.461 OA
ATOM      4  C   LIG A   1      -8.204  -2.806 123.396  0.00  0.00    +0.104 C 
ATOM      5  C   LIG A   1      -8.374  -3.771 124.558  0.00  0.00    +0.059 C 
ATOM      6  C   LIG A   1      -8.666  -2.830 125.705  0.00  0.00    +0.177 C 
ENDROOT
BRANCH   4   7
ATOM      7  C   LIG A   1      -6.830  -2.112 123.291  0.00  0.00    +0.048 C 
BRANCH   7   8
ATOM      8  C   LIG A   1      -5.739  -2.672 124.226  0.00  0.00    +0.144 C 
BRANCH   8   9
ATOM      9  O   LIG A   1      -4.692  -3.125 123.356  0.00  0.00    -0.378 OA
ATOM     10  C   LIG A   1      -4.232  -4.440 123.625  0.00  0.00    +0.194 C 
ENDBRANCH   8   9
BRANCH   8  11
ATOM     11  C   LIG A   1      -5.267  -1.561 125.202  0.00  0.00    +0.191 C 
BRANCH  11  12
ATOM     12  O   LIG A   1      -6.014  -0.349 125.029  0.00  0.00    -0.380 OA
ATOM     13  C   LIG A   1      -6.149   0.360 126.259  0.00  0.00    +0.194 C 
ENDBRANCH  11  12
ENDBRANCH   8  11
ENDBRANCH   7   8
ENDBRANCH   4   7
BRANCH   6  14
ATOM     14  C   LIG A   1      -9.360  -3.513 126.878  0.00  0.00    +0.045 C 
BRANCH  14  15
ATOM     15  C   LIG A   1      -8.457  -3.560 128.112  0.00  0.00    +0.003 C 
BRANCH  15  16
ATOM     16  C   LIG A   1      -7.789  -2.208 128.344  0.00  0.00    +0.000 C 
BRANCH  16  17
ATOM     17  C   LIG A   1      -6.422  -2.375 128.999  0.00  0.00    -0.000 C 
BRANCH  17  18
ATOM     18  C   LIG A   1      -6.516  -3.307 130.204  0.00  0.00    +0.000 C 
BRANCH  18  19
ATOM     19  C   LIG A   1      -5.309  -4.237 130.265  0.00  0.00    +0.000 C 
BRANCH  19  20
ATOM     20  C   LIG A   1      -5.471  -5.279 131.373  0.00  0.00    +0.004 C 
BRANCH  20  21
ATOM     21  C   LIG A   1      -5.190  -4.698 132.759  0.00  0.00    +0.026 C 
BRANCH  21  22
ATOM     22  C   LIG A   1      -6.068  -5.307 133.814  0.00  0.00    -0.035 C 
ATOM     23  C   LIG A   1      -6.092  -4.899 135.087  0.00  0.00    +0.004 C 
ENDBRANCH  21  22
ENDBRANCH  20  21
ENDBRANCH  19  20
ENDBRANCH  18  19
ENDBRANCH  17  18
ENDBRANCH  16  17
ENDBRANCH  15  16
ENDBRANCH  14  15
ENDBRANCH   6  14
TORSDOF 14
ENDMDL
MODEL 9
REMARK VINA RESULT:      -5.1      1.820      2.915
REMARK  Name = NuBBE_1802
REMARK  16 active torsions:
REMARK  status: ('A' for Active; 'I' for Inactive)
REMARK    1  A    between atoms: C_4  and  C_5
REMARK    2  A    between atoms: C_5  and  C_6
REMARK    3  A    between atoms: C_6  and  O_7
REMARK    4  A    between atoms: C_6  and  C_9
REMARK    5  A    between atoms: O_7  and  C_8
REMARK    6  A    between atoms: C_9  and  O_10
REMARK    7  A    between atoms: O_10  and  C_11
REMARK    8  A    between atoms: C_13  and  C_14
REMARK    9  A    between atoms: C_14  and  C_15
REMARK   10  A    between atoms: C_15  and  C_16
REMARK   11  A    between atoms: C_16  and  C_17
REMARK   12  A    between atoms: C_17  and  C_18
REMARK   13  A    between atoms: C_18  and  C_19
REMARK   14  A    between atoms: C_19  and  C_20
REMARK   15  A    between atoms: C_20  and  C_21
REMARK   16  A    between atoms: C_21  and  C_22
REMARK                            x       y       z     vdW  Elec       q    Type
REMARK                         _______ _______ _______ _____ _____    ______ ____
ROOT
ATOM      1  O   LIG A   1      -8.357   3.443 126.729  0.00  0.00    -0.251 OA
ATOM      2  C   LIG A   1      -8.181   2.230 126.788  0.00  0.00    +0.311 C 
ATOM      3  O   LIG A   1      -7.480   1.612 127.788  0.00  0.00    -0.461 OA
ATOM      4  C   LIG A   1      -8.640   1.220 125.763  0.00  0.00    +0.104 C 
ATOM      5  C   LIG A   1      -8.597  -0.040 126.612  0.00  0.00    +0.059 C 
ATOM      6  C   LIG A   1      -7.392   0.215 127.489  0.00  0.00    +0.177 C 
ENDROOT
BRANCH   4   7
ATOM      7  C   LIG A   1      -7.669   1.259 124.565  0.00  0.00    +0.048 C 
BRANCH   7   8
ATOM      8  C   LIG A   1      -8.291   1.715 123.229  0.00  0.00    +0.144 C 
BRANCH   8   9
ATOM      9  O   LIG A   1      -9.704   1.536 123.390  0.00  0.00    -0.378 OA
ATOM     10  C   LIG A   1     -10.278   0.577 122.515  0.00  0.00    +0.194 C 
ENDBRANCH   8   9
BRANCH   8  11
ATOM     11  C   LIG A   1      -7.902   3.191 122.949  0.00  0.00    +0.191 C 
BRANCH  11  12
ATOM     12  O   LIG A   1      -7.860   3.471 121.542  0.00  0.00    -0.380 OA
ATOM     13  C   LIG A   1      -6.523   3.689 121.095  0.00  0.00    +0.194 C 
ENDBRANCH  11  12
ENDBRANCH   8  11
ENDBRANCH   7   8
ENDBRANCH   4   7
BRANCH   6  14
ATOM     14  C   LIG A   1      -7.387  -0.626 128.760  0.00  0.00    +0.045 C 
BRANCH  14  15
ATOM     15  C   LIG A   1      -6.283  -1.685 128.726  0.00  0.00    +0.003 C 
BRANCH  15  16
ATOM     16  C   LIG A   1      -6.837  -3.054 129.109  0.00  0.00    +0.000 C 
BRANCH  16  17
ATOM     17  C   LIG A   1      -8.361  -3.068 129.047  0.00  0.00    -0.000 C 
BRANCH  17  18
ATOM     18  C   LIG A   1      -8.846  -4.097 128.029  0.00  0.00    +0.000 C 
BRANCH  18  19
ATOM     19  C   LIG A   1      -9.161  -3.432 126.694  0.00  0.00    +0.000 C 
BRANCH  19  20
ATOM     20  C   LIG A   1      -8.267  -3.978 125.580  0.00  0.00    +0.004 C 
BRANCH  20  21
ATOM     21  C   LIG A   1      -7.511  -2.868 124.849  0.00  0.00    +0.026 C 
BRANCH  21  22
ATOM     22  C   LIG A   1      -8.107  -2.573 123.503  0.00  0.00    -0.035 C 
ATOM     23  C   LIG A   1      -9.339  -2.946 123.139  0.00  0.00    +0.004 C 
ENDBRANCH  21  22
ENDBRANCH  20  21
ENDBRANCH  19  20
ENDBRANCH  18  19
ENDBRANCH  17  18
ENDBRANCH  16  17
ENDBRANCH  15  16
ENDBRANCH  14  15
ENDBRANCH   6  14
TORSDOF 14
ENDMDL
