MODEL 1
REMARK VINA RESULT:      -6.9      0.000      0.000
REMARK  Name = NuBBE_1238
REMARK  9 active torsions:
REMARK  status: ('A' for Active; 'I' for Inactive)
REMARK    1  A    between atoms: N_4  and  C_5
REMARK    2  A    between atoms: C_5  and  O_6
REMARK    3  A    between atoms: O_6  and  C_7
REMARK    4  A    between atoms: C_7  and  C_8
REMARK    5  A    between atoms: C_12  and  O_13
REMARK    6  A    between atoms: O_13  and  C_14
REMARK    7  A    between atoms: C_15  and  O_16
REMARK    8  A    between atoms: O_16  and  C_17
REMARK    9  A    between atoms: C_18  and  O_19
REMARK                            x       y       z     vdW  Elec       q    Type
REMARK                         _______ _______ _______ _____ _____    ______ ____
ROOT
ATOM      1  C   LIG A   1      -8.531   3.725 120.472  0.00  0.00    +0.026 A 
ATOM      2  C   LIG A   1      -7.754   3.608 121.639  0.00  0.00    +0.056 A 
ATOM      3  N   LIG A   1      -8.244   3.124 122.877  0.00  0.00    -0.306 N 
ATOM      4  C   LIG A   1      -7.455   3.128 124.063  0.00  0.00    +0.063 A 
ATOM      5  C   LIG A   1      -7.936   2.703 125.311  0.00  0.00    +0.076 A 
ATOM      6  C   LIG A   1      -7.148   2.716 126.478  0.00  0.00    +0.167 A 
ATOM      7  C   LIG A   1      -5.819   3.160 126.429  0.00  0.00    +0.204 A 
ATOM      8  C   LIG A   1      -5.331   3.639 125.203  0.00  0.00    +0.175 A 
ATOM      9  C   LIG A   1      -6.135   3.607 124.039  0.00  0.00    +0.091 A 
ATOM     10  C   LIG A   1      -5.581   4.065 122.749  0.00  0.00    +0.201 A 
ATOM     11  O   LIG A   1      -4.418   4.464 122.692  0.00  0.00    -0.286 OA
ATOM     12  C   LIG A   1      -6.426   4.056 121.543  0.00  0.00    +0.046 A 
ATOM     13  C   LIG A   1      -5.871   4.508 120.335  0.00  0.00    +0.014 A 
ATOM     14  C   LIG A   1      -6.653   4.564 119.190  0.00  0.00    +0.001 A 
ATOM     15  C   LIG A   1      -7.989   4.188 119.264  0.00  0.00    +0.002 A 
ENDROOT
BRANCH   6  16
ATOM     16  O   LIG A   1      -7.811   2.204 127.567  0.00  0.00    -0.491 OA
ATOM     17  C   LIG A   1      -8.459   0.950 127.402  0.00  0.00    +0.277 C 
ENDBRANCH   6  16
BRANCH   7  18
ATOM     18  O   LIG A   1      -5.105   3.130 127.597  0.00  0.00    -0.488 OA
ATOM     19  C   LIG A   1      -5.168   4.273 128.440  0.00  0.00    +0.277 C 
ENDBRANCH   7  18
BRANCH   8  20
ATOM     20  O   LIG A   1      -4.062   4.170 125.157  0.00  0.00    -0.503 OA
ATOM     21  H   LIG A   1      -3.431   3.505 125.514  0.00  0.00    +0.292 HD
ENDBRANCH   8  20
BRANCH   3  22
ATOM     22  C   LIG A   1      -9.369   2.164 122.847  0.00  0.00    +0.359 C 
BRANCH  22  23
ATOM     23  O   LIG A   1      -8.868   0.822 122.886  0.00  0.00    -0.443 OA
BRANCH  23  24
ATOM     24  C   LIG A   1      -9.798  -0.156 122.736  0.00  0.00    +0.306 C 
ATOM     25  C   LIG A   1      -9.164  -1.502 122.910  0.00  0.00    +0.136 C 
ATOM     26  O   LIG A   1     -10.982   0.013 122.509  0.00  0.00    -0.251 OA
ENDBRANCH  23  24
ENDBRANCH  22  23
ENDBRANCH   3  22
TORSDOF 6
ENDMDL
MODEL 2
REMARK VINA RESULT:      -6.8      2.800      6.071
REMARK  Name = NuBBE_1238
REMARK  9 active torsions:
REMARK  status: ('A' for Active; 'I' for Inactive)
REMARK    1  A    between atoms: N_4  and  C_5
REMARK    2  A    between atoms: C_5  and  O_6
REMARK    3  A    between atoms: O_6  and  C_7
REMARK    4  A    between atoms: C_7  and  C_8
REMARK    5  A    between atoms: C_12  and  O_13
REMARK    6  A    between atoms: O_13  and  C_14
REMARK    7  A    between atoms: C_15  and  O_16
REMARK    8  A    between atoms: O_16  and  C_17
REMARK    9  A    between atoms: C_18  and  O_19
REMARK                            x       y       z     vdW  Elec       q    Type
REMARK                         _______ _______ _______ _____ _____    ______ ____
ROOT
ATOM      1  C   LIG A   1      -8.729  -2.528 126.478  0.00  0.00    +0.026 A 
ATOM      2  C   LIG A   1      -7.836  -1.493 126.811  0.00  0.00    +0.056 A 
ATOM      3  N   LIG A   1      -7.547  -0.390 125.971  0.00  0.00    -0.306 N 
ATOM      4  C   LIG A   1      -6.552   0.576 126.297  0.00  0.00    +0.063 A 
ATOM      5  C   LIG A   1      -6.211   1.647 125.457  0.00  0.00    +0.076 A 
ATOM      6  C   LIG A   1      -5.223   2.593 125.788  0.00  0.00    +0.167 A 
ATOM      7  C   LIG A   1      -4.531   2.497 127.003  0.00  0.00    +0.204 A 
ATOM      8  C   LIG A   1      -4.817   1.406 127.838  0.00  0.00    +0.175 A 
ATOM      9  C   LIG A   1      -5.822   0.472 127.492  0.00  0.00    +0.091 A 
ATOM     10  C   LIG A   1      -6.144  -0.638 128.413  0.00  0.00    +0.201 A 
ATOM     11  O   LIG A   1      -5.541  -0.739 129.481  0.00  0.00    -0.286 OA
ATOM     12  C   LIG A   1      -7.172  -1.624 128.042  0.00  0.00    +0.046 A 
ATOM     13  C   LIG A   1      -7.445  -2.673 128.935  0.00  0.00    +0.014 A 
ATOM     14  C   LIG A   1      -8.370  -3.650 128.595  0.00  0.00    +0.001 A 
ATOM     15  C   LIG A   1      -8.999  -3.586 127.358  0.00  0.00    +0.002 A 
ENDROOT
BRANCH   6  16
ATOM     16  O   LIG A   1      -5.099   3.581 124.840  0.00  0.00    -0.491 OA
ATOM     17  C   LIG A   1      -6.067   3.604 123.798  0.00  0.00    +0.277 C 
ENDBRANCH   6  16
BRANCH   7  18
ATOM     18  O   LIG A   1      -3.594   3.460 127.269  0.00  0.00    -0.488 OA
ATOM     19  C   LIG A   1      -2.264   3.230 126.824  0.00  0.00    +0.277 C 
ENDBRANCH   7  18
BRANCH   8  20
ATOM     20  O   LIG A   1      -4.080   1.240 128.989  0.00  0.00    -0.503 OA
ATOM     21  H   LIG A   1      -3.935   2.123 129.397  0.00  0.00    +0.292 HD
ENDBRANCH   8  20
BRANCH   3  22
ATOM     22  C   LIG A   1      -8.593   0.049 125.021  0.00  0.00    +0.359 C 
BRANCH  22  23
ATOM     23  O   LIG A   1      -8.225  -0.317 123.685  0.00  0.00    -0.443 OA
BRANCH  23  24
ATOM     24  C   LIG A   1      -9.143  -1.049 123.003  0.00  0.00    +0.306 C 
ATOM     25  C   LIG A   1      -8.676  -2.466 122.868  0.00  0.00    +0.136 C 
ATOM     26  O   LIG A   1     -10.205  -0.638 122.570  0.00  0.00    -0.251 OA
ENDBRANCH  23  24
ENDBRANCH  22  23
ENDBRANCH   3  22
TORSDOF 6
ENDMDL
MODEL 3
REMARK VINA RESULT:      -6.8      2.778      7.292
REMARK  Name = NuBBE_1238
REMARK  9 active torsions:
REMARK  status: ('A' for Active; 'I' for Inactive)
REMARK    1  A    between atoms: N_4  and  C_5
REMARK    2  A    between atoms: C_5  and  O_6
REMARK    3  A    between atoms: O_6  and  C_7
REMARK    4  A    between atoms: C_7  and  C_8
REMARK    5  A    between atoms: C_12  and  O_13
REMARK    6  A    between atoms: O_13  and  C_14
REMARK    7  A    between atoms: C_15  and  O_16
REMARK    8  A    between atoms: O_16  and  C_17
REMARK    9  A    between atoms: C_18  and  O_19
REMARK                            x       y       z     vdW  Elec       q    Type
REMARK                         _______ _______ _______ _____ _____    ______ ____
ROOT
ATOM      1  C   LIG A   1      -7.885  -1.900 128.984  0.00  0.00    +0.026 A 
ATOM      2  C   LIG A   1      -8.124  -1.224 127.773  0.00  0.00    +0.056 A 
ATOM      3  N   LIG A   1      -7.936   0.167 127.587  0.00  0.00    -0.306 N 
ATOM      4  C   LIG A   1      -8.297   0.830 126.379  0.00  0.00    +0.063 A 
ATOM      5  C   LIG A   1      -8.170   2.215 126.190  0.00  0.00    +0.076 A 
ATOM      6  C   LIG A   1      -8.534   2.860 124.993  0.00  0.00    +0.167 A 
ATOM      7  C   LIG A   1      -9.046   2.119 123.919  0.00  0.00    +0.204 A 
ATOM      8  C   LIG A   1      -9.232   0.740 124.101  0.00  0.00    +0.175 A 
ATOM      9  C   LIG A   1      -8.848   0.109 125.308  0.00  0.00    +0.091 A 
ATOM     10  C   LIG A   1      -9.002  -1.353 125.455  0.00  0.00    +0.201 A 
ATOM     11  O   LIG A   1      -9.456  -2.016 124.522  0.00  0.00    -0.286 OA
ATOM     12  C   LIG A   1      -8.627  -2.006 126.719  0.00  0.00    +0.046 A 
ATOM     13  C   LIG A   1      -8.796  -3.396 126.830  0.00  0.00    +0.014 A 
ATOM     14  C   LIG A   1      -8.503  -4.037 128.025  0.00  0.00    +0.001 A 
ATOM     15  C   LIG A   1      -8.064  -3.286 129.107  0.00  0.00    +0.002 A 
ENDROOT
BRANCH   6  16
ATOM     16  O   LIG A   1      -8.270   4.208 125.019  0.00  0.00    -0.491 OA
ATOM     17  C   LIG A   1      -6.928   4.601 125.277  0.00  0.00    +0.277 C 
ENDBRANCH   6  16
BRANCH   7  18
ATOM     18  O   LIG A   1      -9.365   2.808 122.779  0.00  0.00    -0.488 OA
ATOM     19  C   LIG A   1      -8.306   3.142 121.890  0.00  0.00    +0.277 C 
ENDBRANCH   7  18
BRANCH   8  20
ATOM     20  O   LIG A   1      -9.824   0.012 123.093  0.00  0.00    -0.503 OA
ATOM     21  H   LIG A   1     -10.472  -0.609 123.496  0.00  0.00    +0.292 HD
ENDBRANCH   8  20
BRANCH   3  22
ATOM     22  C   LIG A   1      -6.922   0.845 128.423  0.00  0.00    +0.359 C 
BRANCH  22  23
ATOM     23  O   LIG A   1      -5.606   0.529 127.949  0.00  0.00    -0.443 OA
BRANCH  23  24
ATOM     24  C   LIG A   1      -4.765   1.585 127.804  0.00  0.00    +0.306 C 
ATOM     25  C   LIG A   1      -4.589   1.909 126.352  0.00  0.00    +0.136 C 
ATOM     26  O   LIG A   1      -4.232   2.203 128.708  0.00  0.00    -0.251 OA
ENDBRANCH  23  24
ENDBRANCH  22  23
ENDBRANCH   3  22
TORSDOF 6
ENDMDL
MODEL 4
REMARK VINA RESULT:      -6.8      3.365      6.465
REMARK  Name = NuBBE_1238
REMARK  9 active torsions:
REMARK  status: ('A' for Active; 'I' for Inactive)
REMARK    1  A    between atoms: N_4  and  C_5
REMARK    2  A    between atoms: C_5  and  O_6
REMARK    3  A    between atoms: O_6  and  C_7
REMARK    4  A    between atoms: C_7  and  C_8
REMARK    5  A    between atoms: C_12  and  O_13
REMARK    6  A    between atoms: O_13  and  C_14
REMARK    7  A    between atoms: C_15  and  O_16
REMARK    8  A    between atoms: O_16  and  C_17
REMARK    9  A    between atoms: C_18  and  O_19
REMARK                            x       y       z     vdW  Elec       q    Type
REMARK                         _______ _______ _______ _____ _____    ______ ____
ROOT
ATOM      1  C   LIG A   1      -8.066  -1.136 123.574  0.00  0.00    +0.026 A 
ATOM      2  C   LIG A   1      -8.024  -1.280 124.974  0.00  0.00    +0.056 A 
ATOM      3  N   LIG A   1      -7.389  -0.365 125.849  0.00  0.00    -0.306 N 
ATOM      4  C   LIG A   1      -7.272  -0.607 127.248  0.00  0.00    +0.063 A 
ATOM      5  C   LIG A   1      -6.601   0.257 128.128  0.00  0.00    +0.076 A 
ATOM      6  C   LIG A   1      -6.489   0.006 129.508  0.00  0.00    +0.167 A 
ATOM      7  C   LIG A   1      -7.063  -1.144 130.067  0.00  0.00    +0.204 A 
ATOM      8  C   LIG A   1      -7.695  -2.050 129.201  0.00  0.00    +0.175 A 
ATOM      9  C   LIG A   1      -7.808  -1.774 127.817  0.00  0.00    +0.091 A 
ATOM     10  C   LIG A   1      -8.525  -2.716 126.935  0.00  0.00    +0.201 A 
ATOM     11  O   LIG A   1      -9.029  -3.733 127.410  0.00  0.00    -0.286 OA
ATOM     12  C   LIG A   1      -8.620  -2.441 125.492  0.00  0.00    +0.046 A 
ATOM     13  C   LIG A   1      -9.300  -3.363 124.680  0.00  0.00    +0.014 A 
ATOM     14  C   LIG A   1      -9.364  -3.164 123.308  0.00  0.00    +0.001 A 
ATOM     15  C   LIG A   1      -8.731  -2.059 122.754  0.00  0.00    +0.002 A 
ENDROOT
BRANCH   6  16
ATOM     16  O   LIG A   1      -5.838   1.016 130.176  0.00  0.00    -0.491 OA
ATOM     17  C   LIG A   1      -4.422   1.064 130.058  0.00  0.00    +0.277 C 
ENDBRANCH   6  16
BRANCH   7  18
ATOM     18  O   LIG A   1      -6.930  -1.317 131.418  0.00  0.00    -0.488 OA
ATOM     19  C   LIG A   1      -7.969  -0.822 132.254  0.00  0.00    +0.277 C 
ENDBRANCH   7  18
BRANCH   8  20
ATOM     20  O   LIG A   1      -8.179  -3.231 129.715  0.00  0.00    -0.503 OA
ATOM     21  H   LIG A   1      -8.864  -3.581 129.103  0.00  0.00    +0.292 HD
ENDBRANCH   8  20
BRANCH   3  22
ATOM     22  C   LIG A   1      -7.291   1.047 125.422  0.00  0.00    +0.359 C 
BRANCH  22  23
ATOM     23  O   LIG A   1      -8.574   1.678 125.522  0.00  0.00    -0.443 OA
BRANCH  23  24
ATOM     24  C   LIG A   1      -8.744   2.787 124.757  0.00  0.00    +0.306 C 
ATOM     25  C   LIG A   1      -8.879   2.403 123.315  0.00  0.00    +0.136 C 
ATOM     26  O   LIG A   1      -8.798   3.934 125.162  0.00  0.00    -0.251 OA
ENDBRANCH  23  24
ENDBRANCH  22  23
ENDBRANCH   3  22
TORSDOF 6
ENDMDL
MODEL 5
REMARK VINA RESULT:      -6.6      3.129      5.608
REMARK  Name = NuBBE_1238
REMARK  9 active torsions:
REMARK  status: ('A' for Active; 'I' for Inactive)
REMARK    1  A    between atoms: N_4  and  C_5
REMARK    2  A    between atoms: C_5  and  O_6
REMARK    3  A    between atoms: O_6  and  C_7
REMARK    4  A    between atoms: C_7  and  C_8
REMARK    5  A    between atoms: C_12  and  O_13
REMARK    6  A    between atoms: O_13  and  C_14
REMARK    7  A    between atoms: C_15  and  O_16
REMARK    8  A    between atoms: O_16  and  C_17
REMARK    9  A    between atoms: C_18  and  O_19
REMARK                            x       y       z     vdW  Elec       q    Type
REMARK                         _______ _______ _______ _____ _____    ______ ____
ROOT
ATOM      1  C   LIG A   1      -9.086  -2.555 125.683  0.00  0.00    +0.026 A 
ATOM      2  C   LIG A   1      -8.762  -1.198 125.496  0.00  0.00    +0.056 A 
ATOM      3  N   LIG A   1      -8.422  -0.309 126.545  0.00  0.00    -0.306 N 
ATOM      4  C   LIG A   1      -8.211   1.082 126.325  0.00  0.00    +0.063 A 
ATOM      5  C   LIG A   1      -7.926   1.992 127.355  0.00  0.00    +0.076 A 
ATOM      6  C   LIG A   1      -7.723   3.366 127.127  0.00  0.00    +0.167 A 
ATOM      7  C   LIG A   1      -7.797   3.885 125.827  0.00  0.00    +0.204 A 
ATOM      8  C   LIG A   1      -8.132   3.005 124.786  0.00  0.00    +0.175 A 
ATOM      9  C   LIG A   1      -8.320   1.625 125.034  0.00  0.00    +0.091 A 
ATOM     10  C   LIG A   1      -8.618   0.709 123.914  0.00  0.00    +0.201 A 
ATOM     11  O   LIG A   1      -8.692   1.152 122.768  0.00  0.00    -0.286 OA
ATOM     12  C   LIG A   1      -8.839  -0.722 124.176  0.00  0.00    +0.046 A 
ATOM     13  C   LIG A   1      -9.131  -1.563 123.090  0.00  0.00    +0.014 A 
ATOM     14  C   LIG A   1      -9.397  -2.908 123.306  0.00  0.00    +0.001 A 
ATOM     15  C   LIG A   1      -9.392  -3.399 124.605  0.00  0.00    +0.002 A 
ENDROOT
BRANCH   6  16
ATOM     16  O   LIG A   1      -7.404   4.050 128.275  0.00  0.00    -0.491 OA
ATOM     17  C   LIG A   1      -6.033   4.080 128.652  0.00  0.00    +0.277 C 
ENDBRANCH   6  16
BRANCH   7  18
ATOM     18  O   LIG A   1      -7.573   5.228 125.675  0.00  0.00    -0.488 OA
ATOM     19  C   LIG A   1      -6.284   5.638 125.237  0.00  0.00    +0.277 C 
ENDBRANCH   7  18
BRANCH   8  20
ATOM     20  O   LIG A   1      -8.305   3.513 123.518  0.00  0.00    -0.503 OA
ATOM     21  H   LIG A   1      -7.442   3.480 123.047  0.00  0.00    +0.292 HD
ENDBRANCH   8  20
BRANCH   3  22
ATOM     22  C   LIG A   1      -7.798  -0.878 127.758  0.00  0.00    +0.359 C 
BRANCH  22  23
ATOM     23  O   LIG A   1      -6.441  -1.248 127.483  0.00  0.00    -0.443 OA
BRANCH  23  24
ATOM     24  C   LIG A   1      -5.971  -2.316 128.178  0.00  0.00    +0.306 C 
ATOM     25  C   LIG A   1      -7.089  -2.982 128.920  0.00  0.00    +0.136 C 
ATOM     26  O   LIG A   1      -4.817  -2.704 128.196  0.00  0.00    -0.251 OA
ENDBRANCH  23  24
ENDBRANCH  22  23
ENDBRANCH   3  22
TORSDOF 6
ENDMDL
MODEL 6
REMARK VINA RESULT:      -6.6      4.309      5.699
REMARK  Name = NuBBE_1238
REMARK  9 active torsions:
REMARK  status: ('A' for Active; 'I' for Inactive)
REMARK    1  A    between atoms: N_4  and  C_5
REMARK    2  A    between atoms: C_5  and  O_6
REMARK    3  A    between atoms: O_6  and  C_7
REMARK    4  A    between atoms: C_7  and  C_8
REMARK    5  A    between atoms: C_12  and  O_13
REMARK    6  A    between atoms: O_13  and  C_14
REMARK    7  A    between atoms: C_15  and  O_16
REMARK    8  A    between atoms: O_16  and  C_17
REMARK    9  A    between atoms: C_18  and  O_19
REMARK                            x       y       z     vdW  Elec       q    Type
REMARK                         _______ _______ _______ _____ _____    ______ ____
ROOT
ATOM      1  C   LIG A   1      -9.134  -1.370 123.334  0.00  0.00    +0.026 A 
ATOM      2  C   LIG A   1      -8.705  -1.017 124.626  0.00  0.00    +0.056 A 
ATOM      3  N   LIG A   1      -8.016  -1.891 125.503  0.00  0.00    -0.306 N 
ATOM      4  C   LIG A   1      -7.700  -1.530 126.844  0.00  0.00    +0.063 A 
ATOM      5  C   LIG A   1      -7.066  -2.397 127.748  0.00  0.00    +0.076 A 
ATOM      6  C   LIG A   1      -6.762  -2.031 129.072  0.00  0.00    +0.167 A 
ATOM      7  C   LIG A   1      -7.087  -0.753 129.545  0.00  0.00    +0.204 A 
ATOM      8  C   LIG A   1      -7.768   0.115 128.677  0.00  0.00    +0.175 A 
ATOM      9  C   LIG A   1      -8.054  -0.267 127.345  0.00  0.00    +0.091 A 
ATOM     10  C   LIG A   1      -8.723   0.684 126.434  0.00  0.00    +0.201 A 
ATOM     11  O   LIG A   1      -9.021   1.808 126.837  0.00  0.00    -0.286 OA
ATOM     12  C   LIG A   1      -9.043   0.277 125.056  0.00  0.00    +0.046 A 
ATOM     13  C   LIG A   1      -9.689   1.202 124.219  0.00  0.00    +0.014 A 
ATOM     14  C   LIG A   1     -10.054   0.835 122.932  0.00  0.00    +0.001 A 
ATOM     15  C   LIG A   1      -9.791  -0.457 122.496  0.00  0.00    +0.002 A 
ENDROOT
BRANCH   6  16
ATOM     16  O   LIG A   1      -6.093  -3.021 129.752  0.00  0.00    -0.491 OA
ATOM     17  C   LIG A   1      -4.719  -3.208 129.438  0.00  0.00    +0.277 C 
ENDBRANCH   6  16
BRANCH   7  18
ATOM     18  O   LIG A   1      -6.748  -0.458 130.839  0.00  0.00    -0.488 OA
ATOM     19  C   LIG A   1      -5.479   0.142 131.070  0.00  0.00    +0.277 C 
ENDBRANCH   7  18
BRANCH   8  20
ATOM     20  O   LIG A   1      -8.183   1.339 129.154  0.00  0.00    -0.503 OA
ATOM     21  H   LIG A   1      -8.833   1.717 128.519  0.00  0.00    +0.292 HD
ENDBRANCH   8  20
BRANCH   3  22
ATOM     22  C   LIG A   1      -7.188  -2.959 124.904  0.00  0.00    +0.359 C 
BRANCH  22  23
ATOM     23  O   LIG A   1      -5.885  -2.450 124.590  0.00  0.00    -0.443 OA
BRANCH  23  24
ATOM     24  C   LIG A   1      -5.412  -2.768 123.358  0.00  0.00    +0.306 C 
ATOM     25  C   LIG A   1      -4.424  -3.890 123.456  0.00  0.00    +0.136 C 
ATOM     26  O   LIG A   1      -5.740  -2.241 122.309  0.00  0.00    -0.251 OA
ENDBRANCH  23  24
ENDBRANCH  22  23
ENDBRANCH   3  22
TORSDOF 6
ENDMDL
MODEL 7
REMARK VINA RESULT:      -6.5      2.988      5.455
REMARK  Name = NuBBE_1238
REMARK  9 active torsions:
REMARK  status: ('A' for Active; 'I' for Inactive)
REMARK    1  A    between atoms: N_4  and  C_5
REMARK    2  A    between atoms: C_5  and  O_6
REMARK    3  A    between atoms: O_6  and  C_7
REMARK    4  A    between atoms: C_7  and  C_8
REMARK    5  A    between atoms: C_12  and  O_13
REMARK    6  A    between atoms: O_13  and  C_14
REMARK    7  A    between atoms: C_15  and  O_16
REMARK    8  A    between atoms: O_16  and  C_17
REMARK    9  A    between atoms: C_18  and  O_19
REMARK                            x       y       z     vdW  Elec       q    Type
REMARK                         _______ _______ _______ _____ _____    ______ ____
ROOT
ATOM      1  C   LIG A   1      -6.747  -0.945 123.059  0.00  0.00    +0.026 A 
ATOM      2  C   LIG A   1      -6.894  -0.815 124.453  0.00  0.00    +0.056 A 
ATOM      3  N   LIG A   1      -7.654   0.202 125.081  0.00  0.00    -0.306 N 
ATOM      4  C   LIG A   1      -7.685   0.366 126.496  0.00  0.00    +0.063 A 
ATOM      5  C   LIG A   1      -8.387   1.398 127.139  0.00  0.00    +0.076 A 
ATOM      6  C   LIG A   1      -8.407   1.552 128.537  0.00  0.00    +0.167 A 
ATOM      7  C   LIG A   1      -7.711   0.654 129.358  0.00  0.00    +0.204 A 
ATOM      8  C   LIG A   1      -6.958  -0.356 128.737  0.00  0.00    +0.175 A 
ATOM      9  C   LIG A   1      -6.961  -0.502 127.329  0.00  0.00    +0.091 A 
ATOM     10  C   LIG A   1      -6.206  -1.606 126.703  0.00  0.00    +0.201 A 
ATOM     11  O   LIG A   1      -5.585  -2.399 127.409  0.00  0.00    -0.286 OA
ATOM     12  C   LIG A   1      -6.188  -1.742 125.237  0.00  0.00    +0.046 A 
ATOM     13  C   LIG A   1      -5.451  -2.796 124.673  0.00  0.00    +0.014 A 
ATOM     14  C   LIG A   1      -5.368  -2.924 123.294  0.00  0.00    +0.001 A 
ATOM     15  C   LIG A   1      -6.002  -1.987 122.487  0.00  0.00    +0.002 A 
ENDROOT
BRANCH   6  16
ATOM     16  O   LIG A   1      -9.203   2.597 128.941  0.00  0.00    -0.491 OA
ATOM     17  C   LIG A   1      -8.554   3.821 129.260  0.00  0.00    +0.277 C 
ENDBRANCH   6  16
BRANCH   7  18
ATOM     18  O   LIG A   1      -7.786   0.853 130.710  0.00  0.00    -0.488 OA
ATOM     19  C   LIG A   1      -8.824   0.188 131.420  0.00  0.00    +0.277 C 
ENDBRANCH   7  18
BRANCH   8  20
ATOM     20  O   LIG A   1      -6.190  -1.188 129.521  0.00  0.00    -0.503 OA
ATOM     21  H   LIG A   1      -5.597  -1.709 128.934  0.00  0.00    +0.292 HD
ENDBRANCH   8  20
BRANCH   3  22
ATOM     22  C   LIG A   1      -8.797   0.772 124.335  0.00  0.00    +0.359 C 
BRANCH  22  23
ATOM     23  O   LIG A   1      -8.324   1.692 123.343  0.00  0.00    -0.443 OA
BRANCH  23  24
ATOM     24  C   LIG A   1      -7.937   2.908 123.806  0.00  0.00    +0.306 C 
ATOM     25  C   LIG A   1      -6.529   3.198 123.384  0.00  0.00    +0.136 C 
ATOM     26  O   LIG A   1      -8.623   3.675 124.458  0.00  0.00    -0.251 OA
ENDBRANCH  23  24
ENDBRANCH  22  23
ENDBRANCH   3  22
TORSDOF 6
ENDMDL
MODEL 8
REMARK VINA RESULT:      -6.5      2.267      5.910
REMARK  Name = NuBBE_1238
REMARK  9 active torsions:
REMARK  status: ('A' for Active; 'I' for Inactive)
REMARK    1  A    between atoms: N_4  and  C_5
REMARK    2  A    between atoms: C_5  and  O_6
REMARK    3  A    between atoms: O_6  and  C_7
REMARK    4  A    between atoms: C_7  and  C_8
REMARK    5  A    between atoms: C_12  and  O_13
REMARK    6  A    between atoms: O_13  and  C_14
REMARK    7  A    between atoms: C_15  and  O_16
REMARK    8  A    between atoms: O_16  and  C_17
REMARK    9  A    between atoms: C_18  and  O_19
REMARK                            x       y       z     vdW  Elec       q    Type
REMARK                         _______ _______ _______ _____ _____    ______ ____
ROOT
ATOM      1  C   LIG A   1      -5.221   4.288 125.647  0.00  0.00    +0.026 A 
ATOM      2  C   LIG A   1      -5.652   2.956 125.499  0.00  0.00    +0.056 A 
ATOM      3  N   LIG A   1      -6.706   2.551 124.644  0.00  0.00    -0.306 N 
ATOM      4  C   LIG A   1      -7.185   1.209 124.609  0.00  0.00    +0.063 A 
ATOM      5  C   LIG A   1      -8.262   0.794 123.810  0.00  0.00    +0.076 A 
ATOM      6  C   LIG A   1      -8.729  -0.533 123.787  0.00  0.00    +0.167 A 
ATOM      7  C   LIG A   1      -8.116  -1.513 124.580  0.00  0.00    +0.204 A 
ATOM      8  C   LIG A   1      -7.070  -1.112 125.427  0.00  0.00    +0.175 A 
ATOM      9  C   LIG A   1      -6.607   0.225 125.427  0.00  0.00    +0.091 A 
ATOM     10  C   LIG A   1      -5.469   0.609 126.286  0.00  0.00    +0.201 A 
ATOM     11  O   LIG A   1      -4.924  -0.239 126.992  0.00  0.00    -0.286 OA
ATOM     12  C   LIG A   1      -5.003   2.006 126.305  0.00  0.00    +0.046 A 
ATOM     13  C   LIG A   1      -3.926   2.340 127.142  0.00  0.00    +0.014 A 
ATOM     14  C   LIG A   1      -3.495   3.656 127.225  0.00  0.00    +0.001 A 
ATOM     15  C   LIG A   1      -4.155   4.632 126.490  0.00  0.00    +0.002 A 
ENDROOT
BRANCH   6  16
ATOM     16  O   LIG A   1      -9.754  -0.715 122.890  0.00  0.00    -0.491 OA
ATOM     17  C   LIG A   1     -10.435   0.448 122.438  0.00  0.00    +0.277 C 
ENDBRANCH   6  16
BRANCH   7  18
ATOM     18  O   LIG A   1      -8.610  -2.786 124.496  0.00  0.00    -0.488 OA
ATOM     19  C   LIG A   1      -9.540  -3.201 125.489  0.00  0.00    +0.277 C 
ENDBRANCH   7  18
BRANCH   8  20
ATOM     20  O   LIG A   1      -6.520  -2.039 126.284  0.00  0.00    -0.503 OA
ATOM     21  H   LIG A   1      -6.427  -2.892 125.804  0.00  0.00    +0.292 HD
ENDBRANCH   8  20
BRANCH   3  22
ATOM     22  C   LIG A   1      -6.974   3.368 123.442  0.00  0.00    +0.359 C 
BRANCH  22  23
ATOM     23  O   LIG A   1      -6.012   3.070 122.422  0.00  0.00    -0.443 OA
BRANCH  23  24
ATOM     24  C   LIG A   1      -5.569   4.133 121.703  0.00  0.00    +0.306 C 
ATOM     25  C   LIG A   1      -6.138   4.094 120.318  0.00  0.00    +0.136 C 
ATOM     26  O   LIG A   1      -4.830   5.012 122.109  0.00  0.00    -0.251 OA
ENDBRANCH  23  24
ENDBRANCH  22  23
ENDBRANCH   3  22
TORSDOF 6
ENDMDL
MODEL 9
REMARK VINA RESULT:      -6.4      2.876      4.051
REMARK  Name = NuBBE_1238
REMARK  9 active torsions:
REMARK  status: ('A' for Active; 'I' for Inactive)
REMARK    1  A    between atoms: N_4  and  C_5
REMARK    2  A    between atoms: C_5  and  O_6
REMARK    3  A    between atoms: O_6  and  C_7
REMARK    4  A    between atoms: C_7  and  C_8
REMARK    5  A    between atoms: C_12  and  O_13
REMARK    6  A    between atoms: O_13  and  C_14
REMARK    7  A    between atoms: C_15  and  O_16
REMARK    8  A    between atoms: O_16  and  C_17
REMARK    9  A    between atoms: C_18  and  O_19
REMARK                            x       y       z     vdW  Elec       q    Type
REMARK                         _______ _______ _______ _____ _____    ______ ____
ROOT
ATOM      1  C   LIG A   1      -8.509   2.023 123.162  0.00  0.00    +0.026 A 
ATOM      2  C   LIG A   1      -7.794   1.471 124.241  0.00  0.00    +0.056 A 
ATOM      3  N   LIG A   1      -8.247   0.378 125.019  0.00  0.00    -0.306 N 
ATOM      4  C   LIG A   1      -7.546  -0.077 126.173  0.00  0.00    +0.063 A 
ATOM      5  C   LIG A   1      -8.002  -1.123 126.991  0.00  0.00    +0.076 A 
ATOM      6  C   LIG A   1      -7.304  -1.562 128.131  0.00  0.00    +0.167 A 
ATOM      7  C   LIG A   1      -6.094  -0.955 128.496  0.00  0.00    +0.204 A 
ATOM      8  C   LIG A   1      -5.643   0.128 127.725  0.00  0.00    +0.175 A 
ATOM      9  C   LIG A   1      -6.354   0.546 126.575  0.00  0.00    +0.091 A 
ATOM     10  C   LIG A   1      -5.830   1.652 125.748  0.00  0.00    +0.201 A 
ATOM     11  O   LIG A   1      -4.773   2.199 126.059  0.00  0.00    -0.286 OA
ATOM     12  C   LIG A   1      -6.583   2.104 124.566  0.00  0.00    +0.046 A 
ATOM     13  C   LIG A   1      -6.062   3.165 123.808  0.00  0.00    +0.014 A 
ATOM     14  C   LIG A   1      -6.771   3.652 122.719  0.00  0.00    +0.001 A 
ATOM     15  C   LIG A   1      -8.003   3.091 122.407  0.00  0.00    +0.002 A 
ENDROOT
BRANCH   6  16
ATOM     16  O   LIG A   1      -7.911  -2.633 128.742  0.00  0.00    -0.491 OA
ATOM     17  C   LIG A   1      -8.637  -3.528 127.910  0.00  0.00    +0.277 C 
ENDBRANCH   6  16
BRANCH   7  18
ATOM     18  O   LIG A   1      -5.459  -1.442 129.607  0.00  0.00    -0.488 OA
ATOM     19  C   LIG A   1      -4.470  -2.445 129.417  0.00  0.00    +0.277 C 
ENDBRANCH   7  18
BRANCH   8  20
ATOM     20  O   LIG A   1      -4.509   0.799 128.124  0.00  0.00    -0.503 OA
ATOM     21  H   LIG A   1      -3.798   0.140 128.290  0.00  0.00    +0.292 HD
ENDBRANCH   8  20
BRANCH   3  22
ATOM     22  C   LIG A   1      -9.147  -0.603 124.376  0.00  0.00    +0.359 C 
BRANCH  22  23
ATOM     23  O   LIG A   1      -8.378  -1.572 123.651  0.00  0.00    -0.443 OA
BRANCH  23  24
ATOM     24  C   LIG A   1      -8.809  -2.856 123.749  0.00  0.00    +0.306 C 
ATOM     25  C   LIG A   1      -7.745  -3.713 124.362  0.00  0.00    +0.136 C 
ATOM     26  O   LIG A   1      -9.903  -3.270 123.408  0.00  0.00    -0.251 OA
ENDBRANCH  23  24
ENDBRANCH  22  23
ENDBRANCH   3  22
TORSDOF 6
ENDMDL
