MODEL 1
REMARK VINA RESULT:      -7.4      0.000      0.000
REMARK  Name = NuBBE_1301
REMARK  14 active torsions:
REMARK  status: ('A' for Active; 'I' for Inactive)
REMARK    1  A    between atoms: C_2  and  C_3
REMARK    2  A    between atoms: C_2  and  C_18
REMARK    3  A    between atoms: C_6  and  C_7
REMARK    4  A    between atoms: C_6  and  C_8
REMARK    5  A    between atoms: C_12  and  O_13
REMARK    6  A    between atoms: O_13  and  C_14
REMARK    7  A    between atoms: C_16  and  O_17
REMARK    8  A    between atoms: C_19  and  C_20
REMARK    9  A    between atoms: C_22  and  O_23
REMARK   10  A    between atoms: O_23  and  C_24
REMARK   11  A    between atoms: C_25  and  O_26
REMARK   12  A    between atoms: O_26  and  C_27
REMARK   13  A    between atoms: C_28  and  O_29
REMARK   14  A    between atoms: O_29  and  C_30
REMARK                            x       y       z     vdW  Elec       q    Type
REMARK                         _______ _______ _______ _____ _____    ______ ____
ROOT
ATOM      1  O   LIG A   1      -6.269   4.578 128.731  0.00  0.00    -0.287 OA
ATOM      2  C   LIG A   1      -7.426   4.185 128.718  0.00  0.00    +0.193 C 
ENDROOT
BRANCH   2   3
ATOM      3  C   LIG A   1      -8.510   4.780 129.596  0.00  0.00    +0.105 A 
ATOM      4  C   LIG A   1      -8.642   4.324 130.933  0.00  0.00    +0.147 A 
ATOM      5  O   LIG A   1      -7.752   3.388 131.400  0.00  0.00    -0.481 OA
ATOM      6  C   LIG A   1      -8.147   2.571 132.520  0.00  0.00    +0.123 C 
ATOM      7  C   LIG A   1      -8.803   1.290 131.989  0.00  0.00    +0.060 C 
ATOM      8  C   LIG A   1      -6.845   2.213 133.247  0.00  0.00    +0.060 C 
ATOM      9  C   LIG A   1      -9.071   3.274 133.483  0.00  0.00    +0.020 C 
ATOM     10  C   LIG A   1      -9.745   4.378 133.151  0.00  0.00    +0.015 C 
ATOM     11  C   LIG A   1      -9.624   4.880 131.780  0.00  0.00    +0.059 A 
ATOM     12  C   LIG A   1     -10.484   5.884 131.295  0.00  0.00    +0.134 A 
ATOM     13  C   LIG A   1     -10.372   6.296 129.968  0.00  0.00    +0.092 A 
ATOM     14  C   LIG A   1      -9.406   5.731 129.127  0.00  0.00    +0.135 A 
BRANCH  12  15
ATOM     15  O   LIG A   1     -11.376   6.438 132.179  0.00  0.00    -0.494 OA
ATOM     16  C   LIG A   1     -12.487   7.127 131.613  0.00  0.00    +0.277 C 
ENDBRANCH  12  15
BRANCH  14  17
ATOM     17  O   LIG A   1      -9.386   6.134 127.819  0.00  0.00    -0.506 OA
ATOM     18  H   LIG A   1      -9.883   5.506 127.267  0.00  0.00    +0.292 HD
ENDBRANCH  14  17
ENDBRANCH   2   3
BRANCH   2  19
ATOM     19  C   LIG A   1      -7.856   3.085 127.792  0.00  0.00    +0.052 C 
ATOM     20  C   LIG A   1      -7.800   1.789 128.160  0.00  0.00    +0.012 C 
BRANCH  20  21
ATOM     21  C   LIG A   1      -8.194   0.652 127.303  0.00  0.00    -0.018 A 
ATOM     22  C   LIG A   1      -7.976  -0.661 127.736  0.00  0.00    +0.057 A 
ATOM     23  C   LIG A   1      -8.368  -1.752 126.944  0.00  0.00    +0.166 A 
ATOM     24  C   LIG A   1      -9.031  -1.544 125.713  0.00  0.00    +0.203 A 
ATOM     25  C   LIG A   1      -9.242  -0.230 125.263  0.00  0.00    +0.166 A 
ATOM     26  C   LIG A   1      -8.828   0.841 126.067  0.00  0.00    +0.057 A 
BRANCH  23  27
ATOM     27  O   LIG A   1      -8.160  -3.062 127.313  0.00  0.00    -0.491 OA
ATOM     28  C   LIG A   1      -8.393  -3.382 128.679  0.00  0.00    +0.277 C 
ENDBRANCH  23  27
BRANCH  24  29
ATOM     29  O   LIG A   1      -9.454  -2.692 125.087  0.00  0.00    -0.488 OA
ATOM     30  C   LIG A   1      -8.705  -3.149 123.971  0.00  0.00    +0.277 C 
ENDBRANCH  24  29
BRANCH  25  31
ATOM     31  O   LIG A   1      -9.929  -0.017 124.093  0.00  0.00    -0.491 OA
ATOM     32  C   LIG A   1     -10.218   1.340 123.766  0.00  0.00    +0.277 C 
ENDBRANCH  25  31
ENDBRANCH  20  21
ENDBRANCH   2  19
TORSDOF 8
ENDMDL
MODEL 2
REMARK VINA RESULT:      -7.4      0.258      2.330
REMARK  Name = NuBBE_1301
REMARK  14 active torsions:
REMARK  status: ('A' for Active; 'I' for Inactive)
REMARK    1  A    between atoms: C_2  and  C_3
REMARK    2  A    between atoms: C_2  and  C_18
REMARK    3  A    between atoms: C_6  and  C_7
REMARK    4  A    between atoms: C_6  and  C_8
REMARK    5  A    between atoms: C_12  and  O_13
REMARK    6  A    between atoms: O_13  and  C_14
REMARK    7  A    between atoms: C_16  and  O_17
REMARK    8  A    between atoms: C_19  and  C_20
REMARK    9  A    between atoms: C_22  and  O_23
REMARK   10  A    between atoms: O_23  and  C_24
REMARK   11  A    between atoms: C_25  and  O_26
REMARK   12  A    between atoms: O_26  and  C_27
REMARK   13  A    between atoms: C_28  and  O_29
REMARK   14  A    between atoms: O_29  and  C_30
REMARK                            x       y       z     vdW  Elec       q    Type
REMARK                         _______ _______ _______ _____ _____    ______ ____
ROOT
ATOM      1  O   LIG A   1      -6.244   4.563 128.709  0.00  0.00    -0.287 OA
ATOM      2  C   LIG A   1      -7.402   4.177 128.693  0.00  0.00    +0.193 C 
ENDROOT
BRANCH   2   3
ATOM      3  C   LIG A   1      -8.480   4.764 129.584  0.00  0.00    +0.105 A 
ATOM      4  C   LIG A   1      -8.602   4.296 130.918  0.00  0.00    +0.147 A 
ATOM      5  O   LIG A   1      -7.710   3.355 131.370  0.00  0.00    -0.481 OA
ATOM      6  C   LIG A   1      -8.096   2.529 132.486  0.00  0.00    +0.123 C 
ATOM      7  C   LIG A   1      -8.756   1.252 131.948  0.00  0.00    +0.060 C 
ATOM      8  C   LIG A   1      -6.789   2.164 133.200  0.00  0.00    +0.060 C 
ATOM      9  C   LIG A   1      -9.013   3.223 133.462  0.00  0.00    +0.020 C 
ATOM     10  C   LIG A   1      -9.689   4.330 133.144  0.00  0.00    +0.015 C 
ATOM     11  C   LIG A   1      -9.578   4.844 131.777  0.00  0.00    +0.059 A 
ATOM     12  C   LIG A   1     -10.441   5.852 131.307  0.00  0.00    +0.134 A 
ATOM     13  C   LIG A   1     -10.339   6.277 129.983  0.00  0.00    +0.092 A 
ATOM     14  C   LIG A   1      -9.380   5.719 129.130  0.00  0.00    +0.135 A 
BRANCH  12  15
ATOM     15  O   LIG A   1     -11.327   6.399 132.203  0.00  0.00    -0.494 OA
ATOM     16  C   LIG A   1     -12.417   7.132 131.651  0.00  0.00    +0.277 C 
ENDBRANCH  12  15
BRANCH  14  17
ATOM     17  O   LIG A   1      -9.368   6.134 127.825  0.00  0.00    -0.506 OA
ATOM     18  H   LIG A   1      -9.906   6.938 127.725  0.00  0.00    +0.292 HD
ENDBRANCH  14  17
ENDBRANCH   2   3
BRANCH   2  19
ATOM     19  C   LIG A   1      -7.842   3.094 127.752  0.00  0.00    +0.052 C 
ATOM     20  C   LIG A   1      -7.876   1.799 128.129  0.00  0.00    +0.012 C 
BRANCH  20  21
ATOM     21  C   LIG A   1      -8.285   0.678 127.258  0.00  0.00    -0.018 A 
ATOM     22  C   LIG A   1      -8.965   0.932 126.062  0.00  0.00    +0.057 A 
ATOM     23  C   LIG A   1      -9.339  -0.121 125.212  0.00  0.00    +0.166 A 
ATOM     24  C   LIG A   1      -8.996  -1.454 125.528  0.00  0.00    +0.203 A 
ATOM     25  C   LIG A   1      -8.326  -1.722 126.733  0.00  0.00    +0.166 A 
ATOM     26  C   LIG A   1      -7.977  -0.653 127.571  0.00  0.00    +0.057 A 
BRANCH  23  27
ATOM     27  O   LIG A   1     -10.026   0.072 124.034  0.00  0.00    -0.491 OA
ATOM     28  C   LIG A   1      -9.699   1.241 123.292  0.00  0.00    +0.277 C 
ENDBRANCH  23  27
BRANCH  24  29
ATOM     29  O   LIG A   1      -9.328  -2.377 124.564  0.00  0.00    -0.488 OA
ATOM     30  C   LIG A   1      -8.305  -2.796 123.673  0.00  0.00    +0.277 C 
ENDBRANCH  24  29
BRANCH  25  31
ATOM     31  O   LIG A   1      -7.946  -3.009 127.026  0.00  0.00    -0.491 OA
ATOM     32  C   LIG A   1      -8.591  -3.622 128.140  0.00  0.00    +0.277 C 
ENDBRANCH  25  31
ENDBRANCH  20  21
ENDBRANCH   2  19
TORSDOF 8
ENDMDL
MODEL 3
REMARK VINA RESULT:      -7.2      2.629      8.001
REMARK  Name = NuBBE_1301
REMARK  14 active torsions:
REMARK  status: ('A' for Active; 'I' for Inactive)
REMARK    1  A    between atoms: C_2  and  C_3
REMARK    2  A    between atoms: C_2  and  C_18
REMARK    3  A    between atoms: C_6  and  C_7
REMARK    4  A    between atoms: C_6  and  C_8
REMARK    5  A    between atoms: C_12  and  O_13
REMARK    6  A    between atoms: O_13  and  C_14
REMARK    7  A    between atoms: C_16  and  O_17
REMARK    8  A    between atoms: C_19  and  C_20
REMARK    9  A    between atoms: C_22  and  O_23
REMARK   10  A    between atoms: O_23  and  C_24
REMARK   11  A    between atoms: C_25  and  O_26
REMARK   12  A    between atoms: O_26  and  C_27
REMARK   13  A    between atoms: C_28  and  O_29
REMARK   14  A    between atoms: O_29  and  C_30
REMARK                            x       y       z     vdW  Elec       q    Type
REMARK                         _______ _______ _______ _____ _____    ______ ____
ROOT
ATOM      1  O   LIG A   1      -8.424  -0.763 126.048  0.00  0.00    -0.287 OA
ATOM      2  C   LIG A   1      -8.503   0.455 126.098  0.00  0.00    +0.193 C 
ENDROOT
BRANCH   2   3
ATOM      3  C   LIG A   1      -8.370   1.342 124.875  0.00  0.00    +0.105 A 
ATOM      4  C   LIG A   1      -7.231   2.178 124.750  0.00  0.00    +0.147 A 
ATOM      5  O   LIG A   1      -6.264   2.123 125.724  0.00  0.00    -0.481 OA
ATOM      6  C   LIG A   1      -5.394   3.261 125.887  0.00  0.00    +0.123 C 
ATOM      7  C   LIG A   1      -6.009   4.206 126.928  0.00  0.00    +0.060 C 
ATOM      8  C   LIG A   1      -4.076   2.696 126.427  0.00  0.00    +0.060 C 
ATOM      9  C   LIG A   1      -5.123   4.001 124.601  0.00  0.00    +0.020 C 
ATOM     10  C   LIG A   1      -5.888   3.856 123.517  0.00  0.00    +0.015 C 
ATOM     11  C   LIG A   1      -7.068   2.993 123.610  0.00  0.00    +0.059 A 
ATOM     12  C   LIG A   1      -8.045   2.984 122.595  0.00  0.00    +0.134 A 
ATOM     13  C   LIG A   1      -9.180   2.189 122.746  0.00  0.00    +0.092 A 
ATOM     14  C   LIG A   1      -9.344   1.394 123.886  0.00  0.00    +0.135 A 
BRANCH  12  15
ATOM     15  O   LIG A   1      -7.805   3.744 121.476  0.00  0.00    -0.494 OA
ATOM     16  C   LIG A   1      -8.863   3.826 120.526  0.00  0.00    +0.277 C 
ENDBRANCH  12  15
BRANCH  14  17
ATOM     17  O   LIG A   1     -10.507   0.682 124.005  0.00  0.00    -0.506 OA
ATOM     18  H   LIG A   1     -11.244   1.174 123.603  0.00  0.00    +0.292 HD
ENDBRANCH  14  17
ENDBRANCH   2   3
BRANCH   2  19
ATOM     19  C   LIG A   1      -8.769   1.158 127.397  0.00  0.00    +0.052 C 
ATOM     20  C   LIG A   1      -8.121   0.820 128.530  0.00  0.00    +0.012 C 
BRANCH  20  21
ATOM     21  C   LIG A   1      -8.336   1.456 129.846  0.00  0.00    -0.018 A 
ATOM     22  C   LIG A   1      -9.110   2.619 129.944  0.00  0.00    +0.057 A 
ATOM     23  C   LIG A   1      -9.344   3.221 131.190  0.00  0.00    +0.166 A 
ATOM     24  C   LIG A   1      -8.838   2.640 132.375  0.00  0.00    +0.203 A 
ATOM     25  C   LIG A   1      -8.048   1.481 132.286  0.00  0.00    +0.166 A 
ATOM     26  C   LIG A   1      -7.818   0.908 131.027  0.00  0.00    +0.057 A 
BRANCH  23  27
ATOM     27  O   LIG A   1     -10.081   4.374 131.341  0.00  0.00    -0.491 OA
ATOM     28  C   LIG A   1      -9.812   5.424 130.420  0.00  0.00    +0.277 C 
ENDBRANCH  23  27
BRANCH  24  29
ATOM     29  O   LIG A   1      -9.225   3.268 133.535  0.00  0.00    -0.488 OA
ATOM     30  C   LIG A   1      -8.265   4.074 134.200  0.00  0.00    +0.277 C 
ENDBRANCH  24  29
BRANCH  25  31
ATOM     31  O   LIG A   1      -7.593   0.881 133.435  0.00  0.00    -0.491 OA
ATOM     32  C   LIG A   1      -6.199   1.007 133.705  0.00  0.00    +0.277 C 
ENDBRANCH  25  31
ENDBRANCH  20  21
ENDBRANCH   2  19
TORSDOF 8
ENDMDL
MODEL 4
REMARK VINA RESULT:      -7.1      2.720      7.640
REMARK  Name = NuBBE_1301
REMARK  14 active torsions:
REMARK  status: ('A' for Active; 'I' for Inactive)
REMARK    1  A    between atoms: C_2  and  C_3
REMARK    2  A    between atoms: C_2  and  C_18
REMARK    3  A    between atoms: C_6  and  C_7
REMARK    4  A    between atoms: C_6  and  C_8
REMARK    5  A    between atoms: C_12  and  O_13
REMARK    6  A    between atoms: O_13  and  C_14
REMARK    7  A    between atoms: C_16  and  O_17
REMARK    8  A    between atoms: C_19  and  C_20
REMARK    9  A    between atoms: C_22  and  O_23
REMARK   10  A    between atoms: O_23  and  C_24
REMARK   11  A    between atoms: C_25  and  O_26
REMARK   12  A    between atoms: O_26  and  C_27
REMARK   13  A    between atoms: C_28  and  O_29
REMARK   14  A    between atoms: O_29  and  C_30
REMARK                            x       y       z     vdW  Elec       q    Type
REMARK                         _______ _______ _______ _____ _____    ______ ____
ROOT
ATOM      1  O   LIG A   1      -7.904  -0.992 125.597  0.00  0.00    -0.287 OA
ATOM      2  C   LIG A   1      -8.187   0.190 125.716  0.00  0.00    +0.193 C 
ENDROOT
BRANCH   2   3
ATOM      3  C   LIG A   1      -8.154   1.168 124.556  0.00  0.00    +0.105 A 
ATOM      4  C   LIG A   1      -7.109   2.124 124.490  0.00  0.00    +0.147 A 
ATOM      5  O   LIG A   1      -6.136   2.105 125.460  0.00  0.00    -0.481 OA
ATOM      6  C   LIG A   1      -5.389   3.313 125.701  0.00  0.00    +0.123 C 
ATOM      7  C   LIG A   1      -6.093   4.116 126.803  0.00  0.00    +0.060 C 
ATOM      8  C   LIG A   1      -4.015   2.854 126.204  0.00  0.00    +0.060 C 
ATOM      9  C   LIG A   1      -5.203   4.164 124.469  0.00  0.00    +0.020 C 
ATOM     10  C   LIG A   1      -5.955   4.013 123.377  0.00  0.00    +0.015 C 
ATOM     11  C   LIG A   1      -7.038   3.027 123.409  0.00  0.00    +0.059 A 
ATOM     12  C   LIG A   1      -8.014   2.986 122.394  0.00  0.00    +0.134 A 
ATOM     13  C   LIG A   1      -9.060   2.068 122.489  0.00  0.00    +0.092 A 
ATOM     14  C   LIG A   1      -9.133   1.185 123.572  0.00  0.00    +0.135 A 
BRANCH  12  15
ATOM     15  O   LIG A   1      -7.861   3.841 121.330  0.00  0.00    -0.494 OA
ATOM     16  C   LIG A   1      -8.920   3.863 120.377  0.00  0.00    +0.277 C 
ENDBRANCH  12  15
BRANCH  14  17
ATOM     17  O   LIG A   1     -10.216   0.349 123.640  0.00  0.00    -0.506 OA
ATOM     18  H   LIG A   1     -10.784   0.472 122.860  0.00  0.00    +0.292 HD
ENDBRANCH  14  17
ENDBRANCH   2   3
BRANCH   2  19
ATOM     19  C   LIG A   1      -8.619   0.751 127.039  0.00  0.00    +0.052 C 
ATOM     20  C   LIG A   1      -7.871   0.596 128.151  0.00  0.00    +0.012 C 
BRANCH  20  21
ATOM     21  C   LIG A   1      -8.234   1.109 129.488  0.00  0.00    -0.018 A 
ATOM     22  C   LIG A   1      -7.828   0.420 130.637  0.00  0.00    +0.057 A 
ATOM     23  C   LIG A   1      -8.144   0.908 131.915  0.00  0.00    +0.166 A 
ATOM     24  C   LIG A   1      -8.840   2.128 132.066  0.00  0.00    +0.203 A 
ATOM     25  C   LIG A   1      -9.264   2.821 130.919  0.00  0.00    +0.166 A 
ATOM     26  C   LIG A   1      -8.948   2.304 129.655  0.00  0.00    +0.057 A 
BRANCH  23  27
ATOM     27  O   LIG A   1      -7.787   0.260 133.076  0.00  0.00    -0.491 OA
ATOM     28  C   LIG A   1      -6.395   0.061 133.290  0.00  0.00    +0.277 C 
ENDBRANCH  23  27
BRANCH  24  29
ATOM     29  O   LIG A   1      -8.993   2.546 133.366  0.00  0.00    -0.488 OA
ATOM     30  C   LIG A   1      -8.067   3.498 133.866  0.00  0.00    +0.277 C 
ENDBRANCH  24  29
BRANCH  25  31
ATOM     31  O   LIG A   1      -9.898   4.031 131.055  0.00  0.00    -0.491 OA
ATOM     32  C   LIG A   1      -9.168   5.180 130.626  0.00  0.00    +0.277 C 
ENDBRANCH  25  31
ENDBRANCH  20  21
ENDBRANCH   2  19
TORSDOF 8
ENDMDL
MODEL 5
REMARK VINA RESULT:      -7.1      1.651      8.229
REMARK  Name = NuBBE_1301
REMARK  14 active torsions:
REMARK  status: ('A' for Active; 'I' for Inactive)
REMARK    1  A    between atoms: C_2  and  C_3
REMARK    2  A    between atoms: C_2  and  C_18
REMARK    3  A    between atoms: C_6  and  C_7
REMARK    4  A    between atoms: C_6  and  C_8
REMARK    5  A    between atoms: C_12  and  O_13
REMARK    6  A    between atoms: O_13  and  C_14
REMARK    7  A    between atoms: C_16  and  O_17
REMARK    8  A    between atoms: C_19  and  C_20
REMARK    9  A    between atoms: C_22  and  O_23
REMARK   10  A    between atoms: O_23  and  C_24
REMARK   11  A    between atoms: C_25  and  O_26
REMARK   12  A    between atoms: O_26  and  C_27
REMARK   13  A    between atoms: C_28  and  O_29
REMARK   14  A    between atoms: O_29  and  C_30
REMARK                            x       y       z     vdW  Elec       q    Type
REMARK                         _______ _______ _______ _____ _____    ______ ____
ROOT
ATOM      1  O   LIG A   1      -5.326   1.206 127.299  0.00  0.00    -0.287 OA
ATOM      2  C   LIG A   1      -6.547   1.205 127.288  0.00  0.00    +0.193 C 
ENDROOT
BRANCH   2   3
ATOM      3  C   LIG A   1      -7.367   0.119 126.617  0.00  0.00    +0.105 A 
ATOM      4  C   LIG A   1      -7.684  -1.056 127.346  0.00  0.00    +0.147 A 
ATOM      5  O   LIG A   1      -7.271  -1.151 128.653  0.00  0.00    -0.481 OA
ATOM      6  C   LIG A   1      -7.135  -2.464 129.231  0.00  0.00    +0.123 C 
ATOM      7  C   LIG A   1      -5.694  -2.947 129.023  0.00  0.00    +0.060 C 
ATOM      8  C   LIG A   1      -7.400  -2.282 130.730  0.00  0.00    +0.060 C 
ATOM      9  C   LIG A   1      -8.113  -3.471 128.678  0.00  0.00    +0.020 C 
ATOM     10  C   LIG A   1      -8.766  -3.277 127.530  0.00  0.00    +0.015 C 
ATOM     11  C   LIG A   1      -8.468  -2.069 126.756  0.00  0.00    +0.059 A 
ATOM     12  C   LIG A   1      -8.931  -1.919 125.435  0.00  0.00    +0.134 A 
ATOM     13  C   LIG A   1      -8.581  -0.779 124.713  0.00  0.00    +0.092 A 
ATOM     14  C   LIG A   1      -7.790   0.217 125.298  0.00  0.00    +0.135 A 
BRANCH  12  15
ATOM     15  O   LIG A   1      -9.747  -2.903 124.931  0.00  0.00    -0.494 OA
ATOM     16  C   LIG A   1      -9.481  -3.328 123.598  0.00  0.00    +0.277 C 
ENDBRANCH  12  15
BRANCH  14  17
ATOM     17  O   LIG A   1      -7.430   1.284 124.519  0.00  0.00    -0.506 OA
ATOM     18  H   LIG A   1      -7.188   0.981 123.627  0.00  0.00    +0.292 HD
ENDBRANCH  14  17
ENDBRANCH   2   3
BRANCH   2  19
ATOM     19  C   LIG A   1      -7.326   2.289 127.975  0.00  0.00    +0.052 C 
ATOM     20  C   LIG A   1      -7.157   2.559 129.286  0.00  0.00    +0.012 C 
BRANCH  20  21
ATOM     21  C   LIG A   1      -7.892   3.600 130.033  0.00  0.00    -0.018 A 
ATOM     22  C   LIG A   1      -8.265   4.789 129.396  0.00  0.00    +0.057 A 
ATOM     23  C   LIG A   1      -8.986   5.777 130.086  0.00  0.00    +0.166 A 
ATOM     24  C   LIG A   1      -9.387   5.569 131.425  0.00  0.00    +0.203 A 
ATOM     25  C   LIG A   1      -9.007   4.385 132.078  0.00  0.00    +0.166 A 
ATOM     26  C   LIG A   1      -8.274   3.421 131.370  0.00  0.00    +0.057 A 
BRANCH  23  27
ATOM     27  O   LIG A   1      -9.361   6.972 129.513  0.00  0.00    -0.491 OA
ATOM     28  C   LIG A   1     -10.287   6.897 128.437  0.00  0.00    +0.277 C 
ENDBRANCH  23  27
BRANCH  24  29
ATOM     29  O   LIG A   1     -10.176   6.565 131.950  0.00  0.00    -0.488 OA
ATOM     30  C   LIG A   1     -11.582   6.378 131.918  0.00  0.00    +0.277 C 
ENDBRANCH  24  29
BRANCH  25  31
ATOM     31  O   LIG A   1      -9.433   4.152 133.362  0.00  0.00    -0.491 OA
ATOM     32  C   LIG A   1      -8.440   4.227 134.383  0.00  0.00    +0.277 C 
ENDBRANCH  25  31
ENDBRANCH  20  21
ENDBRANCH   2  19
TORSDOF 8
ENDMDL
MODEL 6
REMARK VINA RESULT:      -7.1      1.584      8.032
REMARK  Name = NuBBE_1301
REMARK  14 active torsions:
REMARK  status: ('A' for Active; 'I' for Inactive)
REMARK    1  A    between atoms: C_2  and  C_3
REMARK    2  A    between atoms: C_2  and  C_18
REMARK    3  A    between atoms: C_6  and  C_7
REMARK    4  A    between atoms: C_6  and  C_8
REMARK    5  A    between atoms: C_12  and  O_13
REMARK    6  A    between atoms: O_13  and  C_14
REMARK    7  A    between atoms: C_16  and  O_17
REMARK    8  A    between atoms: C_19  and  C_20
REMARK    9  A    between atoms: C_22  and  O_23
REMARK   10  A    between atoms: O_23  and  C_24
REMARK   11  A    between atoms: C_25  and  O_26
REMARK   12  A    between atoms: O_26  and  C_27
REMARK   13  A    between atoms: C_28  and  O_29
REMARK   14  A    between atoms: O_29  and  C_30
REMARK                            x       y       z     vdW  Elec       q    Type
REMARK                         _______ _______ _______ _____ _____    ______ ____
ROOT
ATOM      1  O   LIG A   1      -5.817   1.402 127.199  0.00  0.00    -0.287 OA
ATOM      2  C   LIG A   1      -7.010   1.165 127.303  0.00  0.00    +0.193 C 
ENDROOT
BRANCH   2   3
ATOM      3  C   LIG A   1      -7.690   0.015 126.583  0.00  0.00    +0.105 A 
ATOM      4  C   LIG A   1      -7.925  -1.195 127.285  0.00  0.00    +0.147 A 
ATOM      5  O   LIG A   1      -7.566  -1.269 128.609  0.00  0.00    -0.481 OA
ATOM      6  C   LIG A   1      -7.331  -2.571 129.180  0.00  0.00    +0.123 C 
ATOM      7  C   LIG A   1      -5.842  -2.911 129.035  0.00  0.00    +0.060 C 
ATOM      8  C   LIG A   1      -7.680  -2.437 130.667  0.00  0.00    +0.060 C 
ATOM      9  C   LIG A   1      -8.180  -3.659 128.572  0.00  0.00    +0.020 C 
ATOM     10  C   LIG A   1      -8.795  -3.512 127.396  0.00  0.00    +0.015 C 
ATOM     11  C   LIG A   1      -8.580  -2.270 126.649  0.00  0.00    +0.059 A 
ATOM     12  C   LIG A   1      -8.994  -2.146 125.309  0.00  0.00    +0.134 A 
ATOM     13  C   LIG A   1      -8.723  -0.967 124.615  0.00  0.00    +0.092 A 
ATOM     14  C   LIG A   1      -8.059   0.091 125.247  0.00  0.00    +0.135 A 
BRANCH  12  15
ATOM     15  O   LIG A   1      -9.687  -3.197 124.758  0.00  0.00    -0.494 OA
ATOM     16  C   LIG A   1      -9.616  -3.331 123.341  0.00  0.00    +0.277 C 
ENDBRANCH  12  15
BRANCH  14  17
ATOM     17  O   LIG A   1      -7.768   1.199 124.497  0.00  0.00    -0.506 OA
ATOM     18  H   LIG A   1      -8.513   1.824 124.520  0.00  0.00    +0.292 HD
ENDBRANCH  14  17
ENDBRANCH   2   3
BRANCH   2  19
ATOM     19  C   LIG A   1      -7.889   2.000 128.188  0.00  0.00    +0.052 C 
ATOM     20  C   LIG A   1      -7.508   3.223 128.612  0.00  0.00    +0.012 C 
BRANCH  20  21
ATOM     21  C   LIG A   1      -8.311   4.097 129.491  0.00  0.00    -0.018 A 
ATOM     22  C   LIG A   1      -8.651   3.672 130.781  0.00  0.00    +0.057 A 
ATOM     23  C   LIG A   1      -9.392   4.502 131.637  0.00  0.00    +0.166 A 
ATOM     24  C   LIG A   1      -9.771   5.801 131.228  0.00  0.00    +0.203 A 
ATOM     25  C   LIG A   1      -9.447   6.232 129.930  0.00  0.00    +0.166 A 
ATOM     26  C   LIG A   1      -8.719   5.377 129.090  0.00  0.00    +0.057 A 
BRANCH  23  27
ATOM     27  O   LIG A   1      -9.769   4.127 132.907  0.00  0.00    -0.491 OA
ATOM     28  C   LIG A   1      -8.721   3.787 133.806  0.00  0.00    +0.277 C 
ENDBRANCH  23  27
BRANCH  24  29
ATOM     29  O   LIG A   1     -10.400   6.548 132.195  0.00  0.00    -0.488 OA
ATOM     30  C   LIG A   1     -11.797   6.761 132.059  0.00  0.00    +0.277 C 
ENDBRANCH  24  29
BRANCH  25  31
ATOM     31  O   LIG A   1      -9.768   7.508 129.540  0.00  0.00    -0.491 OA
ATOM     32  C   LIG A   1     -10.528   7.632 128.340  0.00  0.00    +0.277 C 
ENDBRANCH  25  31
ENDBRANCH  20  21
ENDBRANCH   2  19
TORSDOF 8
ENDMDL
MODEL 7
REMARK VINA RESULT:      -7.0      4.397      5.665
REMARK  Name = NuBBE_1301
REMARK  14 active torsions:
REMARK  status: ('A' for Active; 'I' for Inactive)
REMARK    1  A    between atoms: C_2  and  C_3
REMARK    2  A    between atoms: C_2  and  C_18
REMARK    3  A    between atoms: C_6  and  C_7
REMARK    4  A    between atoms: C_6  and  C_8
REMARK    5  A    between atoms: C_12  and  O_13
REMARK    6  A    between atoms: O_13  and  C_14
REMARK    7  A    between atoms: C_16  and  O_17
REMARK    8  A    between atoms: C_19  and  C_20
REMARK    9  A    between atoms: C_22  and  O_23
REMARK   10  A    between atoms: O_23  and  C_24
REMARK   11  A    between atoms: C_25  and  O_26
REMARK   12  A    between atoms: O_26  and  C_27
REMARK   13  A    between atoms: C_28  and  O_29
REMARK   14  A    between atoms: O_29  and  C_30
REMARK                            x       y       z     vdW  Elec       q    Type
REMARK                         _______ _______ _______ _____ _____    ______ ____
ROOT
ATOM      1  O   LIG A   1      -1.574   3.471 126.528  0.00  0.00    -0.287 OA
ATOM      2  C   LIG A   1      -2.668   3.540 127.066  0.00  0.00    +0.193 C 
ENDROOT
BRANCH   2   3
ATOM      3  C   LIG A   1      -2.878   4.159 128.435  0.00  0.00    +0.105 A 
ATOM      4  C   LIG A   1      -3.463   3.376 129.464  0.00  0.00    +0.147 A 
ATOM      5  O   LIG A   1      -3.781   2.067 129.195  0.00  0.00    -0.481 OA
ATOM      6  C   LIG A   1      -4.788   1.430 130.005  0.00  0.00    +0.123 C 
ATOM      7  C   LIG A   1      -6.154   1.619 129.333  0.00  0.00    +0.060 C 
ATOM      8  C   LIG A   1      -4.426  -0.060 130.013  0.00  0.00    +0.060 C 
ATOM      9  C   LIG A   1      -4.827   1.934 131.426  0.00  0.00    +0.020 C 
ATOM     10  C   LIG A   1      -4.265   3.089 131.790  0.00  0.00    +0.015 C 
ATOM     11  C   LIG A   1      -3.645   3.918 130.754  0.00  0.00    +0.059 A 
ATOM     12  C   LIG A   1      -3.252   5.244 131.020  0.00  0.00    +0.134 A 
ATOM     13  C   LIG A   1      -2.715   6.018 129.993  0.00  0.00    +0.092 A 
ATOM     14  C   LIG A   1      -2.551   5.480 128.711  0.00  0.00    +0.135 A 
BRANCH  12  15
ATOM     15  O   LIG A   1      -3.388   5.700 132.309  0.00  0.00    -0.494 OA
ATOM     16  C   LIG A   1      -2.184   6.016 133.001  0.00  0.00    +0.277 C 
ENDBRANCH  12  15
BRANCH  14  17
ATOM     17  O   LIG A   1      -2.075   6.308 127.729  0.00  0.00    -0.506 OA
ATOM     18  H   LIG A   1      -2.500   6.098 126.880  0.00  0.00    +0.292 HD
ENDBRANCH  14  17
ENDBRANCH   2   3
BRANCH   2  19
ATOM     19  C   LIG A   1      -3.900   3.030 126.378  0.00  0.00    +0.052 C 
ATOM     20  C   LIG A   1      -4.675   3.836 125.624  0.00  0.00    +0.012 C 
BRANCH  20  21
ATOM     21  C   LIG A   1      -5.906   3.410 124.926  0.00  0.00    -0.018 A 
ATOM     22  C   LIG A   1      -6.979   2.887 125.655  0.00  0.00    +0.057 A 
ATOM     23  C   LIG A   1      -8.165   2.501 125.009  0.00  0.00    +0.166 A 
ATOM     24  C   LIG A   1      -8.312   2.676 123.615  0.00  0.00    +0.203 A 
ATOM     25  C   LIG A   1      -7.235   3.187 122.871  0.00  0.00    +0.166 A 
ATOM     26  C   LIG A   1      -6.057   3.551 123.540  0.00  0.00    +0.057 A 
BRANCH  23  27
ATOM     27  O   LIG A   1      -9.243   1.963 125.676  0.00  0.00    -0.491 OA
ATOM     28  C   LIG A   1      -8.977   0.849 126.519  0.00  0.00    +0.277 C 
ENDBRANCH  23  27
BRANCH  24  29
ATOM     29  O   LIG A   1      -9.556   2.357 123.124  0.00  0.00    -0.488 OA
ATOM     30  C   LIG A   1      -9.761   1.032 122.659  0.00  0.00    +0.277 C 
ENDBRANCH  24  29
BRANCH  25  31
ATOM     31  O   LIG A   1      -7.385   3.406 121.524  0.00  0.00    -0.491 OA
ATOM     32  C   LIG A   1      -6.233   3.873 120.826  0.00  0.00    +0.277 C 
ENDBRANCH  25  31
ENDBRANCH  20  21
ENDBRANCH   2  19
TORSDOF 8
ENDMDL
MODEL 8
REMARK VINA RESULT:      -6.9      2.092      2.826
REMARK  Name = NuBBE_1301
REMARK  14 active torsions:
REMARK  status: ('A' for Active; 'I' for Inactive)
REMARK    1  A    between atoms: C_2  and  C_3
REMARK    2  A    between atoms: C_2  and  C_18
REMARK    3  A    between atoms: C_6  and  C_7
REMARK    4  A    between atoms: C_6  and  C_8
REMARK    5  A    between atoms: C_12  and  O_13
REMARK    6  A    between atoms: O_13  and  C_14
REMARK    7  A    between atoms: C_16  and  O_17
REMARK    8  A    between atoms: C_19  and  C_20
REMARK    9  A    between atoms: C_22  and  O_23
REMARK   10  A    between atoms: O_23  and  C_24
REMARK   11  A    between atoms: C_25  and  O_26
REMARK   12  A    between atoms: O_26  and  C_27
REMARK   13  A    between atoms: C_28  and  O_29
REMARK   14  A    between atoms: O_29  and  C_30
REMARK                            x       y       z     vdW  Elec       q    Type
REMARK                         _______ _______ _______ _____ _____    ______ ____
ROOT
ATOM      1  O   LIG A   1      -9.123   2.095 132.393  0.00  0.00    -0.287 OA
ATOM      2  C   LIG A   1      -9.025   2.498 131.244  0.00  0.00    +0.193 C 
ENDROOT
BRANCH   2   3
ATOM      3  C   LIG A   1      -9.239   3.949 130.856  0.00  0.00    +0.105 A 
ATOM      4  C   LIG A   1      -8.165   4.866 130.997  0.00  0.00    +0.147 A 
ATOM      5  O   LIG A   1      -6.953   4.397 131.442  0.00  0.00    -0.481 OA
ATOM      6  C   LIG A   1      -6.043   5.333 132.053  0.00  0.00    +0.123 C 
ATOM      7  C   LIG A   1      -6.290   5.346 133.567  0.00  0.00    +0.060 C 
ATOM      8  C   LIG A   1      -4.639   4.784 131.771  0.00  0.00    +0.060 C 
ATOM      9  C   LIG A   1      -6.147   6.729 131.491  0.00  0.00    +0.020 C 
ATOM     10  C   LIG A   1      -7.205   7.140 130.789  0.00  0.00    +0.015 C 
ATOM     11  C   LIG A   1      -8.328   6.215 130.618  0.00  0.00    +0.059 A 
ATOM     12  C   LIG A   1      -9.563   6.656 130.105  0.00  0.00    +0.134 A 
ATOM     13  C   LIG A   1     -10.624   5.756 130.008  0.00  0.00    +0.092 A 
ATOM     14  C   LIG A   1     -10.461   4.423 130.400  0.00  0.00    +0.135 A 
BRANCH  12  15
ATOM     15  O   LIG A   1      -9.647   7.962 129.688  0.00  0.00    -0.494 OA
ATOM     16  C   LIG A   1     -10.297   8.189 128.440  0.00  0.00    +0.277 C 
ENDBRANCH  12  15
BRANCH  14  17
ATOM     17  O   LIG A   1     -11.556   3.602 130.337  0.00  0.00    -0.506 OA
ATOM     18  H   LIG A   1     -12.323   4.035 130.749  0.00  0.00    +0.292 HD
ENDBRANCH  14  17
ENDBRANCH   2   3
BRANCH   2  19
ATOM     19  C   LIG A   1      -8.653   1.565 130.129  0.00  0.00    +0.052 C 
ATOM     20  C   LIG A   1      -8.571   1.988 128.851  0.00  0.00    +0.012 C 
BRANCH  20  21
ATOM     21  C   LIG A   1      -8.223   1.129 127.700  0.00  0.00    -0.018 A 
ATOM     22  C   LIG A   1      -7.047   0.371 127.722  0.00  0.00    +0.057 A 
ATOM     23  C   LIG A   1      -6.715  -0.469 126.646  0.00  0.00    +0.166 A 
ATOM     24  C   LIG A   1      -7.586  -0.597 125.541  0.00  0.00    +0.203 A 
ATOM     25  C   LIG A   1      -8.763   0.170 125.503  0.00  0.00    +0.166 A 
ATOM     26  C   LIG A   1      -9.063   1.012 126.584  0.00  0.00    +0.057 A 
BRANCH  23  27
ATOM     27  O   LIG A   1      -5.563  -1.221 126.608  0.00  0.00    -0.491 OA
ATOM     28  C   LIG A   1      -5.418  -2.213 127.617  0.00  0.00    +0.277 C 
ENDBRANCH  23  27
BRANCH  24  29
ATOM     29  O   LIG A   1      -7.197  -1.529 124.607  0.00  0.00    -0.488 OA
ATOM     30  C   LIG A   1      -7.840  -2.794 124.631  0.00  0.00    +0.277 C 
ENDBRANCH  24  29
BRANCH  25  31
ATOM     31  O   LIG A   1      -9.639   0.016 124.457  0.00  0.00    -0.491 OA
ATOM     32  C   LIG A   1     -10.087   1.213 123.824  0.00  0.00    +0.277 C 
ENDBRANCH  25  31
ENDBRANCH  20  21
ENDBRANCH   2  19
TORSDOF 8
ENDMDL
MODEL 9
REMARK VINA RESULT:      -6.9      2.400      7.789
REMARK  Name = NuBBE_1301
REMARK  14 active torsions:
REMARK  status: ('A' for Active; 'I' for Inactive)
REMARK    1  A    between atoms: C_2  and  C_3
REMARK    2  A    between atoms: C_2  and  C_18
REMARK    3  A    between atoms: C_6  and  C_7
REMARK    4  A    between atoms: C_6  and  C_8
REMARK    5  A    between atoms: C_12  and  O_13
REMARK    6  A    between atoms: O_13  and  C_14
REMARK    7  A    between atoms: C_16  and  O_17
REMARK    8  A    between atoms: C_19  and  C_20
REMARK    9  A    between atoms: C_22  and  O_23
REMARK   10  A    between atoms: O_23  and  C_24
REMARK   11  A    between atoms: C_25  and  O_26
REMARK   12  A    between atoms: O_26  and  C_27
REMARK   13  A    between atoms: C_28  and  O_29
REMARK   14  A    between atoms: O_29  and  C_30
REMARK                            x       y       z     vdW  Elec       q    Type
REMARK                         _______ _______ _______ _____ _____    ______ ____
ROOT
ATOM      1  O   LIG A   1      -4.970   0.038 126.055  0.00  0.00    -0.287 OA
ATOM      2  C   LIG A   1      -5.952   0.737 126.253  0.00  0.00    +0.193 C 
ENDROOT
BRANCH   2   3
ATOM      3  C   LIG A   1      -6.757   1.368 125.132  0.00  0.00    +0.105 A 
ATOM      4  C   LIG A   1      -7.711   0.579 124.440  0.00  0.00    +0.147 A 
ATOM      5  O   LIG A   1      -7.904  -0.721 124.838  0.00  0.00    -0.481 OA
ATOM      6  C   LIG A   1      -8.459  -1.651 123.887  0.00  0.00    +0.123 C 
ATOM      7  C   LIG A   1      -7.308  -2.335 123.137  0.00  0.00    +0.060 C 
ATOM      8  C   LIG A   1      -9.212  -2.693 124.722  0.00  0.00    +0.060 C 
ATOM      9  C   LIG A   1      -9.418  -1.016 122.912  0.00  0.00    +0.020 C 
ATOM     10  C   LIG A   1      -9.460   0.303 122.706  0.00  0.00    +0.015 C 
ATOM     11  C   LIG A   1      -8.493   1.147 123.412  0.00  0.00    +0.059 A 
ATOM     12  C   LIG A   1      -8.319   2.501 123.064  0.00  0.00    +0.134 A 
ATOM     13  C   LIG A   1      -7.351   3.257 123.723  0.00  0.00    +0.092 A 
ATOM     14  C   LIG A   1      -6.568   2.684 124.732  0.00  0.00    +0.135 A 
BRANCH  12  15
ATOM     15  O   LIG A   1      -9.152   3.022 122.104  0.00  0.00    -0.494 OA
ATOM     16  C   LIG A   1      -8.523   3.653 120.993  0.00  0.00    +0.277 C 
ENDBRANCH  12  15
BRANCH  14  17
ATOM     17  O   LIG A   1      -5.593   3.460 125.300  0.00  0.00    -0.506 OA
ATOM     18  H   LIG A   1      -5.992   4.112 125.902  0.00  0.00    +0.292 HD
ENDBRANCH  14  17
ENDBRANCH   2   3
BRANCH   2  19
ATOM     19  C   LIG A   1      -6.445   0.998 127.645  0.00  0.00    +0.052 C 
ATOM     20  C   LIG A   1      -7.650   1.559 127.876  0.00  0.00    +0.012 C 
BRANCH  20  21
ATOM     21  C   LIG A   1      -8.200   1.856 129.215  0.00  0.00    -0.018 A 
ATOM     22  C   LIG A   1      -7.997   0.959 130.270  0.00  0.00    +0.057 A 
ATOM     23  C   LIG A   1      -8.491   1.239 131.554  0.00  0.00    +0.166 A 
ATOM     24  C   LIG A   1      -9.164   2.454 131.815  0.00  0.00    +0.203 A 
ATOM     25  C   LIG A   1      -9.385   3.355 130.760  0.00  0.00    +0.166 A 
ATOM     26  C   LIG A   1      -8.893   3.044 129.484  0.00  0.00    +0.057 A 
BRANCH  23  27
ATOM     27  O   LIG A   1      -8.338   0.384 132.622  0.00  0.00    -0.491 OA
ATOM     28  C   LIG A   1      -7.975  -0.957 132.314  0.00  0.00    +0.277 C 
ENDBRANCH  23  27
BRANCH  24  29
ATOM     29  O   LIG A   1      -9.504   2.652 133.132  0.00  0.00    -0.488 OA
ATOM     30  C   LIG A   1      -8.722   3.568 133.884  0.00  0.00    +0.277 C 
ENDBRANCH  24  29
BRANCH  25  31
ATOM     31  O   LIG A   1      -9.994   4.559 131.013  0.00  0.00    -0.491 OA
ATOM     32  C   LIG A   1     -11.251   4.779 130.377  0.00  0.00    +0.277 C 
ENDBRANCH  25  31
ENDBRANCH  20  21
ENDBRANCH   2  19
TORSDOF 8
ENDMDL
