MODEL 1
REMARK VINA RESULT:      -6.3      0.000      0.000
REMARK  Name = NuBBE_473
REMARK  6 active torsions:
REMARK  status: ('A' for Active; 'I' for Inactive)
REMARK    1  A    between atoms: C_2  and  C_3
REMARK    2  A    between atoms: C_2  and  O_20
REMARK    3  A    between atoms: C_6  and  O_19
REMARK    4  A    between atoms: C_10  and  O_16
REMARK    5  A    between atoms: C_13  and  C_15
REMARK    6  A    between atoms: O_20  and  C_21
REMARK                            x       y       z     vdW  Elec       q    Type
REMARK                         _______ _______ _______ _____ _____    ______ ____
ROOT
ATOM      1  C   LIG A   1     -10.561   7.125 128.991  0.00  0.00    +0.077 C 
ATOM      2  C   LIG A   1     -10.229   7.597 127.779  0.00  0.00    +0.201 C 
ATOM      3  O   LIG A   1     -11.101   8.046 126.822  0.00  0.00    -0.470 OA
ATOM      4  C   LIG A   1     -12.480   7.744 127.046  0.00  0.00    +0.308 C 
ATOM      5  C   LIG A   1     -12.914   7.868 128.506  0.00  0.00    +0.071 C 
ATOM      6  C   LIG A   1     -12.000   7.057 129.448  0.00  0.00    +0.067 C 
ATOM      7  C   LIG A   1     -12.274   7.695 130.830  0.00  0.00    +0.123 C 
ATOM      8  C   LIG A   1     -12.909   9.068 130.582  0.00  0.00    +0.035 C 
ATOM      9  C   LIG A   1     -12.815   9.296 129.074  0.00  0.00    -0.002 C 
ATOM     10  C   LIG A   1     -13.887  10.245 128.562  0.00  0.00    +0.008 C 
ENDROOT
BRANCH   1  12
ATOM     11  O   LIG A   1      -8.603   7.321 130.342  0.00  0.00    -0.245 OA
ATOM     12  C   LIG A   1      -9.506   6.619 129.909  0.00  0.00    +0.338 C 
BRANCH  12  13
ATOM     13  O   LIG A   1      -9.656   5.291 130.140  0.00  0.00    -0.465 OA
ATOM     14  C   LIG A   1      -9.989   4.943 131.485  0.00  0.00    +0.280 C 
ENDBRANCH  12  13
ENDBRANCH   1  12
BRANCH   7  15
ATOM     15  O   LIG A   1     -13.213   6.880 131.532  0.00  0.00    -0.391 OA
ATOM     16  H   LIG A   1     -12.705   6.281 132.106  0.00  0.00    +0.210 HD
ENDBRANCH   7  15
BRANCH   4  17
ATOM     17  O   LIG A   1     -12.787   6.454 126.529  0.00  0.00    -0.357 OA
ATOM     18  H   LIG A   1     -12.962   5.877 127.288  0.00  0.00    +0.213 HD
ENDBRANCH   4  17
TORSDOF 4
ENDMDL
MODEL 2
REMARK VINA RESULT:      -5.7      2.224      5.147
REMARK  Name = NuBBE_473
REMARK  6 active torsions:
REMARK  status: ('A' for Active; 'I' for Inactive)
REMARK    1  A    between atoms: C_2  and  C_3
REMARK    2  A    between atoms: C_2  and  O_20
REMARK    3  A    between atoms: C_6  and  O_19
REMARK    4  A    between atoms: C_10  and  O_16
REMARK    5  A    between atoms: C_13  and  C_15
REMARK    6  A    between atoms: O_20  and  C_21
REMARK                            x       y       z     vdW  Elec       q    Type
REMARK                         _______ _______ _______ _____ _____    ______ ____
ROOT
ATOM      1  C   LIG A   1     -10.533   6.103 129.817  0.00  0.00    +0.077 C 
ATOM      2  C   LIG A   1     -11.506   5.182 129.888  0.00  0.00    +0.201 C 
ATOM      3  O   LIG A   1     -11.355   3.876 130.275  0.00  0.00    -0.470 OA
ATOM      4  C   LIG A   1     -10.009   3.406 130.364  0.00  0.00    +0.308 C 
ATOM      5  C   LIG A   1      -9.030   4.427 130.939  0.00  0.00    +0.071 C 
ATOM      6  C   LIG A   1      -9.106   5.778 130.197  0.00  0.00    +0.067 C 
ATOM      7  C   LIG A   1      -8.460   6.762 131.201  0.00  0.00    +0.123 C 
ATOM      8  C   LIG A   1      -8.484   6.091 132.578  0.00  0.00    +0.035 C 
ATOM      9  C   LIG A   1      -9.315   4.820 132.400  0.00  0.00    -0.002 C 
ATOM     10  C   LIG A   1      -8.957   3.745 133.415  0.00  0.00    +0.008 C 
ENDROOT
BRANCH   1  12
ATOM     11  O   LIG A   1     -11.671   8.200 129.841  0.00  0.00    -0.245 OA
ATOM     12  C   LIG A   1     -10.835   7.473 129.324  0.00  0.00    +0.338 C 
BRANCH  12  13
ATOM     13  O   LIG A   1     -10.111   7.764 128.215  0.00  0.00    -0.465 OA
ATOM     14  C   LIG A   1     -10.875   7.930 127.019  0.00  0.00    +0.280 C 
ENDBRANCH  12  13
ENDBRANCH   1  12
BRANCH   7  15
ATOM     15  O   LIG A   1      -7.100   6.974 130.823  0.00  0.00    -0.391 OA
ATOM     16  H   LIG A   1      -6.541   6.610 131.531  0.00  0.00    +0.210 HD
ENDBRANCH   7  15
BRANCH   4  17
ATOM     17  O   LIG A   1      -9.572   2.938 129.092  0.00  0.00    -0.357 OA
ATOM     18  H   LIG A   1     -10.366   2.726 128.578  0.00  0.00    +0.213 HD
ENDBRANCH   4  17
TORSDOF 4
ENDMDL
MODEL 3
REMARK VINA RESULT:      -5.5      9.595     11.714
REMARK  Name = NuBBE_473
REMARK  6 active torsions:
REMARK  status: ('A' for Active; 'I' for Inactive)
REMARK    1  A    between atoms: C_2  and  C_3
REMARK    2  A    between atoms: C_2  and  O_20
REMARK    3  A    between atoms: C_6  and  O_19
REMARK    4  A    between atoms: C_10  and  O_16
REMARK    5  A    between atoms: C_13  and  C_15
REMARK    6  A    between atoms: O_20  and  C_21
REMARK                            x       y       z     vdW  Elec       q    Type
REMARK                         _______ _______ _______ _____ _____    ______ ____
ROOT
ATOM      1  C   LIG A   1      -6.541  -2.109 125.431  0.00  0.00    +0.077 C 
ATOM      2  C   LIG A   1      -5.470  -1.698 126.129  0.00  0.00    +0.201 C 
ATOM      3  O   LIG A   1      -5.493  -1.088 127.356  0.00  0.00    -0.470 OA
ATOM      4  C   LIG A   1      -6.771  -0.631 127.800  0.00  0.00    +0.308 C 
ATOM      5  C   LIG A   1      -7.922  -1.580 127.466  0.00  0.00    +0.071 C 
ATOM      6  C   LIG A   1      -7.945  -1.950 125.968  0.00  0.00    +0.067 C 
ATOM      7  C   LIG A   1      -8.802  -3.237 125.942  0.00  0.00    +0.123 C 
ATOM      8  C   LIG A   1      -8.824  -3.800 127.367  0.00  0.00    +0.035 C 
ATOM      9  C   LIG A   1      -7.828  -2.952 128.158  0.00  0.00    -0.002 C 
ATOM     10  C   LIG A   1      -8.143  -2.922 129.645  0.00  0.00    +0.008 C 
ENDROOT
BRANCH   1  12
ATOM     11  O   LIG A   1      -6.731  -2.155 123.053  0.00  0.00    -0.245 OA
ATOM     12  C   LIG A   1      -6.368  -2.708 124.081  0.00  0.00    +0.338 C 
BRANCH  12  13
ATOM     13  O   LIG A   1      -5.819  -3.946 124.162  0.00  0.00    -0.465 OA
ATOM     14  C   LIG A   1      -4.542  -4.085 123.537  0.00  0.00    +0.280 C 
ENDBRANCH  12  13
ENDBRANCH   1  12
BRANCH   7  15
ATOM     15  O   LIG A   1     -10.136  -2.892 125.568  0.00  0.00    -0.391 OA
ATOM     16  H   LIG A   1     -10.685  -3.686 125.687  0.00  0.00    +0.210 HD
ENDBRANCH   7  15
BRANCH   4  17
ATOM     17  O   LIG A   1      -7.024   0.676 127.296  0.00  0.00    -0.357 OA
ATOM     18  H   LIG A   1      -7.031   1.278 128.055  0.00  0.00    +0.213 HD
ENDBRANCH   4  17
TORSDOF 4
ENDMDL
MODEL 4
REMARK VINA RESULT:      -5.5     10.317     11.446
REMARK  Name = NuBBE_473
REMARK  6 active torsions:
REMARK  status: ('A' for Active; 'I' for Inactive)
REMARK    1  A    between atoms: C_2  and  C_3
REMARK    2  A    between atoms: C_2  and  O_20
REMARK    3  A    between atoms: C_6  and  O_19
REMARK    4  A    between atoms: C_10  and  O_16
REMARK    5  A    between atoms: C_13  and  C_15
REMARK    6  A    between atoms: O_20  and  C_21
REMARK                            x       y       z     vdW  Elec       q    Type
REMARK                         _______ _______ _______ _____ _____    ______ ____
ROOT
ATOM      1  C   LIG A   1      -8.492  -2.604 126.320  0.00  0.00    +0.077 C 
ATOM      2  C   LIG A   1      -9.464  -2.921 125.452  0.00  0.00    +0.201 C 
ATOM      3  O   LIG A   1      -9.638  -2.384 124.203  0.00  0.00    -0.470 OA
ATOM      4  C   LIG A   1      -8.869  -1.215 123.916  0.00  0.00    +0.308 C 
ATOM      5  C   LIG A   1      -7.446  -1.255 124.472  0.00  0.00    +0.071 C 
ATOM      6  C   LIG A   1      -7.427  -1.586 125.980  0.00  0.00    +0.067 C 
ATOM      7  C   LIG A   1      -5.974  -2.062 126.211  0.00  0.00    +0.123 C 
ATOM      8  C   LIG A   1      -5.391  -2.434 124.844  0.00  0.00    +0.035 C 
ATOM      9  C   LIG A   1      -6.563  -2.361 123.866  0.00  0.00    -0.002 C 
ATOM     10  C   LIG A   1      -6.113  -2.085 122.439  0.00  0.00    +0.008 C 
ENDROOT
BRANCH   1  12
ATOM     11  O   LIG A   1      -8.789  -4.390 127.874  0.00  0.00    -0.245 OA
ATOM     12  C   LIG A   1      -8.460  -3.231 127.668  0.00  0.00    +0.338 C 
BRANCH  12  13
ATOM     13  O   LIG A   1      -8.081  -2.336 128.614  0.00  0.00    -0.465 OA
ATOM     14  C   LIG A   1      -7.585  -2.909 129.826  0.00  0.00    +0.280 C 
ENDBRANCH  12  13
ENDBRANCH   1  12
BRANCH   7  15
ATOM     15  O   LIG A   1      -5.217  -0.976 126.748  0.00  0.00    -0.391 OA
ATOM     16  H   LIG A   1      -5.530  -0.825 127.657  0.00  0.00    +0.210 HD
ENDBRANCH   7  15
BRANCH   4  17
ATOM     17  O   LIG A   1      -9.561  -0.054 124.364  0.00  0.00    -0.357 OA
ATOM     18  H   LIG A   1      -8.964   0.420 124.963  0.00  0.00    +0.213 HD
ENDBRANCH   4  17
TORSDOF 4
ENDMDL
MODEL 5
REMARK VINA RESULT:      -5.5      9.131     11.188
REMARK  Name = NuBBE_473
REMARK  6 active torsions:
REMARK  status: ('A' for Active; 'I' for Inactive)
REMARK    1  A    between atoms: C_2  and  C_3
REMARK    2  A    between atoms: C_2  and  O_20
REMARK    3  A    between atoms: C_6  and  O_19
REMARK    4  A    between atoms: C_10  and  O_16
REMARK    5  A    between atoms: C_13  and  C_15
REMARK    6  A    between atoms: O_20  and  C_21
REMARK                            x       y       z     vdW  Elec       q    Type
REMARK                         _______ _______ _______ _____ _____    ______ ____
ROOT
ATOM      1  C   LIG A   1      -8.368  -0.262 125.563  0.00  0.00    +0.077 C 
ATOM      2  C   LIG A   1      -7.255   0.160 126.184  0.00  0.00    +0.201 C 
ATOM      3  O   LIG A   1      -6.160  -0.607 126.486  0.00  0.00    -0.470 OA
ATOM      4  C   LIG A   1      -6.334  -2.018 126.353  0.00  0.00    +0.308 C 
ATOM      5  C   LIG A   1      -7.167  -2.431 125.141  0.00  0.00    +0.071 C 
ATOM      6  C   LIG A   1      -8.521  -1.691 125.096  0.00  0.00    +0.067 C 
ATOM      7  C   LIG A   1      -8.953  -1.850 123.619  0.00  0.00    +0.123 C 
ATOM      8  C   LIG A   1      -7.702  -2.215 122.813  0.00  0.00    +0.035 C 
ATOM      9  C   LIG A   1      -6.532  -2.070 123.786  0.00  0.00    -0.002 C 
ATOM     10  C   LIG A   1      -5.346  -2.942 123.402  0.00  0.00    +0.008 C 
ENDROOT
BRANCH   1  12
ATOM     11  O   LIG A   1     -10.667   0.378 125.590  0.00  0.00    -0.245 OA
ATOM     12  C   LIG A   1      -9.505   0.673 125.350  0.00  0.00    +0.338 C 
BRANCH  12  13
ATOM     13  O   LIG A   1      -9.081   1.843 124.810  0.00  0.00    -0.465 OA
ATOM     14  C   LIG A   1      -9.316   1.983 123.408  0.00  0.00    +0.280 C 
ENDBRANCH  12  13
ENDBRANCH   1  12
BRANCH   7  15
ATOM     15  O   LIG A   1      -9.883  -2.930 123.528  0.00  0.00    -0.391 OA
ATOM     16  H   LIG A   1      -9.400  -3.748 123.739  0.00  0.00    +0.210 HD
ENDBRANCH   7  15
BRANCH   4  17
ATOM     17  O   LIG A   1      -6.875  -2.559 127.554  0.00  0.00    -0.357 OA
ATOM     18  H   LIG A   1      -7.838  -2.467 127.499  0.00  0.00    +0.213 HD
ENDBRANCH   4  17
TORSDOF 4
ENDMDL
MODEL 6
REMARK VINA RESULT:      -5.3      2.265      5.741
REMARK  Name = NuBBE_473
REMARK  6 active torsions:
REMARK  status: ('A' for Active; 'I' for Inactive)
REMARK    1  A    between atoms: C_2  and  C_3
REMARK    2  A    between atoms: C_2  and  O_20
REMARK    3  A    between atoms: C_6  and  O_19
REMARK    4  A    between atoms: C_10  and  O_16
REMARK    5  A    between atoms: C_13  and  C_15
REMARK    6  A    between atoms: O_20  and  C_21
REMARK                            x       y       z     vdW  Elec       q    Type
REMARK                         _______ _______ _______ _____ _____    ______ ____
ROOT
ATOM      1  C   LIG A   1      -9.546   6.154 130.389  0.00  0.00    +0.077 C 
ATOM      2  C   LIG A   1      -8.483   6.843 130.833  0.00  0.00    +0.201 C 
ATOM      3  O   LIG A   1      -7.782   6.591 131.983  0.00  0.00    -0.470 OA
ATOM      4  C   LIG A   1      -8.395   5.683 132.900  0.00  0.00    +0.308 C 
ATOM      5  C   LIG A   1      -9.094   4.501 132.230  0.00  0.00    +0.071 C 
ATOM      6  C   LIG A   1     -10.088   4.961 131.143  0.00  0.00    +0.067 C 
ATOM      7  C   LIG A   1     -10.282   3.686 130.289  0.00  0.00    +0.123 C 
ATOM      8  C   LIG A   1      -9.107   2.750 130.591  0.00  0.00    +0.035 C 
ATOM      9  C   LIG A   1      -8.147   3.565 131.456  0.00  0.00    -0.002 C 
ATOM     10  C   LIG A   1      -7.278   2.687 132.344  0.00  0.00    +0.008 C 
ENDROOT
BRANCH   1  12
ATOM     11  O   LIG A   1      -9.791   6.386 128.027  0.00  0.00    -0.245 OA
ATOM     12  C   LIG A   1     -10.244   6.577 129.146  0.00  0.00    +0.338 C 
BRANCH  12  13
ATOM     13  O   LIG A   1     -11.392   7.240 129.432  0.00  0.00    -0.465 OA
ATOM     14  C   LIG A   1     -12.589   6.594 128.994  0.00  0.00    +0.280 C 
ENDBRANCH  12  13
ENDBRANCH   1  12
BRANCH   7  15
ATOM     15  O   LIG A   1     -11.491   3.044 130.696  0.00  0.00    -0.391 OA
ATOM     16  H   LIG A   1     -12.104   3.739 130.991  0.00  0.00    +0.210 HD
ENDBRANCH   7  15
BRANCH   4  17
ATOM     17  O   LIG A   1      -9.288   6.385 133.758  0.00  0.00    -0.357 OA
ATOM     18  H   LIG A   1      -8.825   7.180 134.063  0.00  0.00    +0.213 HD
ENDBRANCH   4  17
TORSDOF 4
ENDMDL
MODEL 7
REMARK VINA RESULT:      -5.1      8.414     10.177
REMARK  Name = NuBBE_473
REMARK  6 active torsions:
REMARK  status: ('A' for Active; 'I' for Inactive)
REMARK    1  A    between atoms: C_2  and  C_3
REMARK    2  A    between atoms: C_2  and  O_20
REMARK    3  A    between atoms: C_6  and  O_19
REMARK    4  A    between atoms: C_10  and  O_16
REMARK    5  A    between atoms: C_13  and  C_15
REMARK    6  A    between atoms: O_20  and  C_21
REMARK                            x       y       z     vdW  Elec       q    Type
REMARK                         _______ _______ _______ _____ _____    ______ ____
ROOT
ATOM      1  C   LIG A   1      -8.705   0.845 123.798  0.00  0.00    +0.077 C 
ATOM      2  C   LIG A   1      -9.715   0.334 123.076  0.00  0.00    +0.201 C 
ATOM      3  O   LIG A   1      -9.942  -0.995 122.833  0.00  0.00    -0.470 OA
ATOM      4  C   LIG A   1      -8.870  -1.879 123.165  0.00  0.00    +0.308 C 
ATOM      5  C   LIG A   1      -8.142  -1.515 124.459  0.00  0.00    +0.071 C 
ATOM      6  C   LIG A   1      -7.679  -0.043 124.463  0.00  0.00    +0.067 C 
ATOM      7  C   LIG A   1      -7.447   0.242 125.965  0.00  0.00    +0.123 C 
ATOM      8  C   LIG A   1      -8.201  -0.832 126.756  0.00  0.00    +0.035 C 
ATOM      9  C   LIG A   1      -9.018  -1.605 125.722  0.00  0.00    -0.002 C 
ATOM     10  C   LIG A   1      -9.324  -3.027 126.167  0.00  0.00    +0.008 C 
ENDROOT
BRANCH   1  12
ATOM     11  O   LIG A   1      -9.097   2.969 124.812  0.00  0.00    -0.245 OA
ATOM     12  C   LIG A   1      -8.553   2.318 123.932  0.00  0.00    +0.338 C 
BRANCH  12  13
ATOM     13  O   LIG A   1      -7.794   2.824 122.929  0.00  0.00    -0.465 OA
ATOM     14  C   LIG A   1      -6.516   3.324 123.328  0.00  0.00    +0.280 C 
ENDBRANCH  12  13
ENDBRANCH   1  12
BRANCH   7  15
ATOM     15  O   LIG A   1      -6.052   0.118 126.245  0.00  0.00    -0.391 OA
ATOM     16  H   LIG A   1      -5.944  -0.629 126.859  0.00  0.00    +0.210 HD
ENDBRANCH   7  15
BRANCH   4  17
ATOM     17  O   LIG A   1      -7.959  -1.973 122.075  0.00  0.00    -0.357 OA
ATOM     18  H   LIG A   1      -8.164  -1.245 121.469  0.00  0.00    +0.213 HD
ENDBRANCH   4  17
TORSDOF 4
ENDMDL
MODEL 8
REMARK VINA RESULT:      -4.9      7.620      8.999
REMARK  Name = NuBBE_473
REMARK  6 active torsions:
REMARK  status: ('A' for Active; 'I' for Inactive)
REMARK    1  A    between atoms: C_2  and  C_3
REMARK    2  A    between atoms: C_2  and  O_20
REMARK    3  A    between atoms: C_6  and  O_19
REMARK    4  A    between atoms: C_10  and  O_16
REMARK    5  A    between atoms: C_13  and  C_15
REMARK    6  A    between atoms: O_20  and  C_21
REMARK                            x       y       z     vdW  Elec       q    Type
REMARK                         _______ _______ _______ _____ _____    ______ ____
ROOT
ATOM      1  C   LIG A   1      -6.995   2.644 124.015  0.00  0.00    +0.077 C 
ATOM      2  C   LIG A   1      -6.445   3.515 123.155  0.00  0.00    +0.201 C 
ATOM      3  O   LIG A   1      -5.737   4.640 123.488  0.00  0.00    -0.470 OA
ATOM      4  C   LIG A   1      -5.815   5.041 124.857  0.00  0.00    +0.308 C 
ATOM      5  C   LIG A   1      -5.795   3.879 125.848  0.00  0.00    +0.071 C 
ATOM      6  C   LIG A   1      -6.862   2.817 125.510  0.00  0.00    +0.067 C 
ATOM      7  C   LIG A   1      -6.358   1.566 126.268  0.00  0.00    +0.123 C 
ATOM      8  C   LIG A   1      -4.876   1.790 126.584  0.00  0.00    +0.035 C 
ATOM      9  C   LIG A   1      -4.487   3.067 125.840  0.00  0.00    -0.002 C 
ATOM     10  C   LIG A   1      -3.308   3.779 126.486  0.00  0.00    +0.008 C 
ENDROOT
BRANCH   1  12
ATOM     11  O   LIG A   1      -7.279   0.439 123.149  0.00  0.00    -0.245 OA
ATOM     12  C   LIG A   1      -7.786   1.492 123.507  0.00  0.00    +0.338 C 
BRANCH  12  13
ATOM     13  O   LIG A   1      -9.107   1.795 123.447  0.00  0.00    -0.465 OA
ATOM     14  C   LIG A   1      -9.922   0.823 122.790  0.00  0.00    +0.280 C 
ENDBRANCH  12  13
ENDBRANCH   1  12
BRANCH   7  15
ATOM     15  O   LIG A   1      -7.074   1.458 127.499  0.00  0.00    -0.391 OA
ATOM     16  H   LIG A   1      -6.417   1.449 128.217  0.00  0.00    +0.210 HD
ENDBRANCH   7  15
BRANCH   4  17
ATOM     17  O   LIG A   1      -6.959   5.866 125.059  0.00  0.00    -0.357 OA
ATOM     18  H   LIG A   1      -7.280   6.127 124.182  0.00  0.00    +0.213 HD
ENDBRANCH   4  17
TORSDOF 4
ENDMDL
MODEL 9
REMARK VINA RESULT:      -4.8      8.804     10.614
REMARK  Name = NuBBE_473
REMARK  6 active torsions:
REMARK  status: ('A' for Active; 'I' for Inactive)
REMARK    1  A    between atoms: C_2  and  C_3
REMARK    2  A    between atoms: C_2  and  O_20
REMARK    3  A    between atoms: C_6  and  O_19
REMARK    4  A    between atoms: C_10  and  O_16
REMARK    5  A    between atoms: C_13  and  C_15
REMARK    6  A    between atoms: O_20  and  C_21
REMARK                            x       y       z     vdW  Elec       q    Type
REMARK                         _______ _______ _______ _____ _____    ______ ____
ROOT
ATOM      1  C   LIG A   1      -7.384   7.885 138.933  0.00  0.00    +0.077 C 
ATOM      2  C   LIG A   1      -6.621   8.342 139.939  0.00  0.00    +0.201 C 
ATOM      3  O   LIG A   1      -6.365   9.658 140.224  0.00  0.00    -0.470 OA
ATOM      4  C   LIG A   1      -6.738  10.597 139.214  0.00  0.00    +0.308 C 
ATOM      5  C   LIG A   1      -8.061  10.272 138.521  0.00  0.00    +0.071 C 
ATOM      6  C   LIG A   1      -8.087   8.826 137.983  0.00  0.00    +0.067 C 
ATOM      7  C   LIG A   1      -9.599   8.555 137.797  0.00  0.00    +0.123 C 
ATOM      8  C   LIG A   1     -10.356   9.588 138.637  0.00  0.00    +0.035 C 
ATOM      9  C   LIG A   1      -9.287  10.317 139.451  0.00  0.00    -0.002 C 
ATOM     10  C   LIG A   1      -9.716  11.721 139.849  0.00  0.00    +0.008 C 
ENDROOT
BRANCH   1  12
ATOM     11  O   LIG A   1      -7.689   5.620 139.618  0.00  0.00    -0.245 OA
ATOM     12  C   LIG A   1      -7.528   6.422 138.710  0.00  0.00    +0.338 C 
BRANCH  12  13
ATOM     13  O   LIG A   1      -7.397   6.113 137.396  0.00  0.00    -0.465 OA
ATOM     14  C   LIG A   1      -6.075   5.762 136.984  0.00  0.00    +0.280 C 
ENDBRANCH  12  13
ENDBRANCH   1  12
BRANCH   7  15
ATOM     15  O   LIG A   1      -9.934   8.752 136.423  0.00  0.00    -0.391 OA
ATOM     16  H   LIG A   1      -9.152   9.131 135.985  0.00  0.00    +0.210 HD
ENDBRANCH   7  15
BRANCH   4  17
ATOM     17  O   LIG A   1      -5.685  10.738 138.267  0.00  0.00    -0.357 OA
ATOM     18  H   LIG A   1      -5.672   9.929 137.733  0.00  0.00    +0.213 HD
ENDBRANCH   4  17
TORSDOF 4
ENDMDL
