MODEL 1
REMARK VINA RESULT:      -7.7      0.000      0.000
REMARK  Name = NuBBE_1070
REMARK  6 active torsions:
REMARK  status: ('A' for Active; 'I' for Inactive)
REMARK    1  A    between atoms: C_1  and  O_2
REMARK    2  A    between atoms: O_2  and  C_3
REMARK    3  A    between atoms: C_19  and  O_22
REMARK    4  A    between atoms: O_22  and  C_23
REMARK    5  A    between atoms: C_26  and  O_27
REMARK    6  A    between atoms: O_27  and  C_28
REMARK                            x       y       z     vdW  Elec       q    Type
REMARK                         _______ _______ _______ _____ _____    ______ ____
ROOT
ATOM      1  C   LIG A   1     -12.743   7.616 130.252  0.00  0.00    +0.164 A 
ATOM      2  C   LIG A   1     -11.918   7.468 131.380  0.00  0.00    +0.078 A 
ATOM      3  C   LIG A   1     -11.106   6.341 131.536  0.00  0.00    +0.082 A 
ATOM      4  N   LIG A   1     -10.280   6.234 132.664  0.00  0.00    -0.227 NA
ATOM      5  C   LIG A   1      -9.497   5.208 132.738  0.00  0.00    +0.161 A 
ATOM      6  N   LIG A   1      -9.435   4.181 131.803  0.00  0.00    -0.291 N 
ATOM      7  C   LIG A   1     -10.285   4.173 130.711  0.00  0.00    +0.262 A 
ATOM      8  O   LIG A   1     -10.386   3.244 129.920  0.00  0.00    -0.267 OA
ATOM      9  C   LIG A   1      -8.659   2.958 132.080  0.00  0.00    +0.131 C 
ATOM     10  C   LIG A   1      -7.333   3.199 132.822  0.00  0.00    +0.059 C 
ATOM     11  C   LIG A   1      -7.544   4.188 133.910  0.00  0.00    -0.010 A 
ATOM     12  C   LIG A   1      -8.573   5.105 133.830  0.00  0.00    +0.087 A 
ATOM     13  N   LIG A   1      -8.506   5.910 134.932  0.00  0.00    -0.351 N 
ATOM     14  C   LIG A   1      -7.437   5.539 135.718  0.00  0.00    +0.048 A 
ATOM     15  C   LIG A   1      -6.812   4.455 135.095  0.00  0.00    +0.007 A 
ATOM     16  C   LIG A   1      -5.665   3.902 135.694  0.00  0.00    +0.056 A 
ATOM     17  C   LIG A   1      -5.176   4.441 136.892  0.00  0.00    +0.121 A 
ATOM     18  C   LIG A   1      -5.831   5.518 137.492  0.00  0.00    +0.048 A 
ATOM     19  C   LIG A   1      -6.973   6.087 136.917  0.00  0.00    +0.030 A 
ATOM     20  C   LIG A   1     -11.128   5.369 130.542  0.00  0.00    +0.069 A 
ATOM     21  C   LIG A   1     -11.923   5.507 129.402  0.00  0.00    +0.064 A 
ATOM     22  C   LIG A   1     -12.734   6.632 129.248  0.00  0.00    +0.162 A 
ATOM     23  H   LIG A   1      -9.133   6.681 135.114  0.00  0.00    +0.166 HD
ENDROOT
BRANCH   1  25
ATOM     24  C   LIG A   1     -12.852   9.906 129.631  0.00  0.00    +0.277 C 
ATOM     25  O   LIG A   1     -13.473   8.779 130.246  0.00  0.00    -0.491 OA
ENDBRANCH   1  25
BRANCH  17  26
ATOM     26  O   LIG A   1      -4.046   3.829 137.370  0.00  0.00    -0.495 OA
ATOM     27  C   LIG A   1      -4.209   2.520 137.901  0.00  0.00    +0.277 C 
ENDBRANCH  17  26
BRANCH  22  28
ATOM     28  O   LIG A   1     -13.450   6.847 128.102  0.00  0.00    -0.491 OA
ATOM     29  C   LIG A   1     -12.693   7.112 126.927  0.00  0.00    +0.277 C 
ENDBRANCH  22  28
TORSDOF 3
ENDMDL
MODEL 2
REMARK VINA RESULT:      -7.6      8.926      9.548
REMARK  Name = NuBBE_1070
REMARK  6 active torsions:
REMARK  status: ('A' for Active; 'I' for Inactive)
REMARK    1  A    between atoms: C_1  and  O_2
REMARK    2  A    between atoms: O_2  and  C_3
REMARK    3  A    between atoms: C_19  and  O_22
REMARK    4  A    between atoms: O_22  and  C_23
REMARK    5  A    between atoms: C_26  and  O_27
REMARK    6  A    between atoms: O_27  and  C_28
REMARK                            x       y       z     vdW  Elec       q    Type
REMARK                         _______ _______ _______ _____ _____    ______ ____
ROOT
ATOM      1  C   LIG A   1      -6.367   3.639 123.023  0.00  0.00    +0.164 A 
ATOM      2  C   LIG A   1      -6.043   2.929 124.192  0.00  0.00    +0.078 A 
ATOM      3  C   LIG A   1      -6.789   1.816 124.589  0.00  0.00    +0.082 A 
ATOM      4  N   LIG A   1      -6.428   1.119 125.750  0.00  0.00    -0.227 NA
ATOM      5  C   LIG A   1      -7.104   0.057 126.047  0.00  0.00    +0.161 A 
ATOM      6  N   LIG A   1      -8.187  -0.428 125.323  0.00  0.00    -0.291 N 
ATOM      7  C   LIG A   1      -8.658   0.258 124.218  0.00  0.00    +0.262 A 
ATOM      8  O   LIG A   1      -9.682  -0.027 123.611  0.00  0.00    -0.267 OA
ATOM      9  C   LIG A   1      -9.015  -1.525 125.856  0.00  0.00    +0.131 C 
ATOM     10  C   LIG A   1      -8.225  -2.620 126.594  0.00  0.00    +0.059 C 
ATOM     11  C   LIG A   1      -7.201  -1.991 127.468  0.00  0.00    -0.010 A 
ATOM     12  C   LIG A   1      -6.710  -0.735 127.176  0.00  0.00    +0.087 A 
ATOM     13  N   LIG A   1      -5.762  -0.426 128.110  0.00  0.00    -0.351 N 
ATOM     14  C   LIG A   1      -5.619  -1.472 128.995  0.00  0.00    +0.048 A 
ATOM     15  C   LIG A   1      -6.515  -2.474 128.611  0.00  0.00    +0.007 A 
ATOM     16  C   LIG A   1      -6.545  -3.671 129.351  0.00  0.00    +0.056 A 
ATOM     17  C   LIG A   1      -5.686  -3.835 130.446  0.00  0.00    +0.121 A 
ATOM     18  C   LIG A   1      -4.810  -2.810 130.806  0.00  0.00    +0.048 A 
ATOM     19  C   LIG A   1      -4.760  -1.610 130.088  0.00  0.00    +0.030 A 
ATOM     20  C   LIG A   1      -7.860   1.422 123.794  0.00  0.00    +0.069 A 
ATOM     21  C   LIG A   1      -8.185   2.099 122.617  0.00  0.00    +0.064 A 
ATOM     22  C   LIG A   1      -7.440   3.210 122.222  0.00  0.00    +0.162 A 
ATOM     23  H   LIG A   1      -5.229   0.432 128.118  0.00  0.00    +0.166 HD
ENDROOT
BRANCH   1  25
ATOM     24  C   LIG A   1      -4.585   4.518 121.722  0.00  0.00    +0.277 C 
ATOM     25  O   LIG A   1      -5.534   4.701 122.769  0.00  0.00    -0.491 OA
ENDBRANCH   1  25
BRANCH  17  26
ATOM     26  O   LIG A   1      -5.795  -5.049 131.075  0.00  0.00    -0.495 OA
ATOM     27  C   LIG A   1      -5.202  -5.149 132.365  0.00  0.00    +0.277 C 
ENDBRANCH  17  26
BRANCH  22  28
ATOM     28  O   LIG A   1      -7.667   3.838 121.028  0.00  0.00    -0.491 OA
ATOM     29  C   LIG A   1      -9.012   3.838 120.563  0.00  0.00    +0.277 C 
ENDBRANCH  22  28
TORSDOF 3
ENDMDL
MODEL 3
REMARK VINA RESULT:      -7.5      3.543      5.293
REMARK  Name = NuBBE_1070
REMARK  6 active torsions:
REMARK  status: ('A' for Active; 'I' for Inactive)
REMARK    1  A    between atoms: C_1  and  O_2
REMARK    2  A    between atoms: O_2  and  C_3
REMARK    3  A    between atoms: C_19  and  O_22
REMARK    4  A    between atoms: O_22  and  C_23
REMARK    5  A    between atoms: C_26  and  O_27
REMARK    6  A    between atoms: O_27  and  C_28
REMARK                            x       y       z     vdW  Elec       q    Type
REMARK                         _______ _______ _______ _____ _____    ______ ____
ROOT
ATOM      1  C   LIG A   1     -10.835   7.688 127.894  0.00  0.00    +0.164 A 
ATOM      2  C   LIG A   1     -10.228   6.424 127.988  0.00  0.00    +0.078 A 
ATOM      3  C   LIG A   1     -10.029   5.811 129.228  0.00  0.00    +0.082 A 
ATOM      4  N   LIG A   1      -9.439   4.541 129.285  0.00  0.00    -0.227 NA
ATOM      5  C   LIG A   1      -9.331   3.981 130.446  0.00  0.00    +0.161 A 
ATOM      6  N   LIG A   1      -9.723   4.556 131.649  0.00  0.00    -0.291 N 
ATOM      7  C   LIG A   1     -10.229   5.844 131.680  0.00  0.00    +0.262 A 
ATOM      8  O   LIG A   1     -10.469   6.468 132.706  0.00  0.00    -0.267 OA
ATOM      9  C   LIG A   1      -9.372   3.924 132.934  0.00  0.00    +0.131 C 
ATOM     10  C   LIG A   1      -9.450   2.387 132.930  0.00  0.00    +0.059 C 
ATOM     11  C   LIG A   1      -8.854   1.862 131.674  0.00  0.00    -0.010 A 
ATOM     12  C   LIG A   1      -8.815   2.646 130.539  0.00  0.00    +0.087 A 
ATOM     13  N   LIG A   1      -8.261   1.904 129.535  0.00  0.00    -0.351 N 
ATOM     14  C   LIG A   1      -7.954   0.644 129.998  0.00  0.00    +0.048 A 
ATOM     15  C   LIG A   1      -8.320   0.590 131.346  0.00  0.00    +0.007 A 
ATOM     16  C   LIG A   1      -8.129  -0.614 132.049  0.00  0.00    +0.056 A 
ATOM     17  C   LIG A   1      -7.581  -1.725 131.393  0.00  0.00    +0.121 A 
ATOM     18  C   LIG A   1      -7.219  -1.633 130.049  0.00  0.00    +0.048 A 
ATOM     19  C   LIG A   1      -7.398  -0.447 129.326  0.00  0.00    +0.030 A 
ATOM     20  C   LIG A   1     -10.452   6.481 130.371  0.00  0.00    +0.069 A 
ATOM     21  C   LIG A   1     -11.077   7.727 130.298  0.00  0.00    +0.064 A 
ATOM     22  C   LIG A   1     -11.275   8.338 129.060  0.00  0.00    +0.162 A 
ATOM     23  H   LIG A   1      -8.132   2.233 128.588  0.00  0.00    +0.166 HD
ENDROOT
BRANCH   1  25
ATOM     24  C   LIG A   1     -11.976   7.530 125.817  0.00  0.00    +0.277 C 
ATOM     25  O   LIG A   1     -10.963   8.149 126.606  0.00  0.00    -0.491 OA
ENDBRANCH   1  25
BRANCH  17  26
ATOM     26  O   LIG A   1      -7.460  -2.843 132.177  0.00  0.00    -0.495 OA
ATOM     27  C   LIG A   1      -7.907  -2.726 133.522  0.00  0.00    +0.277 C 
ENDBRANCH  17  26
BRANCH  22  28
ATOM     28  O   LIG A   1     -11.969   9.511 128.943  0.00  0.00    -0.491 OA
ATOM     29  C   LIG A   1     -13.374   9.395 128.750  0.00  0.00    +0.277 C 
ENDBRANCH  22  28
TORSDOF 3
ENDMDL
MODEL 4
REMARK VINA RESULT:      -7.3      5.590      7.185
REMARK  Name = NuBBE_1070
REMARK  6 active torsions:
REMARK  status: ('A' for Active; 'I' for Inactive)
REMARK    1  A    between atoms: C_1  and  O_2
REMARK    2  A    between atoms: O_2  and  C_3
REMARK    3  A    between atoms: C_19  and  O_22
REMARK    4  A    between atoms: O_22  and  C_23
REMARK    5  A    between atoms: C_26  and  O_27
REMARK    6  A    between atoms: O_27  and  C_28
REMARK                            x       y       z     vdW  Elec       q    Type
REMARK                         _______ _______ _______ _____ _____    ______ ____
ROOT
ATOM      1  C   LIG A   1      -8.514   2.607 123.078  0.00  0.00    +0.164 A 
ATOM      2  C   LIG A   1      -8.783   2.469 124.450  0.00  0.00    +0.078 A 
ATOM      3  C   LIG A   1      -7.883   2.936 125.411  0.00  0.00    +0.082 A 
ATOM      4  N   LIG A   1      -8.191   2.800 126.772  0.00  0.00    -0.227 NA
ATOM      5  C   LIG A   1      -7.362   3.303 127.628  0.00  0.00    +0.161 A 
ATOM      6  N   LIG A   1      -6.168   3.937 127.305  0.00  0.00    -0.291 N 
ATOM      7  C   LIG A   1      -5.754   4.027 125.988  0.00  0.00    +0.262 A 
ATOM      8  O   LIG A   1      -4.660   4.447 125.634  0.00  0.00    -0.267 OA
ATOM      9  C   LIG A   1      -5.198   4.293 128.357  0.00  0.00    +0.131 C 
ATOM     10  C   LIG A   1      -5.833   4.798 129.665  0.00  0.00    +0.059 C 
ATOM     11  C   LIG A   1      -7.002   3.950 130.011  0.00  0.00    -0.010 A 
ATOM     12  C   LIG A   1      -7.683   3.264 129.025  0.00  0.00    +0.087 A 
ATOM     13  N   LIG A   1      -8.727   2.609 129.614  0.00  0.00    -0.351 N 
ATOM     14  C   LIG A   1      -8.744   2.873 130.966  0.00  0.00    +0.048 A 
ATOM     15  C   LIG A   1      -7.666   3.719 131.242  0.00  0.00    +0.007 A 
ATOM     16  C   LIG A   1      -7.476   4.160 132.566  0.00  0.00    +0.056 A 
ATOM     17  C   LIG A   1      -8.361   3.746 133.571  0.00  0.00    +0.121 A 
ATOM     18  C   LIG A   1      -9.422   2.894 133.260  0.00  0.00    +0.048 A 
ATOM     19  C   LIG A   1      -9.633   2.441 131.953  0.00  0.00    +0.030 A 
ATOM     20  C   LIG A   1      -6.712   3.548 124.977  0.00  0.00    +0.069 A 
ATOM     21  C   LIG A   1      -6.436   3.716 123.619  0.00  0.00    +0.064 A 
ATOM     22  C   LIG A   1      -7.335   3.249 122.660  0.00  0.00    +0.162 A 
ATOM     23  H   LIG A   1      -9.401   2.044 129.114  0.00  0.00    +0.166 HD
ENDROOT
BRANCH   1  25
ATOM     24  C   LIG A   1     -10.074   0.864 122.670  0.00  0.00    +0.277 C 
ATOM     25  O   LIG A   1      -9.500   2.103 122.265  0.00  0.00    -0.491 OA
ENDBRANCH   1  25
BRANCH  17  26
ATOM     26  O   LIG A   1      -8.084   4.254 134.814  0.00  0.00    -0.495 OA
ATOM     27  C   LIG A   1      -7.431   5.517 134.852  0.00  0.00    +0.277 C 
ENDBRANCH  17  26
BRANCH  22  28
ATOM     28  O   LIG A   1      -7.144   3.481 121.325  0.00  0.00    -0.491 OA
ATOM     29  C   LIG A   1      -5.859   3.960 120.948  0.00  0.00    +0.277 C 
ENDBRANCH  22  28
TORSDOF 3
ENDMDL
MODEL 5
REMARK VINA RESULT:      -7.2      7.255      9.263
REMARK  Name = NuBBE_1070
REMARK  6 active torsions:
REMARK  status: ('A' for Active; 'I' for Inactive)
REMARK    1  A    between atoms: C_1  and  O_2
REMARK    2  A    between atoms: O_2  and  C_3
REMARK    3  A    between atoms: C_19  and  O_22
REMARK    4  A    between atoms: O_22  and  C_23
REMARK    5  A    between atoms: C_26  and  O_27
REMARK    6  A    between atoms: O_27  and  C_28
REMARK                            x       y       z     vdW  Elec       q    Type
REMARK                         _______ _______ _______ _____ _____    ______ ____
ROOT
ATOM      1  C   LIG A   1      -7.619  -0.718 123.867  0.00  0.00    +0.164 A 
ATOM      2  C   LIG A   1      -7.170  -1.440 124.987  0.00  0.00    +0.078 A 
ATOM      3  C   LIG A   1      -7.398  -0.971 126.283  0.00  0.00    +0.082 A 
ATOM      4  N   LIG A   1      -6.954  -1.725 127.379  0.00  0.00    -0.227 NA
ATOM      5  C   LIG A   1      -7.242  -1.289 128.562  0.00  0.00    +0.161 A 
ATOM      6  N   LIG A   1      -7.926  -0.111 128.835  0.00  0.00    -0.291 N 
ATOM      7  C   LIG A   1      -8.314   0.730 127.807  0.00  0.00    +0.262 A 
ATOM      8  O   LIG A   1      -8.797   1.844 127.969  0.00  0.00    -0.267 OA
ATOM      9  C   LIG A   1      -8.024   0.399 130.215  0.00  0.00    +0.131 C 
ATOM     10  C   LIG A   1      -8.219  -0.690 131.284  0.00  0.00    +0.059 C 
ATOM     11  C   LIG A   1      -7.321  -1.837 130.995  0.00  0.00    -0.010 A 
ATOM     12  C   LIG A   1      -6.884  -2.076 129.708  0.00  0.00    +0.087 A 
ATOM     13  N   LIG A   1      -6.118  -3.206 129.726  0.00  0.00    -0.351 N 
ATOM     14  C   LIG A   1      -6.064  -3.715 131.005  0.00  0.00    +0.048 A 
ATOM     15  C   LIG A   1      -6.817  -2.870 131.826  0.00  0.00    +0.007 A 
ATOM     16  C   LIG A   1      -6.940  -3.191 133.191  0.00  0.00    +0.056 A 
ATOM     17  C   LIG A   1      -6.312  -4.337 133.697  0.00  0.00    +0.121 A 
ATOM     18  C   LIG A   1      -5.561  -5.153 132.850  0.00  0.00    +0.048 A 
ATOM     19  C   LIG A   1      -5.422  -4.857 131.489  0.00  0.00    +0.030 A 
ATOM     20  C   LIG A   1      -8.086   0.227 126.441  0.00  0.00    +0.069 A 
ATOM     21  C   LIG A   1      -8.560   0.947 125.343  0.00  0.00    +0.064 A 
ATOM     22  C   LIG A   1      -8.332   0.479 124.049  0.00  0.00    +0.162 A 
ATOM     23  H   LIG A   1      -5.688  -3.616 128.908  0.00  0.00    +0.166 HD
ENDROOT
BRANCH   1  25
ATOM     24  C   LIG A   1      -6.106  -2.058 122.618  0.00  0.00    +0.277 C 
ATOM     25  O   LIG A   1      -7.322  -1.315 122.666  0.00  0.00    -0.491 OA
ENDBRANCH   1  25
BRANCH  17  26
ATOM     26  O   LIG A   1      -6.518  -4.553 135.035  0.00  0.00    -0.495 OA
ATOM     27  C   LIG A   1      -6.661  -5.908 135.443  0.00  0.00    +0.277 C 
ENDBRANCH  17  26
BRANCH  22  28
ATOM     28  O   LIG A   1      -8.864   1.107 122.956  0.00  0.00    -0.491 OA
ATOM     29  C   LIG A   1     -10.206   0.767 122.626  0.00  0.00    +0.277 C 
ENDBRANCH  22  28
TORSDOF 3
ENDMDL
MODEL 6
REMARK VINA RESULT:      -7.1      3.043      4.656
REMARK  Name = NuBBE_1070
REMARK  6 active torsions:
REMARK  status: ('A' for Active; 'I' for Inactive)
REMARK    1  A    between atoms: C_1  and  O_2
REMARK    2  A    between atoms: O_2  and  C_3
REMARK    3  A    between atoms: C_19  and  O_22
REMARK    4  A    between atoms: O_22  and  C_23
REMARK    5  A    between atoms: C_26  and  O_27
REMARK    6  A    between atoms: O_27  and  C_28
REMARK                            x       y       z     vdW  Elec       q    Type
REMARK                         _______ _______ _______ _____ _____    ______ ____
ROOT
ATOM      1  C   LIG A   1     -11.307   7.687 128.193  0.00  0.00    +0.164 A 
ATOM      2  C   LIG A   1     -10.223   6.795 128.246  0.00  0.00    +0.078 A 
ATOM      3  C   LIG A   1      -9.781   6.268 129.462  0.00  0.00    +0.082 A 
ATOM      4  N   LIG A   1      -8.709   5.365 129.477  0.00  0.00    -0.227 NA
ATOM      5  C   LIG A   1      -8.374   4.852 130.616  0.00  0.00    +0.161 A 
ATOM      6  N   LIG A   1      -8.970   5.153 131.834  0.00  0.00    -0.291 N 
ATOM      7  C   LIG A   1      -9.973   6.103 131.910  0.00  0.00    +0.262 A 
ATOM      8  O   LIG A   1     -10.453   6.521 132.956  0.00  0.00    -0.267 OA
ATOM      9  C   LIG A   1      -8.382   4.671 133.098  0.00  0.00    +0.131 C 
ATOM     10  C   LIG A   1      -7.803   3.247 133.029  0.00  0.00    +0.059 C 
ATOM     11  C   LIG A   1      -7.043   3.080 131.763  0.00  0.00    -0.010 A 
ATOM     12  C   LIG A   1      -7.341   3.857 130.662  0.00  0.00    +0.087 A 
ATOM     13  N   LIG A   1      -6.526   3.465 129.638  0.00  0.00    -0.351 N 
ATOM     14  C   LIG A   1      -5.715   2.433 130.054  0.00  0.00    +0.048 A 
ATOM     15  C   LIG A   1      -6.022   2.169 131.392  0.00  0.00    +0.007 A 
ATOM     16  C   LIG A   1      -5.338   1.128 132.048  0.00  0.00    +0.056 A 
ATOM     17  C   LIG A   1      -4.373   0.384 131.356  0.00  0.00    +0.121 A 
ATOM     18  C   LIG A   1      -4.086   0.680 130.023  0.00  0.00    +0.048 A 
ATOM     19  C   LIG A   1      -4.750   1.710 129.347  0.00  0.00    +0.030 A 
ATOM     20  C   LIG A   1     -10.446   6.645 130.625  0.00  0.00    +0.069 A 
ATOM     21  C   LIG A   1     -11.540   7.512 130.592  0.00  0.00    +0.064 A 
ATOM     22  C   LIG A   1     -11.979   8.037 129.377  0.00  0.00    +0.162 A 
ATOM     23  H   LIG A   1      -6.550   3.860 128.708  0.00  0.00    +0.166 HD
ENDROOT
BRANCH   1  25
ATOM     24  C   LIG A   1     -12.340   7.180 126.115  0.00  0.00    +0.277 C 
ATOM     25  O   LIG A   1     -11.620   8.108 126.924  0.00  0.00    -0.491 OA
ENDBRANCH   1  25
BRANCH  17  26
ATOM     26  O   LIG A   1      -3.789  -0.613 132.095  0.00  0.00    -0.495 OA
ATOM     27  C   LIG A   1      -3.347  -1.758 131.376  0.00  0.00    +0.277 C 
ENDBRANCH  17  26
BRANCH  22  28
ATOM     28  O   LIG A   1     -13.105   8.811 129.297  0.00  0.00    -0.491 OA
ATOM     29  C   LIG A   1     -13.022  10.106 129.883  0.00  0.00    +0.277 C 
ENDBRANCH  22  28
TORSDOF 3
ENDMDL
MODEL 7
REMARK VINA RESULT:      -7.1      7.156      8.225
REMARK  Name = NuBBE_1070
REMARK  6 active torsions:
REMARK  status: ('A' for Active; 'I' for Inactive)
REMARK    1  A    between atoms: C_1  and  O_2
REMARK    2  A    between atoms: O_2  and  C_3
REMARK    3  A    between atoms: C_19  and  O_22
REMARK    4  A    between atoms: O_22  and  C_23
REMARK    5  A    between atoms: C_26  and  O_27
REMARK    6  A    between atoms: O_27  and  C_28
REMARK                            x       y       z     vdW  Elec       q    Type
REMARK                         _______ _______ _______ _____ _____    ______ ____
ROOT
ATOM      1  C   LIG A   1      -8.634  -0.156 124.379  0.00  0.00    +0.164 A 
ATOM      2  C   LIG A   1      -7.874   0.940 124.822  0.00  0.00    +0.078 A 
ATOM      3  C   LIG A   1      -7.421   1.016 126.142  0.00  0.00    +0.082 A 
ATOM      4  N   LIG A   1      -6.649   2.114 126.546  0.00  0.00    -0.227 NA
ATOM      5  C   LIG A   1      -6.195   2.115 127.757  0.00  0.00    +0.161 A 
ATOM      6  N   LIG A   1      -6.443   1.128 128.703  0.00  0.00    -0.291 N 
ATOM      7  C   LIG A   1      -7.272   0.060 128.404  0.00  0.00    +0.262 A 
ATOM      8  O   LIG A   1      -7.647  -0.774 129.218  0.00  0.00    -0.267 OA
ATOM      9  C   LIG A   1      -6.052   1.321 130.111  0.00  0.00    +0.131 C 
ATOM     10  C   LIG A   1      -4.704   2.038 130.305  0.00  0.00    +0.059 C 
ATOM     11  C   LIG A   1      -4.607   3.180 129.360  0.00  0.00    -0.010 A 
ATOM     12  C   LIG A   1      -5.328   3.175 128.183  0.00  0.00    +0.087 A 
ATOM     13  N   LIG A   1      -5.017   4.314 127.495  0.00  0.00    -0.351 N 
ATOM     14  C   LIG A   1      -4.093   5.051 128.203  0.00  0.00    +0.048 A 
ATOM     15  C   LIG A   1      -3.815   4.356 129.383  0.00  0.00    +0.007 A 
ATOM     16  C   LIG A   1      -2.871   4.895 130.277  0.00  0.00    +0.056 A 
ATOM     17  C   LIG A   1      -2.233   6.105 129.970  0.00  0.00    +0.121 A 
ATOM     18  C   LIG A   1      -2.541   6.776 128.786  0.00  0.00    +0.048 A 
ATOM     19  C   LIG A   1      -3.476   6.262 127.880  0.00  0.00    +0.030 A 
ATOM     20  C   LIG A   1      -7.735  -0.024 127.009  0.00  0.00    +0.069 A 
ATOM     21  C   LIG A   1      -8.469  -1.133 126.583  0.00  0.00    +0.064 A 
ATOM     22  C   LIG A   1      -8.922  -1.208 125.265  0.00  0.00    +0.162 A 
ATOM     23  H   LIG A   1      -5.392   4.551 126.587  0.00  0.00    +0.166 HD
ENDROOT
BRANCH   1  25
ATOM     24  C   LIG A   1     -10.126   0.732 122.759  0.00  0.00    +0.277 C 
ATOM     25  O   LIG A   1      -8.996  -0.083 123.056  0.00  0.00    -0.491 OA
ENDBRANCH   1  25
BRANCH  17  26
ATOM     26  O   LIG A   1      -1.322   6.519 130.908  0.00  0.00    -0.495 OA
ATOM     27  C   LIG A   1      -1.292   5.789 132.128  0.00  0.00    +0.277 C 
ENDBRANCH  17  26
BRANCH  22  28
ATOM     28  O   LIG A   1      -9.558  -2.321 124.789  0.00  0.00    -0.491 OA
ATOM     29  C   LIG A   1      -8.723  -3.402 124.391  0.00  0.00    +0.277 C 
ENDBRANCH  22  28
TORSDOF 3
ENDMDL
MODEL 8
REMARK VINA RESULT:      -7.1      8.319     11.789
REMARK  Name = NuBBE_1070
REMARK  6 active torsions:
REMARK  status: ('A' for Active; 'I' for Inactive)
REMARK    1  A    between atoms: C_1  and  O_2
REMARK    2  A    between atoms: O_2  and  C_3
REMARK    3  A    between atoms: C_19  and  O_22
REMARK    4  A    between atoms: O_22  and  C_23
REMARK    5  A    between atoms: C_26  and  O_27
REMARK    6  A    between atoms: O_27  and  C_28
REMARK                            x       y       z     vdW  Elec       q    Type
REMARK                         _______ _______ _______ _____ _____    ______ ____
ROOT
ATOM      1  C   LIG A   1      -5.396  -1.992 131.646  0.00  0.00    +0.164 A 
ATOM      2  C   LIG A   1      -5.395  -1.175 130.502  0.00  0.00    +0.078 A 
ATOM      3  C   LIG A   1      -6.258  -1.430 129.434  0.00  0.00    +0.082 A 
ATOM      4  N   LIG A   1      -6.245  -0.583 128.317  0.00  0.00    -0.227 NA
ATOM      5  C   LIG A   1      -7.105  -0.816 127.378  0.00  0.00    +0.161 A 
ATOM      6  N   LIG A   1      -8.017  -1.864 127.373  0.00  0.00    -0.291 N 
ATOM      7  C   LIG A   1      -8.026  -2.793 128.399  0.00  0.00    +0.262 A 
ATOM      8  O   LIG A   1      -8.702  -3.814 128.401  0.00  0.00    -0.267 OA
ATOM      9  C   LIG A   1      -8.812  -2.163 126.167  0.00  0.00    +0.131 C 
ATOM     10  C   LIG A   1      -9.293  -0.920 125.397  0.00  0.00    +0.059 C 
ATOM     11  C   LIG A   1      -8.191   0.072 125.315  0.00  0.00    -0.010 A 
ATOM     12  C   LIG A   1      -7.185   0.079 126.260  0.00  0.00    +0.087 A 
ATOM     13  N   LIG A   1      -6.340   1.111 125.967  0.00  0.00    -0.351 N 
ATOM     14  C   LIG A   1      -6.791   1.785 124.853  0.00  0.00    +0.048 A 
ATOM     15  C   LIG A   1      -7.959   1.150 124.423  0.00  0.00    +0.007 A 
ATOM     16  C   LIG A   1      -8.636   1.669 123.302  0.00  0.00    +0.056 A 
ATOM     17  C   LIG A   1      -8.130   2.800 122.646  0.00  0.00    +0.121 A 
ATOM     18  C   LIG A   1      -6.956   3.403 123.099  0.00  0.00    +0.048 A 
ATOM     19  C   LIG A   1      -6.265   2.907 124.210  0.00  0.00    +0.030 A 
ATOM     20  C   LIG A   1      -7.126  -2.513 129.530  0.00  0.00    +0.069 A 
ATOM     21  C   LIG A   1      -7.159  -3.323 130.666  0.00  0.00    +0.064 A 
ATOM     22  C   LIG A   1      -6.296  -3.068 131.732  0.00  0.00    +0.162 A 
ATOM     23  H   LIG A   1      -5.526   1.354 126.515  0.00  0.00    +0.166 HD
ENDROOT
BRANCH   1  25
ATOM     24  C   LIG A   1      -3.117  -1.750 132.270  0.00  0.00    +0.277 C 
ATOM     25  O   LIG A   1      -4.494  -1.604 132.607  0.00  0.00    -0.491 OA
ENDBRANCH   1  25
BRANCH  17  26
ATOM     26  O   LIG A   1      -8.884   3.221 121.581  0.00  0.00    -0.495 OA
ATOM     27  C   LIG A   1      -8.187   3.889 120.536  0.00  0.00    +0.277 C 
ENDBRANCH  17  26
BRANCH  22  28
ATOM     28  O   LIG A   1      -6.367  -3.781 132.898  0.00  0.00    -0.491 OA
ATOM     29  C   LIG A   1      -5.605  -4.981 132.950  0.00  0.00    +0.277 C 
ENDBRANCH  22  28
TORSDOF 3
ENDMDL
MODEL 9
REMARK VINA RESULT:      -7.1      7.117      8.179
REMARK  Name = NuBBE_1070
REMARK  6 active torsions:
REMARK  status: ('A' for Active; 'I' for Inactive)
REMARK    1  A    between atoms: C_1  and  O_2
REMARK    2  A    between atoms: O_2  and  C_3
REMARK    3  A    between atoms: C_19  and  O_22
REMARK    4  A    between atoms: O_22  and  C_23
REMARK    5  A    between atoms: C_26  and  O_27
REMARK    6  A    between atoms: O_27  and  C_28
REMARK                            x       y       z     vdW  Elec       q    Type
REMARK                         _______ _______ _______ _____ _____    ______ ____
ROOT
ATOM      1  C   LIG A   1      -8.936  -0.827 125.469  0.00  0.00    +0.164 A 
ATOM      2  C   LIG A   1      -8.113  -0.389 126.520  0.00  0.00    +0.078 A 
ATOM      3  C   LIG A   1      -7.235   0.685 126.349  0.00  0.00    +0.082 A 
ATOM      4  N   LIG A   1      -6.442   1.108 127.425  0.00  0.00    -0.227 NA
ATOM      5  C   LIG A   1      -5.691   2.146 127.243  0.00  0.00    +0.161 A 
ATOM      6  N   LIG A   1      -5.581   2.854 126.052  0.00  0.00    -0.291 N 
ATOM      7  C   LIG A   1      -6.263   2.439 124.922  0.00  0.00    +0.262 A 
ATOM      8  O   LIG A   1      -6.116   2.923 123.808  0.00  0.00    -0.267 OA
ATOM      9  C   LIG A   1      -4.547   3.893 125.889  0.00  0.00    +0.131 C 
ATOM     10  C   LIG A   1      -4.302   4.751 127.143  0.00  0.00    +0.059 C 
ATOM     11  C   LIG A   1      -4.273   3.879 128.344  0.00  0.00    -0.010 A 
ATOM     12  C   LIG A   1      -4.932   2.666 128.344  0.00  0.00    +0.087 A 
ATOM     13  N   LIG A   1      -4.776   2.101 129.578  0.00  0.00    -0.351 N 
ATOM     14  C   LIG A   1      -4.038   2.938 130.386  0.00  0.00    +0.048 A 
ATOM     15  C   LIG A   1      -3.709   4.069 129.632  0.00  0.00    +0.007 A 
ATOM     16  C   LIG A   1      -2.969   5.097 130.245  0.00  0.00    +0.056 A 
ATOM     17  C   LIG A   1      -2.580   4.970 131.586  0.00  0.00    +0.121 A 
ATOM     18  C   LIG A   1      -2.918   3.824 132.306  0.00  0.00    +0.048 A 
ATOM     19  C   LIG A   1      -3.653   2.787 131.720  0.00  0.00    +0.030 A 
ATOM     20  C   LIG A   1      -7.199   1.316 125.110  0.00  0.00    +0.069 A 
ATOM     21  C   LIG A   1      -8.024   0.912 124.060  0.00  0.00    +0.064 A 
ATOM     22  C   LIG A   1      -8.900  -0.160 124.231  0.00  0.00    +0.162 A 
ATOM     23  H   LIG A   1      -5.176   1.216 129.854  0.00  0.00    +0.166 HD
ENDROOT
BRANCH   1  25
ATOM     24  C   LIG A   1      -9.079  -3.095 126.159  0.00  0.00    +0.277 C 
ATOM     25  O   LIG A   1      -9.745  -1.886 125.800  0.00  0.00    -0.491 OA
ENDBRANCH   1  25
BRANCH  17  26
ATOM     26  O   LIG A   1      -1.880   6.042 132.076  0.00  0.00    -0.495 OA
ATOM     27  C   LIG A   1      -2.523   7.308 131.999  0.00  0.00    +0.277 C 
ENDBRANCH  17  26
BRANCH  22  28
ATOM     28  O   LIG A   1      -9.790  -0.521 123.258  0.00  0.00    -0.491 OA
ATOM     29  C   LIG A   1     -10.211   0.513 122.375  0.00  0.00    +0.277 C 
ENDBRANCH  22  28
TORSDOF 3
ENDMDL
