MODEL 1
REMARK VINA RESULT:      -7.1      0.000      0.000
REMARK  Name = NuBBE_2016
REMARK  9 active torsions:
REMARK  status: ('A' for Active; 'I' for Inactive)
REMARK    1  A    between atoms: C_3  and  O_5
REMARK    2  A    between atoms: O_5  and  C_6
REMARK    3  A    between atoms: C_8  and  C_9
REMARK    4  A    between atoms: C_9  and  C_10
REMARK    5  A    between atoms: C_12  and  C_14
REMARK    6  A    between atoms: C_15  and  C_17
REMARK    7  A    between atoms: C_26  and  O_30
REMARK    8  A    between atoms: C_27  and  O_29
REMARK    9  A    between atoms: O_30  and  C_31
REMARK                            x       y       z     vdW  Elec       q    Type
REMARK                         _______ _______ _______ _____ _____    ______ ____
ROOT
ATOM      1  O   LIG A   1      -8.620   3.925 125.173  0.00  0.00    -0.291 OA
ATOM      2  C   LIG A   1      -8.116   2.830 124.955  0.00  0.00    +0.196 C 
ATOM      3  C   LIG A   1      -7.640   2.448 123.527  0.00  0.00    +0.187 C 
ATOM      4  C   LIG A   1      -6.882   1.109 123.474  0.00  0.00    +0.049 C 
ATOM      5  C   LIG A   1      -7.267   0.041 124.550  0.00  0.00    +0.009 C 
ATOM      6  C   LIG A   1      -6.189   0.145 125.698  0.00  0.00    +0.006 C 
ATOM      7  C   LIG A   1      -6.000  -1.116 126.558  0.00  0.00    +0.009 C 
ATOM      8  C   LIG A   1      -6.670   1.341 126.590  0.00  0.00    +0.065 C 
ATOM      9  C   LIG A   1      -8.082   1.735 126.038  0.00  0.00    +0.162 C 
ATOM     10  C   LIG A   1      -8.551   0.468 125.281  0.00  0.00    +0.161 C 
ENDROOT
BRANCH   8  11
ATOM     11  C   LIG A   1      -5.611   2.436 126.781  0.00  0.00    -0.037 A 
ATOM     12  C   LIG A   1      -4.314   2.359 126.224  0.00  0.00    +0.008 A 
ATOM     13  C   LIG A   1      -3.350   3.358 126.409  0.00  0.00    +0.050 A 
ATOM     14  C   LIG A   1      -3.686   4.429 127.194  0.00  0.00    +0.166 A 
ATOM     15  O   LIG A   1      -2.872   5.472 127.501  0.00  0.00    -0.453 OA
ATOM     16  C   LIG A   1      -3.730   6.230 128.374  0.00  0.00    +0.466 C 
ATOM     17  O   LIG A   1      -5.047   5.653 128.528  0.00  0.00    -0.453 OA
ATOM     18  C   LIG A   1      -4.926   4.527 127.772  0.00  0.00    +0.167 A 
ATOM     19  C   LIG A   1      -5.902   3.560 127.584  0.00  0.00    +0.053 A 
ENDBRANCH   8  11
BRANCH   3  20
ATOM     20  O   LIG A   1      -6.801   3.396 122.874  0.00  0.00    -0.372 OA
ATOM     21  C   LIG A   1      -7.037   3.555 121.481  0.00  0.00    +0.195 C 
ENDBRANCH   3  20
BRANCH  10  22
ATOM     22  O   LIG A   1      -9.014  -0.531 126.185  0.00  0.00    -0.388 OA
ATOM     23  H   LIG A   1      -9.817  -0.907 125.768  0.00  0.00    +0.210 HD
ENDBRANCH  10  22
BRANCH   9  24
ATOM     24  O   LIG A   1      -9.060   1.959 127.068  0.00  0.00    -0.366 OA
ATOM     25  C   LIG A   1      -8.606   1.739 128.399  0.00  0.00    +0.195 C 
ENDBRANCH   9  24
BRANCH   5  26
ATOM     26  C   LIG A   1      -7.381  -1.363 123.900  0.00  0.00    +0.036 C 
BRANCH  26  27
ATOM     27  C   LIG A   1      -6.226  -1.727 122.992  0.00  0.00    -0.034 C 
ATOM     28  C   LIG A   1      -5.388  -2.751 123.195  0.00  0.00    +0.004 C 
ENDBRANCH  26  27
ENDBRANCH   5  26
TORSDOF 6
ENDMDL
MODEL 2
REMARK VINA RESULT:      -7.0      5.641      8.324
REMARK  Name = NuBBE_2016
REMARK  9 active torsions:
REMARK  status: ('A' for Active; 'I' for Inactive)
REMARK    1  A    between atoms: C_3  and  O_5
REMARK    2  A    between atoms: O_5  and  C_6
REMARK    3  A    between atoms: C_8  and  C_9
REMARK    4  A    between atoms: C_9  and  C_10
REMARK    5  A    between atoms: C_12  and  C_14
REMARK    6  A    between atoms: C_15  and  C_17
REMARK    7  A    between atoms: C_26  and  O_30
REMARK    8  A    between atoms: C_27  and  O_29
REMARK    9  A    between atoms: O_30  and  C_31
REMARK                            x       y       z     vdW  Elec       q    Type
REMARK                         _______ _______ _______ _____ _____    ______ ____
ROOT
ATOM      1  O   LIG A   1      -9.324   2.693 133.327  0.00  0.00    -0.291 OA
ATOM      2  C   LIG A   1      -8.293   3.095 132.803  0.00  0.00    +0.196 C 
ATOM      3  C   LIG A   1      -7.730   2.406 131.530  0.00  0.00    +0.187 C 
ATOM      4  C   LIG A   1      -6.528   3.146 130.916  0.00  0.00    +0.049 C 
ATOM      5  C   LIG A   1      -5.629   3.963 131.900  0.00  0.00    +0.009 C 
ATOM      6  C   LIG A   1      -6.093   5.467 131.796  0.00  0.00    +0.006 C 
ATOM      7  C   LIG A   1      -5.050   6.522 132.201  0.00  0.00    +0.009 C 
ATOM      8  C   LIG A   1      -7.349   5.562 132.729  0.00  0.00    +0.065 C 
ATOM      9  C   LIG A   1      -7.429   4.183 133.468  0.00  0.00    +0.162 C 
ATOM     10  C   LIG A   1      -5.991   3.618 133.355  0.00  0.00    +0.161 C 
ENDROOT
BRANCH   8  11
ATOM     11  C   LIG A   1      -8.602   6.107 132.029  0.00  0.00    -0.037 A 
ATOM     12  C   LIG A   1      -9.910   5.908 132.527  0.00  0.00    +0.008 A 
ATOM     13  C   LIG A   1     -11.050   6.401 131.878  0.00  0.00    +0.050 A 
ATOM     14  C   LIG A   1     -10.871   7.072 130.698  0.00  0.00    +0.166 A 
ATOM     15  O   LIG A   1     -11.859   7.593 129.925  0.00  0.00    -0.453 OA
ATOM     16  C   LIG A   1     -11.089   8.110 128.823  0.00  0.00    +0.466 C 
ATOM     17  O   LIG A   1      -9.663   7.932 128.986  0.00  0.00    -0.453 OA
ATOM     18  C   LIG A   1      -9.619   7.264 130.172  0.00  0.00    +0.167 A 
ATOM     19  C   LIG A   1      -8.476   6.803 130.808  0.00  0.00    +0.053 A 
ENDBRANCH   8  11
BRANCH   3  20
ATOM     20  O   LIG A   1      -8.655   2.215 130.463  0.00  0.00    -0.372 OA
ATOM     21  C   LIG A   1      -8.863   3.349 129.632  0.00  0.00    +0.195 C 
ENDBRANCH   3  20
BRANCH  10  22
ATOM     22  O   LIG A   1      -5.116   4.243 134.291  0.00  0.00    -0.388 OA
ATOM     23  H   LIG A   1      -5.141   3.676 135.089  0.00  0.00    +0.210 HD
ENDBRANCH  10  22
BRANCH   9  24
ATOM     24  O   LIG A   1      -7.692   4.300 134.877  0.00  0.00    -0.366 OA
ATOM     25  C   LIG A   1      -7.656   5.624 135.397  0.00  0.00    +0.195 C 
ENDBRANCH   9  24
BRANCH   5  26
ATOM     26  C   LIG A   1      -4.128   3.730 131.581  0.00  0.00    +0.036 C 
BRANCH  26  27
ATOM     27  C   LIG A   1      -3.809   3.650 130.104  0.00  0.00    -0.034 C 
ATOM     28  C   LIG A   1      -3.092   4.556 129.427  0.00  0.00    +0.004 C 
ENDBRANCH  26  27
ENDBRANCH   5  26
TORSDOF 6
ENDMDL
MODEL 3
REMARK VINA RESULT:      -6.8      1.622      2.259
REMARK  Name = NuBBE_2016
REMARK  9 active torsions:
REMARK  status: ('A' for Active; 'I' for Inactive)
REMARK    1  A    between atoms: C_3  and  O_5
REMARK    2  A    between atoms: O_5  and  C_6
REMARK    3  A    between atoms: C_8  and  C_9
REMARK    4  A    between atoms: C_9  and  C_10
REMARK    5  A    between atoms: C_12  and  C_14
REMARK    6  A    between atoms: C_15  and  C_17
REMARK    7  A    between atoms: C_26  and  O_30
REMARK    8  A    between atoms: C_27  and  O_29
REMARK    9  A    between atoms: O_30  and  C_31
REMARK                            x       y       z     vdW  Elec       q    Type
REMARK                         _______ _______ _______ _____ _____    ______ ____
ROOT
ATOM      1  O   LIG A   1      -9.024   1.748 127.667  0.00  0.00    -0.291 OA
ATOM      2  C   LIG A   1      -8.565   1.124 126.718  0.00  0.00    +0.196 C 
ATOM      3  C   LIG A   1      -9.043   1.419 125.271  0.00  0.00    +0.187 C 
ATOM      4  C   LIG A   1      -8.241   0.664 124.196  0.00  0.00    +0.049 C 
ATOM      5  C   LIG A   1      -7.624  -0.710 124.617  0.00  0.00    +0.009 C 
ATOM      6  C   LIG A   1      -6.112  -0.436 124.978  0.00  0.00    +0.006 C 
ATOM      7  C   LIG A   1      -5.166  -1.644 124.872  0.00  0.00    +0.009 C 
ATOM      8  C   LIG A   1      -6.144   0.098 126.451  0.00  0.00    +0.065 C 
ATOM      9  C   LIG A   1      -7.625  -0.079 126.930  0.00  0.00    +0.162 C 
ATOM     10  C   LIG A   1      -8.199  -1.153 125.974  0.00  0.00    +0.161 C 
ENDROOT
BRANCH   8  11
ATOM     11  C   LIG A   1      -5.459   1.459 126.633  0.00  0.00    -0.037 A 
ATOM     12  C   LIG A   1      -5.378   2.424 125.602  0.00  0.00    +0.008 A 
ATOM     13  C   LIG A   1      -4.743   3.662 125.772  0.00  0.00    +0.050 A 
ATOM     14  C   LIG A   1      -4.155   3.914 126.982  0.00  0.00    +0.166 A 
ATOM     15  O   LIG A   1      -3.478   5.044 127.313  0.00  0.00    -0.453 OA
ATOM     16  C   LIG A   1      -3.055   4.719 128.650  0.00  0.00    +0.466 C 
ATOM     17  O   LIG A   1      -3.530   3.431 129.105  0.00  0.00    -0.453 OA
ATOM     18  C   LIG A   1      -4.191   2.993 127.998  0.00  0.00    +0.167 A 
ATOM     19  C   LIG A   1      -4.832   1.771 127.858  0.00  0.00    +0.053 A 
ENDBRANCH   8  11
BRANCH   3  20
ATOM     20  O   LIG A   1      -9.030   2.788 124.875  0.00  0.00    -0.372 OA
ATOM     21  C   LIG A   1      -8.408   3.050 123.624  0.00  0.00    +0.195 C 
ENDBRANCH   3  20
BRANCH  10  22
ATOM     22  O   LIG A   1      -7.762  -2.459 126.343  0.00  0.00    -0.388 OA
ATOM     23  H   LIG A   1      -6.795  -2.382 126.474  0.00  0.00    +0.210 HD
ENDBRANCH  10  22
BRANCH   9  24
ATOM     24  O   LIG A   1      -7.741  -0.632 128.252  0.00  0.00    -0.366 OA
ATOM     25  C   LIG A   1      -6.525  -1.097 128.827  0.00  0.00    +0.195 C 
ENDBRANCH   9  24
BRANCH   5  26
ATOM     26  C   LIG A   1      -7.836  -1.764 123.498  0.00  0.00    +0.036 C 
BRANCH  26  27
ATOM     27  C   LIG A   1      -9.275  -2.194 123.311  0.00  0.00    -0.034 C 
ATOM     28  C   LIG A   1      -9.720  -3.450 123.445  0.00  0.00    +0.004 C 
ENDBRANCH  26  27
ENDBRANCH   5  26
TORSDOF 6
ENDMDL
MODEL 4
REMARK VINA RESULT:      -6.8      5.339      8.209
REMARK  Name = NuBBE_2016
REMARK  9 active torsions:
REMARK  status: ('A' for Active; 'I' for Inactive)
REMARK    1  A    between atoms: C_3  and  O_5
REMARK    2  A    between atoms: O_5  and  C_6
REMARK    3  A    between atoms: C_8  and  C_9
REMARK    4  A    between atoms: C_9  and  C_10
REMARK    5  A    between atoms: C_12  and  C_14
REMARK    6  A    between atoms: C_15  and  C_17
REMARK    7  A    between atoms: C_26  and  O_30
REMARK    8  A    between atoms: C_27  and  O_29
REMARK    9  A    between atoms: O_30  and  C_31
REMARK                            x       y       z     vdW  Elec       q    Type
REMARK                         _______ _______ _______ _____ _____    ______ ____
ROOT
ATOM      1  O   LIG A   1      -4.344   3.361 133.303  0.00  0.00    -0.291 OA
ATOM      2  C   LIG A   1      -4.179   3.876 132.204  0.00  0.00    +0.196 C 
ATOM      3  C   LIG A   1      -4.354   3.043 130.905  0.00  0.00    +0.187 C 
ATOM      4  C   LIG A   1      -4.275   3.889 129.622  0.00  0.00    +0.049 C 
ATOM      5  C   LIG A   1      -3.394   5.180 129.684  0.00  0.00    +0.009 C 
ATOM      6  C   LIG A   1      -4.377   6.388 129.939  0.00  0.00    +0.006 C 
ATOM      7  C   LIG A   1      -3.874   7.769 129.489  0.00  0.00    +0.009 C 
ATOM      8  C   LIG A   1      -4.627   6.380 131.486  0.00  0.00    +0.065 C 
ATOM      9  C   LIG A   1      -3.638   5.312 132.065  0.00  0.00    +0.162 C 
ATOM     10  C   LIG A   1      -2.550   5.180 130.971  0.00  0.00    +0.161 C 
ENDROOT
BRANCH   8  11
ATOM     11  C   LIG A   1      -6.110   6.311 131.875  0.00  0.00    -0.037 A 
ATOM     12  C   LIG A   1      -6.557   5.831 133.127  0.00  0.00    +0.008 A 
ATOM     13  C   LIG A   1      -7.913   5.763 133.473  0.00  0.00    +0.050 A 
ATOM     14  C   LIG A   1      -8.829   6.153 132.532  0.00  0.00    +0.166 A 
ATOM     15  O   LIG A   1     -10.178   6.129 132.684  0.00  0.00    -0.453 OA
ATOM     16  C   LIG A   1     -10.600   6.584 131.384  0.00  0.00    +0.466 C 
ATOM     17  O   LIG A   1      -9.499   6.915 130.507  0.00  0.00    -0.453 OA
ATOM     18  C   LIG A   1      -8.435   6.601 131.297  0.00  0.00    +0.167 A 
ATOM     19  C   LIG A   1      -7.098   6.696 130.943  0.00  0.00    +0.053 A 
ENDBRANCH   8  11
BRANCH   3  20
ATOM     20  O   LIG A   1      -5.560   2.292 130.802  0.00  0.00    -0.372 OA
ATOM     21  C   LIG A   1      -6.669   3.000 130.261  0.00  0.00    +0.195 C 
ENDBRANCH   3  20
BRANCH  10  22
ATOM     22  O   LIG A   1      -1.638   6.274 131.015  0.00  0.00    -0.388 OA
ATOM     23  H   LIG A   1      -1.885   6.850 130.262  0.00  0.00    +0.210 HD
ENDBRANCH  10  22
BRANCH   9  24
ATOM     24  O   LIG A   1      -2.948   5.749 133.249  0.00  0.00    -0.366 OA
ATOM     25  C   LIG A   1      -3.227   7.082 133.661  0.00  0.00    +0.195 C 
ENDBRANCH   9  24
BRANCH   5  26
ATOM     26  C   LIG A   1      -2.535   5.310 128.399  0.00  0.00    +0.036 C 
BRANCH  26  27
ATOM     27  C   LIG A   1      -2.815   4.255 127.350  0.00  0.00    -0.034 C 
ATOM     28  C   LIG A   1      -1.906   3.400 126.866  0.00  0.00    +0.004 C 
ENDBRANCH  26  27
ENDBRANCH   5  26
TORSDOF 6
ENDMDL
MODEL 5
REMARK VINA RESULT:      -6.7      4.681      7.406
REMARK  Name = NuBBE_2016
REMARK  9 active torsions:
REMARK  status: ('A' for Active; 'I' for Inactive)
REMARK    1  A    between atoms: C_3  and  O_5
REMARK    2  A    between atoms: O_5  and  C_6
REMARK    3  A    between atoms: C_8  and  C_9
REMARK    4  A    between atoms: C_9  and  C_10
REMARK    5  A    between atoms: C_12  and  C_14
REMARK    6  A    between atoms: C_15  and  C_17
REMARK    7  A    between atoms: C_26  and  O_30
REMARK    8  A    between atoms: C_27  and  O_29
REMARK    9  A    between atoms: O_30  and  C_31
REMARK                            x       y       z     vdW  Elec       q    Type
REMARK                         _______ _______ _______ _____ _____    ______ ____
ROOT
ATOM      1  O   LIG A   1      -9.602   2.728 129.347  0.00  0.00    -0.291 OA
ATOM      2  C   LIG A   1      -8.617   3.391 129.650  0.00  0.00    +0.196 C 
ATOM      3  C   LIG A   1      -7.648   3.915 128.556  0.00  0.00    +0.187 C 
ATOM      4  C   LIG A   1      -6.569   4.867 129.101  0.00  0.00    +0.049 C 
ATOM      5  C   LIG A   1      -6.127   4.651 130.586  0.00  0.00    +0.009 C 
ATOM      6  C   LIG A   1      -6.921   5.704 131.452  0.00  0.00    +0.006 C 
ATOM      7  C   LIG A   1      -6.282   6.084 132.799  0.00  0.00    +0.009 C 
ATOM      8  C   LIG A   1      -8.327   5.051 131.686  0.00  0.00    +0.065 C 
ATOM      9  C   LIG A   1      -8.211   3.594 131.122  0.00  0.00    +0.162 C 
ATOM     10  C   LIG A   1      -6.687   3.319 131.114  0.00  0.00    +0.161 C 
ENDROOT
BRANCH   8  11
ATOM     11  C   LIG A   1      -9.502   5.933 131.240  0.00  0.00    -0.037 A 
ATOM     12  C   LIG A   1     -10.758   5.927 131.888  0.00  0.00    +0.008 A 
ATOM     13  C   LIG A   1     -11.829   6.728 131.471  0.00  0.00    +0.050 A 
ATOM     14  C   LIG A   1     -11.641   7.518 130.368  0.00  0.00    +0.166 A 
ATOM     15  O   LIG A   1     -12.572   8.334 129.810  0.00  0.00    -0.453 OA
ATOM     16  C   LIG A   1     -11.837   8.845 128.683  0.00  0.00    +0.466 C 
ATOM     17  O   LIG A   1     -10.474   8.364 128.620  0.00  0.00    -0.453 OA
ATOM     18  C   LIG A   1     -10.444   7.532 129.698  0.00  0.00    +0.167 A 
ATOM     19  C   LIG A   1      -9.365   6.763 130.107  0.00  0.00    +0.053 A 
ENDBRANCH   8  11
BRANCH   3  20
ATOM     20  O   LIG A   1      -8.253   4.600 127.462  0.00  0.00    -0.372 OA
ATOM     21  C   LIG A   1      -7.767   4.235 126.176  0.00  0.00    +0.195 C 
ENDBRANCH   3  20
BRANCH  10  22
ATOM     22  O   LIG A   1      -6.210   3.015 132.422  0.00  0.00    -0.388 OA
ATOM     23  H   LIG A   1      -5.237   3.113 132.373  0.00  0.00    +0.210 HD
ENDBRANCH  10  22
BRANCH   9  24
ATOM     24  O   LIG A   1      -8.782   2.596 131.986  0.00  0.00    -0.366 OA
ATOM     25  C   LIG A   1      -9.186   3.059 133.269  0.00  0.00    +0.195 C 
ENDBRANCH   9  24
BRANCH   5  26
ATOM     26  C   LIG A   1      -4.584   4.749 130.711  0.00  0.00    +0.036 C 
BRANCH  26  27
ATOM     27  C   LIG A   1      -3.822   3.878 129.735  0.00  0.00    -0.034 C 
ATOM     28  C   LIG A   1      -2.976   4.335 128.803  0.00  0.00    +0.004 C 
ENDBRANCH  26  27
ENDBRANCH   5  26
TORSDOF 6
ENDMDL
MODEL 6
REMARK VINA RESULT:      -6.6      5.844      8.199
REMARK  Name = NuBBE_2016
REMARK  9 active torsions:
REMARK  status: ('A' for Active; 'I' for Inactive)
REMARK    1  A    between atoms: C_3  and  O_5
REMARK    2  A    between atoms: O_5  and  C_6
REMARK    3  A    between atoms: C_8  and  C_9
REMARK    4  A    between atoms: C_9  and  C_10
REMARK    5  A    between atoms: C_12  and  C_14
REMARK    6  A    between atoms: C_15  and  C_17
REMARK    7  A    between atoms: C_26  and  O_30
REMARK    8  A    between atoms: C_27  and  O_29
REMARK    9  A    between atoms: O_30  and  C_31
REMARK                            x       y       z     vdW  Elec       q    Type
REMARK                         _______ _______ _______ _____ _____    ______ ____
ROOT
ATOM      1  O   LIG A   1      -4.359  -0.531 131.493  0.00  0.00    -0.291 OA
ATOM      2  C   LIG A   1      -4.897  -1.140 130.577  0.00  0.00    +0.196 C 
ATOM      3  C   LIG A   1      -4.050  -1.763 129.435  0.00  0.00    +0.187 C 
ATOM      4  C   LIG A   1      -4.873  -2.631 128.466  0.00  0.00    +0.049 C 
ATOM      5  C   LIG A   1      -6.379  -2.246 128.286  0.00  0.00    +0.009 C 
ATOM      6  C   LIG A   1      -7.208  -3.212 129.218  0.00  0.00    +0.006 C 
ATOM      7  C   LIG A   1      -8.677  -3.432 128.821  0.00  0.00    +0.009 C 
ATOM      8  C   LIG A   1      -7.124  -2.563 130.642  0.00  0.00    +0.065 C 
ATOM      9  C   LIG A   1      -6.431  -1.174 130.429  0.00  0.00    +0.162 C 
ATOM     10  C   LIG A   1      -6.653  -0.874 128.926  0.00  0.00    +0.161 C 
ENDROOT
BRANCH   8  11
ATOM     11  C   LIG A   1      -6.584  -3.508 131.724  0.00  0.00    -0.037 A 
ATOM     12  C   LIG A   1      -5.662  -4.545 131.450  0.00  0.00    +0.008 A 
ATOM     13  C   LIG A   1      -5.179  -5.410 132.441  0.00  0.00    +0.050 A 
ATOM     14  C   LIG A   1      -5.658  -5.249 133.715  0.00  0.00    +0.166 A 
ATOM     15  O   LIG A   1      -5.322  -6.009 134.788  0.00  0.00    -0.453 OA
ATOM     16  C   LIG A   1      -6.158  -5.421 135.802  0.00  0.00    +0.466 C 
ATOM     17  O   LIG A   1      -6.933  -4.296 135.326  0.00  0.00    -0.453 OA
ATOM     18  C   LIG A   1      -6.571  -4.270 134.013  0.00  0.00    +0.167 A 
ATOM     19  C   LIG A   1      -7.046  -3.391 133.052  0.00  0.00    +0.053 A 
ENDBRANCH   8  11
BRANCH   3  20
ATOM     20  O   LIG A   1      -2.951  -2.574 129.843  0.00  0.00    -0.372 OA
ATOM     21  C   LIG A   1      -2.805  -3.797 129.133  0.00  0.00    +0.195 C 
ENDBRANCH   3  20
BRANCH  10  22
ATOM     22  O   LIG A   1      -7.981  -0.421 128.681  0.00  0.00    -0.388 OA
ATOM     23  H   LIG A   1      -7.977  -0.090 127.759  0.00  0.00    +0.210 HD
ENDBRANCH  10  22
BRANCH   9  24
ATOM     24  O   LIG A   1      -7.069  -0.098 131.139  0.00  0.00    -0.366 OA
ATOM     25  C   LIG A   1      -8.289  -0.435 131.790  0.00  0.00    +0.195 C 
ENDBRANCH   9  24
BRANCH   5  26
ATOM     26  C   LIG A   1      -6.775  -2.302 126.787  0.00  0.00    +0.036 C 
BRANCH  26  27
ATOM     27  C   LIG A   1      -5.640  -2.012 125.829  0.00  0.00    -0.034 C 
ATOM     28  C   LIG A   1      -5.460  -2.622 124.651  0.00  0.00    +0.004 C 
ENDBRANCH  26  27
ENDBRANCH   5  26
TORSDOF 6
ENDMDL
MODEL 7
REMARK VINA RESULT:      -6.5      2.032      6.371
REMARK  Name = NuBBE_2016
REMARK  9 active torsions:
REMARK  status: ('A' for Active; 'I' for Inactive)
REMARK    1  A    between atoms: C_3  and  O_5
REMARK    2  A    between atoms: O_5  and  C_6
REMARK    3  A    between atoms: C_8  and  C_9
REMARK    4  A    between atoms: C_9  and  C_10
REMARK    5  A    between atoms: C_12  and  C_14
REMARK    6  A    between atoms: C_15  and  C_17
REMARK    7  A    between atoms: C_26  and  O_30
REMARK    8  A    between atoms: C_27  and  O_29
REMARK    9  A    between atoms: O_30  and  C_31
REMARK                            x       y       z     vdW  Elec       q    Type
REMARK                         _______ _______ _______ _____ _____    ______ ____
ROOT
ATOM      1  O   LIG A   1      -8.441   1.969 128.128  0.00  0.00    -0.291 OA
ATOM      2  C   LIG A   1      -7.409   2.205 127.511  0.00  0.00    +0.196 C 
ATOM      3  C   LIG A   1      -6.150   1.319 127.708  0.00  0.00    +0.187 C 
ATOM      4  C   LIG A   1      -5.008   1.655 126.733  0.00  0.00    +0.049 C 
ATOM      5  C   LIG A   1      -4.929   3.133 126.226  0.00  0.00    +0.009 C 
ATOM      6  C   LIG A   1      -5.611   3.161 124.804  0.00  0.00    +0.006 C 
ATOM      7  C   LIG A   1      -5.180   4.308 123.874  0.00  0.00    +0.009 C 
ATOM      8  C   LIG A   1      -7.148   3.254 125.100  0.00  0.00    +0.065 C 
ATOM      9  C   LIG A   1      -7.265   3.472 126.647  0.00  0.00    +0.162 C 
ATOM     10  C   LIG A   1      -5.875   4.024 127.050  0.00  0.00    +0.161 C 
ENDROOT
BRANCH   8  11
ATOM     11  C   LIG A   1      -7.975   2.143 124.438  0.00  0.00    -0.037 A 
ATOM     12  C   LIG A   1      -9.352   2.278 124.146  0.00  0.00    +0.008 A 
ATOM     13  C   LIG A   1     -10.103   1.257 123.550  0.00  0.00    +0.050 A 
ATOM     14  C   LIG A   1      -9.466   0.076 123.275  0.00  0.00    +0.166 A 
ATOM     15  O   LIG A   1     -10.042  -1.025 122.725  0.00  0.00    -0.453 OA
ATOM     16  C   LIG A   1      -8.928  -1.938 122.732  0.00  0.00    +0.466 C 
ATOM     17  O   LIG A   1      -7.707  -1.350 123.236  0.00  0.00    -0.453 OA
ATOM     18  C   LIG A   1      -8.138  -0.101 123.566  0.00  0.00    +0.167 A 
ATOM     19  C   LIG A   1      -7.371   0.903 124.137  0.00  0.00    +0.053 A 
ENDBRANCH   8  11
BRANCH   3  20
ATOM     20  O   LIG A   1      -6.352  -0.087 127.599  0.00  0.00    -0.372 OA
ATOM     21  C   LIG A   1      -6.555  -0.767 128.832  0.00  0.00    +0.195 C 
ENDBRANCH   3  20
BRANCH  10  22
ATOM     22  O   LIG A   1      -5.749   5.402 126.711  0.00  0.00    -0.388 OA
ATOM     23  H   LIG A   1      -6.404   5.556 125.999  0.00  0.00    +0.210 HD
ENDBRANCH  10  22
BRANCH   9  24
ATOM     24  O   LIG A   1      -8.210   4.491 127.014  0.00  0.00    -0.366 OA
ATOM     25  C   LIG A   1      -8.635   5.340 125.954  0.00  0.00    +0.195 C 
ENDBRANCH   9  24
BRANCH   5  26
ATOM     26  C   LIG A   1      -3.461   3.633 126.244  0.00  0.00    +0.036 C 
BRANCH  26  27
ATOM     27  C   LIG A   1      -2.829   3.666 127.620  0.00  0.00    -0.034 C 
ATOM     28  C   LIG A   1      -2.605   4.778 128.331  0.00  0.00    +0.004 C 
ENDBRANCH  26  27
ENDBRANCH   5  26
TORSDOF 6
ENDMDL
MODEL 8
REMARK VINA RESULT:      -6.5      5.192      8.573
REMARK  Name = NuBBE_2016
REMARK  9 active torsions:
REMARK  status: ('A' for Active; 'I' for Inactive)
REMARK    1  A    between atoms: C_3  and  O_5
REMARK    2  A    between atoms: O_5  and  C_6
REMARK    3  A    between atoms: C_8  and  C_9
REMARK    4  A    between atoms: C_9  and  C_10
REMARK    5  A    between atoms: C_12  and  C_14
REMARK    6  A    between atoms: C_15  and  C_17
REMARK    7  A    between atoms: C_26  and  O_30
REMARK    8  A    between atoms: C_27  and  O_29
REMARK    9  A    between atoms: O_30  and  C_31
REMARK                            x       y       z     vdW  Elec       q    Type
REMARK                         _______ _______ _______ _____ _____    ______ ____
ROOT
ATOM      1  O   LIG A   1      -6.293   0.498 130.117  0.00  0.00    -0.291 OA
ATOM      2  C   LIG A   1      -6.436  -0.494 130.822  0.00  0.00    +0.196 C 
ATOM      3  C   LIG A   1      -7.581  -0.565 131.867  0.00  0.00    +0.187 C 
ATOM      4  C   LIG A   1      -7.711  -1.944 132.539  0.00  0.00    +0.049 C 
ATOM      5  C   LIG A   1      -6.401  -2.790 132.663  0.00  0.00    +0.009 C 
ATOM      6  C   LIG A   1      -6.412  -3.820 131.468  0.00  0.00    +0.006 C 
ATOM      7  C   LIG A   1      -5.575  -5.094 131.671  0.00  0.00    +0.009 C 
ATOM      8  C   LIG A   1      -5.873  -3.010 130.239  0.00  0.00    +0.065 C 
ATOM      9  C   LIG A   1      -5.399  -1.634 130.818  0.00  0.00    +0.162 C 
ATOM     10  C   LIG A   1      -5.178  -1.922 132.324  0.00  0.00    +0.161 C 
ENDROOT
BRANCH   8  11
ATOM     11  C   LIG A   1      -6.814  -3.024 129.026  0.00  0.00    -0.037 A 
ATOM     12  C   LIG A   1      -8.057  -3.698 129.024  0.00  0.00    +0.008 A 
ATOM     13  C   LIG A   1      -8.908  -3.714 127.911  0.00  0.00    +0.050 A 
ATOM     14  C   LIG A   1      -8.485  -3.072 126.777  0.00  0.00    +0.166 A 
ATOM     15  O   LIG A   1      -9.165  -3.008 125.604  0.00  0.00    -0.453 OA
ATOM     16  C   LIG A   1      -8.227  -2.274 124.793  0.00  0.00    +0.466 C 
ATOM     17  O   LIG A   1      -7.037  -1.876 125.512  0.00  0.00    -0.453 OA
ATOM     18  C   LIG A   1      -7.275  -2.428 126.734  0.00  0.00    +0.167 A 
ATOM     19  C   LIG A   1      -6.427  -2.382 127.830  0.00  0.00    +0.053 A 
ENDBRANCH   8  11
BRANCH   3  20
ATOM     20  O   LIG A   1      -8.884  -0.242 131.389  0.00  0.00    -0.372 OA
ATOM     21  C   LIG A   1      -9.399   1.007 131.832  0.00  0.00    +0.195 C 
ENDBRANCH   3  20
BRANCH  10  22
ATOM     22  O   LIG A   1      -3.950  -2.611 132.543  0.00  0.00    -0.388 OA
ATOM     23  H   LIG A   1      -3.247  -1.976 132.295  0.00  0.00    +0.210 HD
ENDBRANCH  10  22
BRANCH   9  24
ATOM     24  O   LIG A   1      -4.123  -1.206 130.312  0.00  0.00    -0.366 OA
ATOM     25  C   LIG A   1      -3.325  -2.227 129.725  0.00  0.00    +0.195 C 
ENDBRANCH   9  24
BRANCH   5  26
ATOM     26  C   LIG A   1      -6.309  -3.440 134.070  0.00  0.00    +0.036 C 
BRANCH  26  27
ATOM     27  C   LIG A   1      -7.605  -3.425 134.851  0.00  0.00    -0.034 C 
ATOM     28  C   LIG A   1      -8.333  -4.510 135.143  0.00  0.00    +0.004 C 
ENDBRANCH  26  27
ENDBRANCH   5  26
TORSDOF 6
ENDMDL
MODEL 9
REMARK VINA RESULT:      -6.4      2.074      6.554
REMARK  Name = NuBBE_2016
REMARK  9 active torsions:
REMARK  status: ('A' for Active; 'I' for Inactive)
REMARK    1  A    between atoms: C_3  and  O_5
REMARK    2  A    between atoms: O_5  and  C_6
REMARK    3  A    between atoms: C_8  and  C_9
REMARK    4  A    between atoms: C_9  and  C_10
REMARK    5  A    between atoms: C_12  and  C_14
REMARK    6  A    between atoms: C_15  and  C_17
REMARK    7  A    between atoms: C_26  and  O_30
REMARK    8  A    between atoms: C_27  and  O_29
REMARK    9  A    between atoms: O_30  and  C_31
REMARK                            x       y       z     vdW  Elec       q    Type
REMARK                         _______ _______ _______ _____ _____    ______ ____
ROOT
ATOM      1  O   LIG A   1      -8.299   3.245 127.857  0.00  0.00    -0.291 OA
ATOM      2  C   LIG A   1      -7.093   3.246 128.071  0.00  0.00    +0.196 C 
ATOM      3  C   LIG A   1      -6.522   2.658 129.389  0.00  0.00    +0.187 C 
ATOM      4  C   LIG A   1      -4.984   2.590 129.412  0.00  0.00    +0.049 C 
ATOM      5  C   LIG A   1      -4.221   3.661 128.566  0.00  0.00    +0.009 C 
ATOM      6  C   LIG A   1      -3.830   2.968 127.204  0.00  0.00    +0.006 C 
ATOM      7  C   LIG A   1      -2.630   3.579 126.460  0.00  0.00    +0.009 C 
ATOM      8  C   LIG A   1      -5.121   3.066 126.321  0.00  0.00    +0.065 C 
ATOM      9  C   LIG A   1      -6.114   3.971 127.127  0.00  0.00    +0.162 C 
ATOM     10  C   LIG A   1      -5.196   4.755 128.097  0.00  0.00    +0.161 C 
ENDROOT
BRANCH   8  11
ATOM     11  C   LIG A   1      -5.611   1.713 125.786  0.00  0.00    -0.037 A 
ATOM     12  C   LIG A   1      -5.091   0.476 126.231  0.00  0.00    +0.008 A 
ATOM     13  C   LIG A   1      -5.537  -0.756 125.733  0.00  0.00    +0.050 A 
ATOM     14  C   LIG A   1      -6.492  -0.737 124.752  0.00  0.00    +0.166 A 
ATOM     15  O   LIG A   1      -7.019  -1.828 124.139  0.00  0.00    -0.453 OA
ATOM     16  C   LIG A   1      -7.902  -1.200 123.191  0.00  0.00    +0.466 C 
ATOM     17  O   LIG A   1      -7.921   0.242 123.293  0.00  0.00    -0.453 OA
ATOM     18  C   LIG A   1      -7.003   0.445 124.278  0.00  0.00    +0.167 A 
ATOM     19  C   LIG A   1      -6.591   1.673 124.772  0.00  0.00    +0.053 A 
ENDBRANCH   8  11
BRANCH   3  20
ATOM     20  O   LIG A   1      -6.974   1.353 129.738  0.00  0.00    -0.372 OA
ATOM     21  C   LIG A   1      -5.956   0.363 129.824  0.00  0.00    +0.195 C 
ENDBRANCH   3  20
BRANCH  10  22
ATOM     22  O   LIG A   1      -4.528   5.821 127.427  0.00  0.00    -0.388 OA
ATOM     23  H   LIG A   1      -4.605   5.617 126.473  0.00  0.00    +0.210 HD
ENDBRANCH  10  22
BRANCH   9  24
ATOM     24  O   LIG A   1      -6.770   4.965 126.322  0.00  0.00    -0.366 OA
ATOM     25  C   LIG A   1      -6.230   5.149 125.018  0.00  0.00    +0.195 C 
ENDBRANCH   9  24
BRANCH   5  26
ATOM     26  C   LIG A   1      -3.019   4.227 129.368  0.00  0.00    +0.036 C 
BRANCH  26  27
ATOM     27  C   LIG A   1      -3.370   4.719 130.756  0.00  0.00    -0.034 C 
ATOM     28  C   LIG A   1      -2.599   4.562 131.839  0.00  0.00    +0.004 C 
ENDBRANCH  26  27
ENDBRANCH   5  26
TORSDOF 6
ENDMDL
