MODEL 1
REMARK VINA RESULT:      -9.1      0.000      0.000
REMARK  Name = NuBBE_1027
REMARK  10 active torsions:
REMARK  status: ('A' for Active; 'I' for Inactive)
REMARK    1  A    between atoms: O_1  and  C_2
REMARK    2  A    between atoms: C_6  and  C_7
REMARK    3  A    between atoms: C_11  and  C_12
REMARK    4  A    between atoms: C_16  and  O_17
REMARK    5  A    between atoms: C_20  and  C_21
REMARK    6  A    between atoms: C_24  and  C_25
REMARK    7  A    between atoms: C_28  and  C_30
REMARK    8  A    between atoms: C_30  and  C_31
REMARK    9  A    between atoms: C_36  and  C_37
REMARK   10  A    between atoms: C_36  and  C_38
REMARK                            x       y       z     vdW  Elec       q    Type
REMARK                         _______ _______ _______ _____ _____    ______ ____
ROOT
ATOM      1  C   LIG A   1      -4.390   3.698 130.996  0.00  0.00    +0.120 C 
ATOM      2  C   LIG A   1      -3.508   3.666 129.751  0.00  0.00    +0.032 C 
ATOM      3  C   LIG A   1      -4.008   2.692 128.679  0.00  0.00    +0.010 C 
ATOM      4  C   LIG A   1      -5.496   2.902 128.251  0.00  0.00    -0.025 C 
ATOM      5  C   LIG A   1      -5.556   4.211 127.427  0.00  0.00    +0.012 C 
ATOM      6  C   LIG A   1      -6.369   2.931 129.564  0.00  0.00    +0.003 C 
ATOM      7  C   LIG A   1      -7.873   2.992 129.231  0.00  0.00    +0.005 C 
ATOM      8  C   LIG A   1      -8.304   1.748 128.446  0.00  0.00    +0.008 C 
ATOM      9  C   LIG A   1      -7.531   1.516 127.116  0.00  0.00    -0.023 C 
ATOM     10  C   LIG A   1      -8.021   2.616 126.127  0.00  0.00    +0.012 C 
ATOM     11  C   LIG A   1      -5.976   1.640 127.400  0.00  0.00    +0.004 C 
ATOM     12  C   LIG A   1      -5.159   1.380 126.110  0.00  0.00    +0.036 C 
ATOM     13  C   LIG A   1      -5.438  -0.008 125.519  0.00  0.00    +0.119 C 
ATOM     14  C   LIG A   1      -6.938  -0.222 125.237  0.00  0.00    +0.028 C 
ATOM     15  C   LIG A   1      -7.849   0.031 126.499  0.00  0.00    -0.021 C 
ATOM     16  C   LIG A   1      -7.648  -1.067 127.585  0.00  0.00    +0.012 C 
ATOM     17  C   LIG A   1      -9.330  -0.080 126.031  0.00  0.00    +0.008 C 
ATOM     18  C   LIG A   1      -9.654  -1.417 125.371  0.00  0.00    +0.007 C 
ATOM     19  C   LIG A   1      -8.782  -1.713 124.133  0.00  0.00    -0.028 C 
ATOM     20  C   LIG A   1      -9.283  -0.872 122.942  0.00  0.00    +0.011 C 
ATOM     21  C   LIG A   1      -7.256  -1.486 124.368  0.00  0.00    +0.008 C 
ATOM     22  C   LIG A   1      -6.654  -2.877 124.750  0.00  0.00    +0.018 C 
ATOM     23  C   LIG A   1      -7.839  -3.866 124.680  0.00  0.00    +0.009 C 
ATOM     24  C   LIG A   1      -8.879  -3.206 123.786  0.00  0.00    +0.007 C 
ATOM     25  C   LIG A   1      -5.901   3.926 130.691  0.00  0.00    -0.006 C 
ATOM     26  C   LIG A   1      -6.139   5.408 130.338  0.00  0.00    +0.014 C 
ATOM     27  C   LIG A   1      -6.701   3.658 131.995  0.00  0.00    +0.014 C 
ENDROOT
BRANCH  22  28
ATOM     28  C   LIG A   1      -5.486  -3.306 123.846  0.00  0.00    -0.076 C 
ATOM     29  C   LIG A   1      -5.269  -2.494 122.595  0.00  0.00    +0.038 C 
ATOM     30  C   LIG A   1      -4.636  -4.310 124.126  0.00  0.00    +0.007 C 
ENDBRANCH  22  28
BRANCH   1  31
ATOM     31  O   LIG A   1      -4.180   2.484 131.724  0.00  0.00    -0.391 OA
ATOM     32  H   LIG A   1      -4.995   2.259 132.203  0.00  0.00    +0.210 HD
ENDBRANCH   1  31
BRANCH  13  33
ATOM     33  O   LIG A   1      -4.932  -0.984 126.422  0.00  0.00    -0.392 OA
ATOM     34  H   LIG A   1      -4.608  -1.735 125.895  0.00  0.00    +0.210 HD
ENDBRANCH  13  33
TORSDOF 3
ENDMDL
MODEL 2
REMARK VINA RESULT:      -8.9      2.546      8.429
REMARK  Name = NuBBE_1027
REMARK  10 active torsions:
REMARK  status: ('A' for Active; 'I' for Inactive)
REMARK    1  A    between atoms: O_1  and  C_2
REMARK    2  A    between atoms: C_6  and  C_7
REMARK    3  A    between atoms: C_11  and  C_12
REMARK    4  A    between atoms: C_16  and  O_17
REMARK    5  A    between atoms: C_20  and  C_21
REMARK    6  A    between atoms: C_24  and  C_25
REMARK    7  A    between atoms: C_28  and  C_30
REMARK    8  A    between atoms: C_30  and  C_31
REMARK    9  A    between atoms: C_36  and  C_37
REMARK   10  A    between atoms: C_36  and  C_38
REMARK                            x       y       z     vdW  Elec       q    Type
REMARK                         _______ _______ _______ _____ _____    ______ ____
ROOT
ATOM      1  C   LIG A   1      -8.785  -1.768 125.328  0.00  0.00    +0.120 C 
ATOM      2  C   LIG A   1      -8.579  -0.307 124.935  0.00  0.00    +0.032 C 
ATOM      3  C   LIG A   1      -8.495   0.638 126.139  0.00  0.00    +0.010 C 
ATOM      4  C   LIG A   1      -7.429   0.236 127.208  0.00  0.00    -0.025 C 
ATOM      5  C   LIG A   1      -6.036   0.513 126.594  0.00  0.00    +0.012 C 
ATOM      6  C   LIG A   1      -7.676  -1.276 127.583  0.00  0.00    +0.003 C 
ATOM      7  C   LIG A   1      -6.759  -1.720 128.739  0.00  0.00    +0.005 C 
ATOM      8  C   LIG A   1      -7.048  -0.904 130.004  0.00  0.00    +0.008 C 
ATOM      9  C   LIG A   1      -6.893   0.635 129.836  0.00  0.00    -0.023 C 
ATOM     10  C   LIG A   1      -5.364   0.909 129.709  0.00  0.00    +0.012 C 
ATOM     11  C   LIG A   1      -7.675   1.091 128.535  0.00  0.00    +0.004 C 
ATOM     12  C   LIG A   1      -7.579   2.624 128.344  0.00  0.00    +0.036 C 
ATOM     13  C   LIG A   1      -8.144   3.392 129.546  0.00  0.00    +0.119 C 
ATOM     14  C   LIG A   1      -7.453   2.988 130.862  0.00  0.00    +0.028 C 
ATOM     15  C   LIG A   1      -7.494   1.435 131.134  0.00  0.00    -0.021 C 
ATOM     16  C   LIG A   1      -8.936   0.945 131.458  0.00  0.00    +0.012 C 
ATOM     17  C   LIG A   1      -6.642   1.164 132.409  0.00  0.00    +0.008 C 
ATOM     18  C   LIG A   1      -7.113   1.954 133.626  0.00  0.00    +0.007 C 
ATOM     19  C   LIG A   1      -7.096   3.482 133.406  0.00  0.00    -0.028 C 
ATOM     20  C   LIG A   1      -5.646   3.994 133.491  0.00  0.00    +0.011 C 
ATOM     21  C   LIG A   1      -7.766   3.934 132.071  0.00  0.00    +0.008 C 
ATOM     22  C   LIG A   1      -9.245   4.304 132.419  0.00  0.00    +0.018 C 
ATOM     23  C   LIG A   1      -9.367   4.097 133.946  0.00  0.00    +0.009 C 
ATOM     24  C   LIG A   1      -7.947   4.163 134.490  0.00  0.00    +0.007 C 
ATOM     25  C   LIG A   1      -7.759  -2.287 126.379  0.00  0.00    -0.006 C 
ATOM     26  C   LIG A   1      -6.400  -2.539 125.695  0.00  0.00    +0.014 C 
ATOM     27  C   LIG A   1      -8.249  -3.671 126.887  0.00  0.00    +0.014 C 
ENDROOT
BRANCH  22  28
ATOM     28  C   LIG A   1      -9.633   5.730 131.995  0.00  0.00    -0.076 C 
ATOM     29  C   LIG A   1      -8.542   6.573 131.388  0.00  0.00    +0.038 C 
ATOM     30  C   LIG A   1     -10.874   6.239 132.085  0.00  0.00    +0.007 C 
ENDBRANCH  22  28
BRANCH   1  31
ATOM     31  O   LIG A   1     -10.131  -1.921 125.790  0.00  0.00    -0.391 OA
ATOM     32  H   LIG A   1     -10.571  -1.055 125.770  0.00  0.00    +0.210 HD
ENDBRANCH   1  31
BRANCH  13  33
ATOM     33  O   LIG A   1      -9.547   3.162 129.600  0.00  0.00    -0.392 OA
ATOM     34  H   LIG A   1      -9.796   2.662 128.804  0.00  0.00    +0.210 HD
ENDBRANCH  13  33
TORSDOF 3
ENDMDL
MODEL 3
REMARK VINA RESULT:      -8.6      1.956      7.958
REMARK  Name = NuBBE_1027
REMARK  10 active torsions:
REMARK  status: ('A' for Active; 'I' for Inactive)
REMARK    1  A    between atoms: O_1  and  C_2
REMARK    2  A    between atoms: C_6  and  C_7
REMARK    3  A    between atoms: C_11  and  C_12
REMARK    4  A    between atoms: C_16  and  O_17
REMARK    5  A    between atoms: C_20  and  C_21
REMARK    6  A    between atoms: C_24  and  C_25
REMARK    7  A    between atoms: C_28  and  C_30
REMARK    8  A    between atoms: C_30  and  C_31
REMARK    9  A    between atoms: C_36  and  C_37
REMARK   10  A    between atoms: C_36  and  C_38
REMARK                            x       y       z     vdW  Elec       q    Type
REMARK                         _______ _______ _______ _____ _____    ______ ____
ROOT
ATOM      1  C   LIG A   1      -8.922  -2.076 123.515  0.00  0.00    +0.120 C 
ATOM      2  C   LIG A   1      -9.387  -0.638 123.301  0.00  0.00    +0.032 C 
ATOM      3  C   LIG A   1      -9.031   0.293 124.465  0.00  0.00    +0.010 C 
ATOM      4  C   LIG A   1      -7.519   0.292 124.860  0.00  0.00    -0.025 C 
ATOM      5  C   LIG A   1      -6.750   1.022 123.731  0.00  0.00    +0.012 C 
ATOM      6  C   LIG A   1      -7.081  -1.208 125.068  0.00  0.00    +0.003 C 
ATOM      7  C   LIG A   1      -5.637  -1.298 125.599  0.00  0.00    +0.005 C 
ATOM      8  C   LIG A   1      -5.520  -0.615 126.966  0.00  0.00    +0.008 C 
ATOM      9  C   LIG A   1      -5.942   0.882 126.985  0.00  0.00    -0.023 C 
ATOM     10  C   LIG A   1      -4.828   1.660 126.222  0.00  0.00    +0.012 C 
ATOM     11  C   LIG A   1      -7.348   1.027 126.267  0.00  0.00    +0.004 C 
ATOM     12  C   LIG A   1      -7.829   2.499 126.292  0.00  0.00    +0.036 C 
ATOM     13  C   LIG A   1      -7.954   3.041 127.722  0.00  0.00    +0.119 C 
ATOM     14  C   LIG A   1      -6.631   2.913 128.502  0.00  0.00    +0.028 C 
ATOM     15  C   LIG A   1      -6.061   1.443 128.520  0.00  0.00    -0.021 C 
ATOM     16  C   LIG A   1      -6.943   0.493 129.383  0.00  0.00    +0.012 C 
ATOM     17  C   LIG A   1      -4.667   1.495 129.212  0.00  0.00    +0.008 C 
ATOM     18  C   LIG A   1      -4.713   2.091 130.616  0.00  0.00    +0.007 C 
ATOM     19  C   LIG A   1      -5.272   3.529 130.650  0.00  0.00    -0.028 C 
ATOM     20  C   LIG A   1      -4.193   4.507 130.146  0.00  0.00    +0.011 C 
ATOM     21  C   LIG A   1      -6.600   3.709 129.851  0.00  0.00    +0.008 C 
ATOM     22  C   LIG A   1      -7.763   3.555 130.884  0.00  0.00    +0.018 C 
ATOM     23  C   LIG A   1      -7.071   3.337 132.248  0.00  0.00    +0.009 C 
ATOM     24  C   LIG A   1      -5.661   3.891 132.092  0.00  0.00    +0.007 C 
ATOM     25  C   LIG A   1      -7.416  -2.201 123.892  0.00  0.00    -0.006 C 
ATOM     26  C   LIG A   1      -6.548  -1.980 122.637  0.00  0.00    +0.014 C 
ATOM     27  C   LIG A   1      -7.154  -3.663 124.347  0.00  0.00    +0.014 C 
ENDROOT
BRANCH  22  28
ATOM     28  C   LIG A   1      -8.722   4.757 130.907  0.00  0.00    -0.076 C 
ATOM     29  C   LIG A   1     -10.196   4.443 130.899  0.00  0.00    +0.038 C 
ATOM     30  C   LIG A   1      -8.331   6.041 130.983  0.00  0.00    +0.007 C 
ENDBRANCH  22  28
BRANCH   1  31
ATOM     31  O   LIG A   1      -9.763  -2.675 124.507  0.00  0.00    -0.391 OA
ATOM     32  H   LIG A   1     -10.634  -2.246 124.482  0.00  0.00    +0.210 HD
ENDBRANCH   1  31
BRANCH  13  33
ATOM     33  O   LIG A   1      -9.013   2.346 128.370  0.00  0.00    -0.392 OA
ATOM     34  H   LIG A   1      -9.623   2.030 127.682  0.00  0.00    +0.210 HD
ENDBRANCH  13  33
TORSDOF 3
ENDMDL
MODEL 4
REMARK VINA RESULT:      -8.5      2.910      8.474
REMARK  Name = NuBBE_1027
REMARK  10 active torsions:
REMARK  status: ('A' for Active; 'I' for Inactive)
REMARK    1  A    between atoms: O_1  and  C_2
REMARK    2  A    between atoms: C_6  and  C_7
REMARK    3  A    between atoms: C_11  and  C_12
REMARK    4  A    between atoms: C_16  and  O_17
REMARK    5  A    between atoms: C_20  and  C_21
REMARK    6  A    between atoms: C_24  and  C_25
REMARK    7  A    between atoms: C_28  and  C_30
REMARK    8  A    between atoms: C_30  and  C_31
REMARK    9  A    between atoms: C_36  and  C_37
REMARK   10  A    between atoms: C_36  and  C_38
REMARK                            x       y       z     vdW  Elec       q    Type
REMARK                         _______ _______ _______ _____ _____    ______ ____
ROOT
ATOM      1  C   LIG A   1      -7.648  -2.351 126.897  0.00  0.00    +0.120 C 
ATOM      2  C   LIG A   1      -6.821  -1.163 126.414  0.00  0.00    +0.032 C 
ATOM      3  C   LIG A   1      -7.051   0.110 127.237  0.00  0.00    +0.010 C 
ATOM      4  C   LIG A   1      -6.853  -0.066 128.777  0.00  0.00    -0.025 C 
ATOM      5  C   LIG A   1      -5.335  -0.237 129.027  0.00  0.00    +0.012 C 
ATOM      6  C   LIG A   1      -7.721  -1.301 129.231  0.00  0.00    +0.003 C 
ATOM      7  C   LIG A   1      -7.699  -1.464 130.763  0.00  0.00    +0.005 C 
ATOM      8  C   LIG A   1      -8.302  -0.231 131.447  0.00  0.00    +0.008 C 
ATOM      9  C   LIG A   1      -7.602   1.114 131.100  0.00  0.00    -0.023 C 
ATOM     10  C   LIG A   1      -6.219   1.084 131.817  0.00  0.00    +0.012 C 
ATOM     11  C   LIG A   1      -7.439   1.216 129.526  0.00  0.00    +0.004 C 
ATOM     12  C   LIG A   1      -6.778   2.558 129.128  0.00  0.00    +0.036 C 
ATOM     13  C   LIG A   1      -7.587   3.767 129.614  0.00  0.00    +0.119 C 
ATOM     14  C   LIG A   1      -7.814   3.732 131.137  0.00  0.00    +0.028 C 
ATOM     15  C   LIG A   1      -8.479   2.391 131.635  0.00  0.00    -0.021 C 
ATOM     16  C   LIG A   1      -9.959   2.273 131.166  0.00  0.00    +0.012 C 
ATOM     17  C   LIG A   1      -8.513   2.440 133.190  0.00  0.00    +0.008 C 
ATOM     18  C   LIG A   1      -9.248   3.661 133.738  0.00  0.00    +0.007 C 
ATOM     19  C   LIG A   1      -8.637   5.000 133.272  0.00  0.00    -0.028 C 
ATOM     20  C   LIG A   1      -7.346   5.276 134.067  0.00  0.00    +0.011 C 
ATOM     21  C   LIG A   1      -8.368   5.070 131.737  0.00  0.00    +0.008 C 
ATOM     22  C   LIG A   1      -9.615   5.763 131.099  0.00  0.00    +0.018 C 
ATOM     23  C   LIG A   1     -10.540   6.109 132.287  0.00  0.00    +0.009 C 
ATOM     24  C   LIG A   1      -9.645   6.132 133.518  0.00  0.00    +0.007 C 
ATOM     25  C   LIG A   1      -7.510  -2.636 128.422  0.00  0.00    -0.006 C 
ATOM     26  C   LIG A   1      -6.154  -3.315 128.701  0.00  0.00    +0.014 C 
ATOM     27  C   LIG A   1      -8.600  -3.669 128.819  0.00  0.00    +0.014 C 
ENDROOT
BRANCH  22  28
ATOM     28  C   LIG A   1      -9.262   7.001 130.259  0.00  0.00    -0.076 C 
ATOM     29  C   LIG A   1      -7.873   7.559 130.432  0.00  0.00    +0.038 C 
ATOM     30  C   LIG A   1     -10.085   7.573 129.362  0.00  0.00    +0.007 C 
ENDBRANCH  22  28
BRANCH   1  31
ATOM     31  O   LIG A   1      -9.013  -2.125 126.527  0.00  0.00    -0.391 OA
ATOM     32  H   LIG A   1      -9.399  -1.471 127.133  0.00  0.00    +0.210 HD
ENDBRANCH   1  31
BRANCH  13  33
ATOM     33  O   LIG A   1      -8.819   3.793 128.902  0.00  0.00    -0.392 OA
ATOM     34  H   LIG A   1      -9.458   4.295 129.435  0.00  0.00    +0.210 HD
ENDBRANCH  13  33
TORSDOF 3
ENDMDL
MODEL 5
REMARK VINA RESULT:      -8.3      2.805      4.386
REMARK  Name = NuBBE_1027
REMARK  10 active torsions:
REMARK  status: ('A' for Active; 'I' for Inactive)
REMARK    1  A    between atoms: O_1  and  C_2
REMARK    2  A    between atoms: C_6  and  C_7
REMARK    3  A    between atoms: C_11  and  C_12
REMARK    4  A    between atoms: C_16  and  O_17
REMARK    5  A    between atoms: C_20  and  C_21
REMARK    6  A    between atoms: C_24  and  C_25
REMARK    7  A    between atoms: C_28  and  C_30
REMARK    8  A    between atoms: C_30  and  C_31
REMARK    9  A    between atoms: C_36  and  C_37
REMARK   10  A    between atoms: C_36  and  C_38
REMARK                            x       y       z     vdW  Elec       q    Type
REMARK                         _______ _______ _______ _____ _____    ______ ____
ROOT
ATOM      1  C   LIG A   1      -4.883   0.354 132.874  0.00  0.00    +0.120 C 
ATOM      2  C   LIG A   1      -6.044   1.258 132.472  0.00  0.00    +0.032 C 
ATOM      3  C   LIG A   1      -6.500   1.051 131.024  0.00  0.00    +0.010 C 
ATOM      4  C   LIG A   1      -6.846  -0.428 130.656  0.00  0.00    -0.025 C 
ATOM      5  C   LIG A   1      -8.171  -0.781 131.372  0.00  0.00    +0.012 C 
ATOM      6  C   LIG A   1      -5.624  -1.325 131.089  0.00  0.00    +0.003 C 
ATOM      7  C   LIG A   1      -5.816  -2.785 130.634  0.00  0.00    +0.005 C 
ATOM      8  C   LIG A   1      -5.900  -2.870 129.106  0.00  0.00    +0.008 C 
ATOM      9  C   LIG A   1      -7.035  -2.018 128.467  0.00  0.00    -0.023 C 
ATOM     10  C   LIG A   1      -8.372  -2.730 128.829  0.00  0.00    +0.012 C 
ATOM     11  C   LIG A   1      -6.975  -0.552 129.069  0.00  0.00    +0.004 C 
ATOM     12  C   LIG A   1      -8.066   0.346 128.436  0.00  0.00    +0.036 C 
ATOM     13  C   LIG A   1      -7.925   0.439 126.911  0.00  0.00    +0.119 C 
ATOM     14  C   LIG A   1      -7.946  -0.951 126.247  0.00  0.00    +0.028 C 
ATOM     15  C   LIG A   1      -6.869  -1.939 126.839  0.00  0.00    -0.021 C 
ATOM     16  C   LIG A   1      -5.422  -1.510 126.457  0.00  0.00    +0.012 C 
ATOM     17  C   LIG A   1      -7.103  -3.330 126.180  0.00  0.00    +0.008 C 
ATOM     18  C   LIG A   1      -7.043  -3.291 124.655  0.00  0.00    +0.007 C 
ATOM     19  C   LIG A   1      -8.076  -2.331 124.028  0.00  0.00    -0.028 C 
ATOM     20  C   LIG A   1      -9.471  -2.983 124.072  0.00  0.00    +0.011 C 
ATOM     21  C   LIG A   1      -8.105  -0.917 124.688  0.00  0.00    +0.008 C 
ATOM     22  C   LIG A   1      -7.179  -0.004 123.821  0.00  0.00    +0.018 C 
ATOM     23  C   LIG A   1      -6.683  -0.905 122.668  0.00  0.00    +0.009 C 
ATOM     24  C   LIG A   1      -7.687  -2.045 122.570  0.00  0.00    +0.007 C 
ATOM     25  C   LIG A   1      -5.127  -1.156 132.573  0.00  0.00    -0.006 C 
ATOM     26  C   LIG A   1      -6.100  -1.740 133.617  0.00  0.00    +0.014 C 
ATOM     27  C   LIG A   1      -3.782  -1.908 132.767  0.00  0.00    +0.014 C 
ENDROOT
BRANCH  22  28
ATOM     28  C   LIG A   1      -7.881   1.263 123.306  0.00  0.00    -0.076 C 
ATOM     29  C   LIG A   1      -9.387   1.228 123.260  0.00  0.00    +0.038 C 
ATOM     30  C   LIG A   1      -7.246   2.393 122.949  0.00  0.00    +0.007 C 
ENDBRANCH  22  28
BRANCH   1  31
ATOM     31  O   LIG A   1      -3.698   0.832 132.228  0.00  0.00    -0.391 OA
ATOM     32  H   LIG A   1      -2.950   0.269 132.486  0.00  0.00    +0.210 HD
ENDBRANCH   1  31
BRANCH  13  33
ATOM     33  O   LIG A   1      -6.722   1.140 126.619  0.00  0.00    -0.392 OA
ATOM     34  H   LIG A   1      -6.937   1.845 125.984  0.00  0.00    +0.210 HD
ENDBRANCH  13  33
TORSDOF 3
ENDMDL
MODEL 6
REMARK VINA RESULT:      -8.3      4.072      6.303
REMARK  Name = NuBBE_1027
REMARK  10 active torsions:
REMARK  status: ('A' for Active; 'I' for Inactive)
REMARK    1  A    between atoms: O_1  and  C_2
REMARK    2  A    between atoms: C_6  and  C_7
REMARK    3  A    between atoms: C_11  and  C_12
REMARK    4  A    between atoms: C_16  and  O_17
REMARK    5  A    between atoms: C_20  and  C_21
REMARK    6  A    between atoms: C_24  and  C_25
REMARK    7  A    between atoms: C_28  and  C_30
REMARK    8  A    between atoms: C_30  and  C_31
REMARK    9  A    between atoms: C_36  and  C_37
REMARK   10  A    between atoms: C_36  and  C_38
REMARK                            x       y       z     vdW  Elec       q    Type
REMARK                         _______ _______ _______ _____ _____    ______ ____
ROOT
ATOM      1  C   LIG A   1     -10.092   5.929 131.802  0.00  0.00    +0.120 C 
ATOM      2  C   LIG A   1      -9.523   5.436 133.130  0.00  0.00    +0.032 C 
ATOM      3  C   LIG A   1      -8.841   4.067 133.025  0.00  0.00    +0.010 C 
ATOM      4  C   LIG A   1      -7.738   3.973 131.923  0.00  0.00    -0.025 C 
ATOM      5  C   LIG A   1      -6.527   4.802 132.414  0.00  0.00    +0.012 C 
ATOM      6  C   LIG A   1      -8.366   4.493 130.574  0.00  0.00    +0.003 C 
ATOM      7  C   LIG A   1      -7.390   4.302 129.396  0.00  0.00    +0.005 C 
ATOM      8  C   LIG A   1      -7.076   2.816 129.187  0.00  0.00    +0.008 C 
ATOM      9  C   LIG A   1      -6.472   2.098 130.428  0.00  0.00    -0.023 C 
ATOM     10  C   LIG A   1      -5.019   2.639 130.582  0.00  0.00    +0.012 C 
ATOM     11  C   LIG A   1      -7.357   2.438 131.699  0.00  0.00    +0.004 C 
ATOM     12  C   LIG A   1      -6.815   1.715 132.956  0.00  0.00    +0.036 C 
ATOM     13  C   LIG A   1      -6.783   0.192 132.778  0.00  0.00    +0.119 C 
ATOM     14  C   LIG A   1      -5.961  -0.225 131.543  0.00  0.00    +0.028 C 
ATOM     15  C   LIG A   1      -6.440   0.473 130.213  0.00  0.00    -0.021 C 
ATOM     16  C   LIG A   1      -7.837  -0.045 129.760  0.00  0.00    +0.012 C 
ATOM     17  C   LIG A   1      -5.439   0.072 129.091  0.00  0.00    +0.008 C 
ATOM     18  C   LIG A   1      -5.311  -1.438 128.910  0.00  0.00    +0.007 C 
ATOM     19  C   LIG A   1      -4.849  -2.168 130.190  0.00  0.00    -0.028 C 
ATOM     20  C   LIG A   1      -3.338  -1.948 130.387  0.00  0.00    +0.011 C 
ATOM     21  C   LIG A   1      -5.641  -1.758 131.470  0.00  0.00    +0.008 C 
ATOM     22  C   LIG A   1      -6.783  -2.810 131.643  0.00  0.00    +0.018 C 
ATOM     23  C   LIG A   1      -6.588  -3.817 130.487  0.00  0.00    +0.009 C 
ATOM     24  C   LIG A   1      -5.137  -3.671 130.050  0.00  0.00    +0.007 C 
ATOM     25  C   LIG A   1      -9.067   5.901 130.629  0.00  0.00    -0.006 C 
ATOM     26  C   LIG A   1      -8.078   7.074 130.777  0.00  0.00    +0.014 C 
ATOM     27  C   LIG A   1      -9.843   6.155 129.307  0.00  0.00    +0.014 C 
ENDROOT
BRANCH  22  28
ATOM     28  C   LIG A   1      -6.776  -3.499 133.018  0.00  0.00    -0.076 C 
ATOM     29  C   LIG A   1      -8.051  -3.422 133.817  0.00  0.00    +0.038 C 
ATOM     30  C   LIG A   1      -5.738  -4.193 133.516  0.00  0.00    +0.007 C 
ENDBRANCH  22  28
BRANCH   1  31
ATOM     31  O   LIG A   1     -11.257   5.155 131.499  0.00  0.00    -0.391 OA
ATOM     32  H   LIG A   1     -11.060   4.572 130.748  0.00  0.00    +0.210 HD
ENDBRANCH   1  31
BRANCH  13  33
ATOM     33  O   LIG A   1      -8.125  -0.273 132.694  0.00  0.00    -0.392 OA
ATOM     34  H   LIG A   1      -8.169  -0.922 131.971  0.00  0.00    +0.210 HD
ENDBRANCH  13  33
TORSDOF 3
ENDMDL
MODEL 7
REMARK VINA RESULT:      -8.2      2.429      8.133
REMARK  Name = NuBBE_1027
REMARK  10 active torsions:
REMARK  status: ('A' for Active; 'I' for Inactive)
REMARK    1  A    between atoms: O_1  and  C_2
REMARK    2  A    between atoms: C_6  and  C_7
REMARK    3  A    between atoms: C_11  and  C_12
REMARK    4  A    between atoms: C_16  and  O_17
REMARK    5  A    between atoms: C_20  and  C_21
REMARK    6  A    between atoms: C_24  and  C_25
REMARK    7  A    between atoms: C_28  and  C_30
REMARK    8  A    between atoms: C_30  and  C_31
REMARK    9  A    between atoms: C_36  and  C_37
REMARK   10  A    between atoms: C_36  and  C_38
REMARK                            x       y       z     vdW  Elec       q    Type
REMARK                         _______ _______ _______ _____ _____    ______ ____
ROOT
ATOM      1  C   LIG A   1      -9.211   0.718 123.319  0.00  0.00    +0.120 C 
ATOM      2  C   LIG A   1      -8.858   2.200 123.406  0.00  0.00    +0.032 C 
ATOM      3  C   LIG A   1      -8.605   2.679 124.840  0.00  0.00    +0.010 C 
ATOM      4  C   LIG A   1      -7.541   1.848 125.626  0.00  0.00    -0.025 C 
ATOM      5  C   LIG A   1      -6.157   2.182 125.018  0.00  0.00    +0.012 C 
ATOM      6  C   LIG A   1      -7.943   0.328 125.508  0.00  0.00    +0.003 C 
ATOM      7  C   LIG A   1      -7.027  -0.559 126.375  0.00  0.00    +0.005 C 
ATOM      8  C   LIG A   1      -7.157  -0.186 127.856  0.00  0.00    +0.008 C 
ATOM      9  C   LIG A   1      -6.832   1.300 128.185  0.00  0.00    -0.023 C 
ATOM     10  C   LIG A   1      -5.290   1.456 128.023  0.00  0.00    +0.012 C 
ATOM     11  C   LIG A   1      -7.620   2.232 127.173  0.00  0.00    +0.004 C 
ATOM     12  C   LIG A   1      -7.357   3.726 127.484  0.00  0.00    +0.036 C 
ATOM     13  C   LIG A   1      -7.768   4.100 128.914  0.00  0.00    +0.119 C 
ATOM     14  C   LIG A   1      -7.064   3.219 129.963  0.00  0.00    +0.028 C 
ATOM     15  C   LIG A   1      -7.272   1.675 129.718  0.00  0.00    -0.021 C 
ATOM     16  C   LIG A   1      -8.743   1.242 129.987  0.00  0.00    +0.012 C 
ATOM     17  C   LIG A   1      -6.395   0.918 130.758  0.00  0.00    +0.008 C 
ATOM     18  C   LIG A   1      -6.710   1.299 132.202  0.00  0.00    +0.007 C 
ATOM     19  C   LIG A   1      -6.527   2.804 132.490  0.00  0.00    -0.028 C 
ATOM     20  C   LIG A   1      -5.024   3.122 132.612  0.00  0.00    +0.011 C 
ATOM     21  C   LIG A   1      -7.205   3.735 131.436  0.00  0.00    +0.008 C 
ATOM     22  C   LIG A   1      -8.611   4.104 132.010  0.00  0.00    +0.018 C 
ATOM     23  C   LIG A   1      -8.681   3.414 133.391  0.00  0.00    +0.009 C 
ATOM     24  C   LIG A   1      -7.238   3.162 133.804  0.00  0.00    +0.007 C 
ATOM     25  C   LIG A   1      -8.202  -0.214 124.053  0.00  0.00    -0.006 C 
ATOM     26  C   LIG A   1      -6.917  -0.349 123.211  0.00  0.00    +0.014 C 
ATOM     27  C   LIG A   1      -8.823  -1.636 124.123  0.00  0.00    +0.014 C 
ENDROOT
BRANCH  22  28
ATOM     28  C   LIG A   1      -8.853   5.619 132.107  0.00  0.00    -0.076 C 
ATOM     29  C   LIG A   1     -10.199   6.055 132.625  0.00  0.00    +0.038 C 
ATOM     30  C   LIG A   1      -7.935   6.556 131.810  0.00  0.00    +0.007 C 
ENDBRANCH  22  28
BRANCH   1  31
ATOM     31  O   LIG A   1     -10.542   0.546 123.819  0.00  0.00    -0.391 OA
ATOM     32  H   LIG A   1     -10.690   1.177 124.543  0.00  0.00    +0.210 HD
ENDBRANCH   1  31
BRANCH  13  33
ATOM     33  O   LIG A   1      -9.184   3.997 129.010  0.00  0.00    -0.392 OA
ATOM     34  H   LIG A   1      -9.495   4.718 129.583  0.00  0.00    +0.210 HD
ENDBRANCH  13  33
TORSDOF 3
ENDMDL
MODEL 8
REMARK VINA RESULT:      -8.2      2.271      4.209
REMARK  Name = NuBBE_1027
REMARK  10 active torsions:
REMARK  status: ('A' for Active; 'I' for Inactive)
REMARK    1  A    between atoms: O_1  and  C_2
REMARK    2  A    between atoms: C_6  and  C_7
REMARK    3  A    between atoms: C_11  and  C_12
REMARK    4  A    between atoms: C_16  and  O_17
REMARK    5  A    between atoms: C_20  and  C_21
REMARK    6  A    between atoms: C_24  and  C_25
REMARK    7  A    between atoms: C_28  and  C_30
REMARK    8  A    between atoms: C_30  and  C_31
REMARK    9  A    between atoms: C_36  and  C_37
REMARK   10  A    between atoms: C_36  and  C_38
REMARK                            x       y       z     vdW  Elec       q    Type
REMARK                         _______ _______ _______ _____ _____    ______ ____
ROOT
ATOM      1  C   LIG A   1      -7.422   5.882 132.756  0.00  0.00    +0.120 C 
ATOM      2  C   LIG A   1      -8.592   5.899 131.776  0.00  0.00    +0.032 C 
ATOM      3  C   LIG A   1      -8.503   4.805 130.707  0.00  0.00    +0.010 C 
ATOM      4  C   LIG A   1      -8.321   3.359 131.269  0.00  0.00    -0.025 C 
ATOM      5  C   LIG A   1      -9.666   2.946 131.915  0.00  0.00    +0.012 C 
ATOM      6  C   LIG A   1      -7.108   3.387 132.275  0.00  0.00    +0.003 C 
ATOM      7  C   LIG A   1      -6.764   1.969 132.773  0.00  0.00    +0.005 C 
ATOM      8  C   LIG A   1      -6.341   1.073 131.604  0.00  0.00    +0.008 C 
ATOM      9  C   LIG A   1      -7.399   0.937 130.471  0.00  0.00    -0.023 C 
ATOM     10  C   LIG A   1      -8.551   0.062 131.051  0.00  0.00    +0.012 C 
ATOM     11  C   LIG A   1      -7.912   2.383 130.073  0.00  0.00    +0.004 C 
ATOM     12  C   LIG A   1      -8.943   2.303 128.920  0.00  0.00    +0.036 C 
ATOM     13  C   LIG A   1      -8.362   1.630 127.671  0.00  0.00    +0.119 C 
ATOM     14  C   LIG A   1      -7.814   0.223 127.977  0.00  0.00    +0.028 C 
ATOM     15  C   LIG A   1      -6.760   0.209 129.149  0.00  0.00    -0.021 C 
ATOM     16  C   LIG A   1      -5.428   0.902 128.735  0.00  0.00    +0.012 C 
ATOM     17  C   LIG A   1      -6.408  -1.279 129.439  0.00  0.00    +0.008 C 
ATOM     18  C   LIG A   1      -5.886  -2.025 128.214  0.00  0.00    +0.007 C 
ATOM     19  C   LIG A   1      -6.883  -2.033 127.036  0.00  0.00    -0.028 C 
ATOM     20  C   LIG A   1      -8.003  -3.051 127.321  0.00  0.00    +0.011 C 
ATOM     21  C   LIG A   1      -7.481  -0.630 126.705  0.00  0.00    +0.008 C 
ATOM     22  C   LIG A   1      -6.600  -0.029 125.563  0.00  0.00    +0.018 C 
ATOM     23  C   LIG A   1      -5.554  -1.119 125.240  0.00  0.00    +0.009 C 
ATOM     24  C   LIG A   1      -6.145  -2.427 125.747  0.00  0.00    +0.007 C 
ATOM     25  C   LIG A   1      -7.161   4.487 133.400  0.00  0.00    -0.006 C 
ATOM     26  C   LIG A   1      -8.226   4.209 134.481  0.00  0.00    +0.014 C 
ATOM     27  C   LIG A   1      -5.798   4.548 134.142  0.00  0.00    +0.014 C 
ENDROOT
BRANCH  22  28
ATOM     28  C   LIG A   1      -7.408   0.384 124.321  0.00  0.00    -0.076 C 
ATOM     29  C   LIG A   1      -8.733  -0.306 124.120  0.00  0.00    +0.038 C 
ATOM     30  C   LIG A   1      -7.033   1.338 123.452  0.00  0.00    +0.007 C 
ENDBRANCH  22  28
BRANCH   1  31
ATOM     31  O   LIG A   1      -6.262   6.370 132.076  0.00  0.00    -0.391 OA
ATOM     32  H   LIG A   1      -5.643   5.634 131.941  0.00  0.00    +0.210 HD
ENDBRANCH   1  31
BRANCH  13  33
ATOM     33  O   LIG A   1      -7.352   2.480 127.139  0.00  0.00    -0.392 OA
ATOM     34  H   LIG A   1      -7.611   3.399 127.324  0.00  0.00    +0.210 HD
ENDBRANCH  13  33
TORSDOF 3
ENDMDL
MODEL 9
REMARK VINA RESULT:      -8.1      1.970      3.734
REMARK  Name = NuBBE_1027
REMARK  10 active torsions:
REMARK  status: ('A' for Active; 'I' for Inactive)
REMARK    1  A    between atoms: O_1  and  C_2
REMARK    2  A    between atoms: C_6  and  C_7
REMARK    3  A    between atoms: C_11  and  C_12
REMARK    4  A    between atoms: C_16  and  O_17
REMARK    5  A    between atoms: C_20  and  C_21
REMARK    6  A    between atoms: C_24  and  C_25
REMARK    7  A    between atoms: C_28  and  C_30
REMARK    8  A    between atoms: C_30  and  C_31
REMARK    9  A    between atoms: C_36  and  C_37
REMARK   10  A    between atoms: C_36  and  C_38
REMARK                            x       y       z     vdW  Elec       q    Type
REMARK                         _______ _______ _______ _____ _____    ______ ____
ROOT
ATOM      1  C   LIG A   1      -5.461   3.706 132.211  0.00  0.00    +0.120 C 
ATOM      2  C   LIG A   1      -6.893   3.991 131.767  0.00  0.00    +0.032 C 
ATOM      3  C   LIG A   1      -7.281   3.270 130.472  0.00  0.00    +0.010 C 
ATOM      4  C   LIG A   1      -7.044   1.725 130.492  0.00  0.00    -0.025 C 
ATOM      5  C   LIG A   1      -8.109   1.110 131.431  0.00  0.00    +0.012 C 
ATOM      6  C   LIG A   1      -5.558   1.477 130.956  0.00  0.00    +0.003 C 
ATOM      7  C   LIG A   1      -5.190  -0.017 130.868  0.00  0.00    +0.005 C 
ATOM      8  C   LIG A   1      -5.284  -0.514 129.421  0.00  0.00    +0.008 C 
ATOM      9  C   LIG A   1      -6.679  -0.327 128.757  0.00  0.00    -0.023 C 
ATOM     10  C   LIG A   1      -7.628  -1.359 129.436  0.00  0.00    +0.012 C 
ATOM     11  C   LIG A   1      -7.167   1.162 129.003  0.00  0.00    +0.004 C 
ATOM     12  C   LIG A   1      -8.539   1.408 128.328  0.00  0.00    +0.036 C 
ATOM     13  C   LIG A   1      -8.494   1.153 126.816  0.00  0.00    +0.119 C 
ATOM     14  C   LIG A   1      -8.001  -0.270 126.488  0.00  0.00    +0.028 C 
ATOM     15  C   LIG A   1      -6.609  -0.612 127.145  0.00  0.00    -0.021 C 
ATOM     16  C   LIG A   1      -5.450   0.201 126.495  0.00  0.00    +0.012 C 
ATOM     17  C   LIG A   1      -6.312  -2.111 126.849  0.00  0.00    +0.008 C 
ATOM     18  C   LIG A   1      -6.321  -2.444 125.360  0.00  0.00    +0.007 C 
ATOM     19  C   LIG A   1      -7.663  -2.120 124.670  0.00  0.00    -0.028 C 
ATOM     20  C   LIG A   1      -8.699  -3.201 125.036  0.00  0.00    +0.011 C 
ATOM     21  C   LIG A   1      -8.211  -0.696 124.995  0.00  0.00    +0.008 C 
ATOM     22  C   LIG A   1      -7.735   0.238 123.835  0.00  0.00    +0.018 C 
ATOM     23  C   LIG A   1      -6.969  -0.684 122.859  0.00  0.00    +0.009 C 
ATOM     24  C   LIG A   1      -7.461  -2.095 123.148  0.00  0.00    +0.007 C 
ATOM     25  C   LIG A   1      -5.116   2.189 132.289  0.00  0.00    -0.006 C 
ATOM     26  C   LIG A   1      -5.756   1.578 133.552  0.00  0.00    +0.014 C 
ATOM     27  C   LIG A   1      -3.580   2.053 132.474  0.00  0.00    +0.014 C 
ENDROOT
BRANCH  22  28
ATOM     28  C   LIG A   1      -8.886   0.986 123.142  0.00  0.00    -0.076 C 
ATOM     29  C   LIG A   1      -8.678   2.457 122.891  0.00  0.00    +0.038 C 
ATOM     30  C   LIG A   1     -10.020   0.407 122.712  0.00  0.00    +0.007 C 
ENDBRANCH  22  28
BRANCH   1  31
ATOM     31  O   LIG A   1      -4.573   4.400 131.329  0.00  0.00    -0.391 OA
ATOM     32  H   LIG A   1      -3.899   4.859 131.858  0.00  0.00    +0.210 HD
ENDBRANCH   1  31
BRANCH  13  33
ATOM     33  O   LIG A   1      -7.662   2.144 126.224  0.00  0.00    -0.392 OA
ATOM     34  H   LIG A   1      -8.228   2.720 125.682  0.00  0.00    +0.210 HD
ENDBRANCH  13  33
TORSDOF 3
ENDMDL
