MODEL 1
REMARK VINA RESULT:      -9.5      0.000      0.000
REMARK  Name = NuBBE_2484
REMARK  6 active torsions:
REMARK  status: ('A' for Active; 'I' for Inactive)
REMARK    1  A    between atoms: C_1  and  C_2
REMARK    2  A    between atoms: C_10  and  C_11
REMARK    3  A    between atoms: C_21  and  C_22
REMARK    4  A    between atoms: C_27  and  O_31
REMARK    5  A    between atoms: C_34  and  C_38
REMARK    6  A    between atoms: C_38  and  O_39
REMARK                            x       y       z     vdW  Elec       q    Type
REMARK                         _______ _______ _______ _____ _____    ______ ____
ROOT
ATOM      1  C   LIG A   1      -8.797   5.885 133.175  0.00  0.00    +0.012 C 
ATOM      2  C   LIG A   1      -9.679   5.033 132.280  0.00  0.00    +0.039 C 
ATOM      3  C   LIG A   1     -10.560   5.790 131.209  0.00  0.00    +0.124 C 
ATOM      4  O   LIG A   1     -10.767   4.823 130.130  0.00  0.00    -0.355 OA
ATOM      5  C   LIG A   1     -10.136   3.625 130.548  0.00  0.00    +0.125 C 
ATOM      6  C   LIG A   1      -8.941   4.117 131.327  0.00  0.00    +0.031 C 
ATOM      7  C   LIG A   1      -8.062   2.879 131.582  0.00  0.00    -0.023 C 
ATOM      8  C   LIG A   1      -8.376   2.210 132.930  0.00  0.00    +0.012 C 
ATOM      9  C   LIG A   1      -8.510   1.925 130.403  0.00  0.00    +0.001 C 
ATOM     10  C   LIG A   1      -9.501   2.725 129.520  0.00  0.00    +0.036 C 
ATOM     11  C   LIG A   1      -7.403   1.125 129.698  0.00  0.00    +0.000 C 
ATOM     12  C   LIG A   1      -6.080   1.871 129.445  0.00  0.00    +0.003 C 
ATOM     13  C   LIG A   1      -5.583   2.443 130.781  0.00  0.00    +0.005 C 
ATOM     14  C   LIG A   1      -6.567   3.313 131.562  0.00  0.00    +0.007 C 
ATOM     15  C   LIG A   1      -6.040   2.806 128.162  0.00  0.00    -0.008 C 
ATOM     16  C   LIG A   1      -6.344   4.283 128.485  0.00  0.00    +0.016 C 
ATOM     17  C   LIG A   1      -6.975   2.288 127.056  0.00  0.00    -0.065 C 
ATOM     18  C   LIG A   1      -7.764   1.211 127.193  0.00  0.00    -0.027 C 
ATOM     19  C   LIG A   1      -7.878   0.394 128.438  0.00  0.00    +0.031 C 
ATOM     20  C   LIG A   1      -6.902   3.002 125.724  0.00  0.00    +0.062 C 
ATOM     21  C   LIG A   1      -5.469   3.016 125.182  0.00  0.00    +0.119 C 
ATOM     22  C   LIG A   1      -4.454   3.499 126.222  0.00  0.00    +0.032 C 
ATOM     23  C   LIG A   1      -4.596   2.759 127.560  0.00  0.00    +0.013 C 
ATOM     24  C   LIG A   1      -9.841   7.021 130.605  0.00  0.00    +0.052 C 
ATOM     25  C   LIG A   1     -10.669   7.669 129.502  0.00  0.00    +0.011 C 
ATOM     26  C   LIG A   1     -12.074   8.001 130.008  0.00  0.00    +0.028 C 
ATOM     27  C   LIG A   1     -12.709   6.793 130.723  0.00  0.00    +0.089 C 
ATOM     28  N   LIG A   1     -11.843   6.212 131.764  0.00  0.00    -0.288 NA
ATOM     29  H   LIG A   1     -11.680   6.916 132.481  0.00  0.00    +0.125 HD
ENDROOT
BRANCH  21  30
ATOM     30  O   LIG A   1      -5.395   3.850 124.027  0.00  0.00    -0.392 OA
ATOM     31  H   LIG A   1      -4.466   4.120 123.912  0.00  0.00    +0.210 HD
ENDBRANCH  21  30
BRANCH  26  32
ATOM     32  C   LIG A   1     -12.935   8.481 128.837  0.00  0.00    +0.160 C 
BRANCH  32  33
ATOM     33  O   LIG A   1     -12.936   9.900 128.779  0.00  0.00    -0.395 OA
ATOM     34  H   LIG A   1     -13.230  10.144 127.884  0.00  0.00    +0.209 HD
ENDBRANCH  32  33
ENDBRANCH  26  32
TORSDOF 3
ENDMDL
MODEL 2
REMARK VINA RESULT:      -9.0      1.585      2.130
REMARK  Name = NuBBE_2484
REMARK  6 active torsions:
REMARK  status: ('A' for Active; 'I' for Inactive)
REMARK    1  A    between atoms: C_1  and  C_2
REMARK    2  A    between atoms: C_10  and  C_11
REMARK    3  A    between atoms: C_21  and  C_22
REMARK    4  A    between atoms: C_27  and  O_31
REMARK    5  A    between atoms: C_34  and  C_38
REMARK    6  A    between atoms: C_38  and  O_39
REMARK                            x       y       z     vdW  Elec       q    Type
REMARK                         _______ _______ _______ _____ _____    ______ ____
ROOT
ATOM      1  C   LIG A   1      -7.115   6.446 131.494  0.00  0.00    +0.012 C 
ATOM      2  C   LIG A   1      -8.147   5.358 131.262  0.00  0.00    +0.039 C 
ATOM      3  C   LIG A   1      -9.582   5.817 130.788  0.00  0.00    +0.124 C 
ATOM      4  O   LIG A   1     -10.125   4.678 130.046  0.00  0.00    -0.355 OA
ATOM      5  C   LIG A   1      -9.150   3.653 130.130  0.00  0.00    +0.125 C 
ATOM      6  C   LIG A   1      -7.846   4.413 130.117  0.00  0.00    +0.031 C 
ATOM      7  C   LIG A   1      -6.742   3.357 129.933  0.00  0.00    -0.023 C 
ATOM      8  C   LIG A   1      -6.176   2.867 131.275  0.00  0.00    +0.012 C 
ATOM      9  C   LIG A   1      -7.539   2.183 129.234  0.00  0.00    +0.001 C 
ATOM     10  C   LIG A   1      -8.977   2.700 128.976  0.00  0.00    +0.036 C 
ATOM     11  C   LIG A   1      -6.825   1.441 128.094  0.00  0.00    +0.000 C 
ATOM     12  C   LIG A   1      -5.998   2.310 127.129  0.00  0.00    +0.003 C 
ATOM     13  C   LIG A   1      -5.004   3.140 127.954  0.00  0.00    +0.005 C 
ATOM     14  C   LIG A   1      -5.590   3.979 129.090  0.00  0.00    +0.007 C 
ATOM     15  C   LIG A   1      -6.809   3.035 125.972  0.00  0.00    -0.008 C 
ATOM     16  C   LIG A   1      -7.182   4.491 126.322  0.00  0.00    +0.016 C 
ATOM     17  C   LIG A   1      -8.060   2.235 125.572  0.00  0.00    -0.065 C 
ATOM     18  C   LIG A   1      -8.437   1.095 126.172  0.00  0.00    -0.027 C 
ATOM     19  C   LIG A   1      -7.730   0.470 127.330  0.00  0.00    +0.031 C 
ATOM     20  C   LIG A   1      -8.826   2.740 124.369  0.00  0.00    +0.062 C 
ATOM     21  C   LIG A   1      -7.914   2.863 123.144  0.00  0.00    +0.119 C 
ATOM     22  C   LIG A   1      -6.625   3.631 123.448  0.00  0.00    +0.032 C 
ATOM     23  C   LIG A   1      -5.907   3.091 124.694  0.00  0.00    +0.013 C 
ATOM     24  C   LIG A   1      -9.534   7.027 129.822  0.00  0.00    +0.052 C 
ATOM     25  C   LIG A   1     -10.920   7.383 129.300  0.00  0.00    +0.011 C 
ATOM     26  C   LIG A   1     -11.895   7.597 130.459  0.00  0.00    +0.028 C 
ATOM     27  C   LIG A   1     -11.820   6.438 131.472  0.00  0.00    +0.089 C 
ATOM     28  N   LIG A   1     -10.447   6.144 131.918  0.00  0.00    -0.288 NA
ATOM     29  H   LIG A   1     -10.078   6.964 132.395  0.00  0.00    +0.125 HD
ENDROOT
BRANCH  21  30
ATOM     30  O   LIG A   1      -8.611   3.514 122.083  0.00  0.00    -0.392 OA
ATOM     31  H   LIG A   1      -9.078   2.832 121.569  0.00  0.00    +0.210 HD
ENDBRANCH  21  30
BRANCH  26  32
ATOM     32  C   LIG A   1     -13.311   7.773 129.906  0.00  0.00    +0.160 C 
BRANCH  32  33
ATOM     33  O   LIG A   1     -13.510   6.923 128.786  0.00  0.00    -0.395 OA
ATOM     34  H   LIG A   1     -13.048   6.089 128.982  0.00  0.00    +0.209 HD
ENDBRANCH  32  33
ENDBRANCH  26  32
TORSDOF 3
ENDMDL
MODEL 3
REMARK VINA RESULT:      -8.9      2.476      3.118
REMARK  Name = NuBBE_2484
REMARK  6 active torsions:
REMARK  status: ('A' for Active; 'I' for Inactive)
REMARK    1  A    between atoms: C_1  and  C_2
REMARK    2  A    between atoms: C_10  and  C_11
REMARK    3  A    between atoms: C_21  and  C_22
REMARK    4  A    between atoms: C_27  and  O_31
REMARK    5  A    between atoms: C_34  and  C_38
REMARK    6  A    between atoms: C_38  and  O_39
REMARK                            x       y       z     vdW  Elec       q    Type
REMARK                         _______ _______ _______ _____ _____    ______ ____
ROOT
ATOM      1  C   LIG A   1     -10.162   5.963 133.009  0.00  0.00    +0.012 C 
ATOM      2  C   LIG A   1     -10.004   5.080 131.785  0.00  0.00    +0.039 C 
ATOM      3  C   LIG A   1     -10.349   5.725 130.385  0.00  0.00    +0.124 C 
ATOM      4  O   LIG A   1      -9.545   4.984 129.412  0.00  0.00    -0.355 OA
ATOM      5  C   LIG A   1      -8.860   3.984 130.147  0.00  0.00    +0.125 C 
ATOM      6  C   LIG A   1      -8.585   4.655 131.471  0.00  0.00    +0.031 C 
ATOM      7  C   LIG A   1      -7.611   3.730 132.221  0.00  0.00    -0.023 C 
ATOM      8  C   LIG A   1      -8.343   2.736 133.138  0.00  0.00    +0.012 C 
ATOM      9  C   LIG A   1      -6.935   2.945 131.025  0.00  0.00    +0.001 C 
ATOM     10  C   LIG A   1      -7.482   3.559 129.711  0.00  0.00    +0.036 C 
ATOM     11  C   LIG A   1      -5.422   2.694 131.127  0.00  0.00    +0.000 C 
ATOM     12  C   LIG A   1      -4.576   3.851 131.687  0.00  0.00    +0.003 C 
ATOM     13  C   LIG A   1      -5.159   4.265 133.047  0.00  0.00    +0.005 C 
ATOM     14  C   LIG A   1      -6.649   4.603 133.078  0.00  0.00    +0.007 C 
ATOM     15  C   LIG A   1      -4.184   4.993 130.656  0.00  0.00    -0.008 C 
ATOM     16  C   LIG A   1      -5.140   6.203 130.707  0.00  0.00    +0.016 C 
ATOM     17  C   LIG A   1      -4.074   4.447 129.223  0.00  0.00    -0.065 C 
ATOM     18  C   LIG A   1      -4.335   3.173 128.891  0.00  0.00    -0.027 C 
ATOM     19  C   LIG A   1      -4.806   2.125 129.845  0.00  0.00    +0.031 C 
ATOM     20  C   LIG A   1      -3.547   5.404 128.176  0.00  0.00    +0.062 C 
ATOM     21  C   LIG A   1      -2.186   5.976 128.584  0.00  0.00    +0.119 C 
ATOM     22  C   LIG A   1      -2.187   6.529 130.012  0.00  0.00    +0.032 C 
ATOM     23  C   LIG A   1      -2.758   5.525 131.024  0.00  0.00    +0.013 C 
ATOM     24  C   LIG A   1      -9.938   7.216 130.295  0.00  0.00    +0.052 C 
ATOM     25  C   LIG A   1     -10.185   7.783 128.903  0.00  0.00    +0.011 C 
ATOM     26  C   LIG A   1     -11.635   7.548 128.475  0.00  0.00    +0.028 C 
ATOM     27  C   LIG A   1     -12.053   6.083 128.703  0.00  0.00    +0.089 C 
ATOM     28  N   LIG A   1     -11.769   5.603 130.066  0.00  0.00    -0.288 NA
ATOM     29  H   LIG A   1     -12.308   6.159 130.726  0.00  0.00    +0.125 HD
ENDROOT
BRANCH  21  30
ATOM     30  O   LIG A   1      -1.802   7.009 127.678  0.00  0.00    -0.392 OA
ATOM     31  H   LIG A   1      -1.392   6.589 126.902  0.00  0.00    +0.210 HD
ENDBRANCH  21  30
BRANCH  26  32
ATOM     32  C   LIG A   1     -11.806   7.964 127.012  0.00  0.00    +0.160 C 
BRANCH  32  33
ATOM     33  O   LIG A   1     -11.819   6.817 126.175  0.00  0.00    -0.395 OA
ATOM     34  H   LIG A   1     -11.441   7.088 125.320  0.00  0.00    +0.209 HD
ENDBRANCH  32  33
ENDBRANCH  26  32
TORSDOF 3
ENDMDL
MODEL 4
REMARK VINA RESULT:      -8.8      4.599      7.210
REMARK  Name = NuBBE_2484
REMARK  6 active torsions:
REMARK  status: ('A' for Active; 'I' for Inactive)
REMARK    1  A    between atoms: C_1  and  C_2
REMARK    2  A    between atoms: C_10  and  C_11
REMARK    3  A    between atoms: C_21  and  C_22
REMARK    4  A    between atoms: C_27  and  O_31
REMARK    5  A    between atoms: C_34  and  C_38
REMARK    6  A    between atoms: C_38  and  O_39
REMARK                            x       y       z     vdW  Elec       q    Type
REMARK                         _______ _______ _______ _____ _____    ______ ____
ROOT
ATOM      1  C   LIG A   1      -8.129   4.585 126.339  0.00  0.00    +0.012 C 
ATOM      2  C   LIG A   1      -6.790   3.928 126.062  0.00  0.00    +0.039 C 
ATOM      3  C   LIG A   1      -5.639   4.170 127.116  0.00  0.00    +0.124 C 
ATOM      4  O   LIG A   1      -4.762   3.004 127.003  0.00  0.00    -0.355 OA
ATOM      5  C   LIG A   1      -5.301   2.206 125.963  0.00  0.00    +0.125 C 
ATOM      6  C   LIG A   1      -6.789   2.415 126.102  0.00  0.00    +0.031 C 
ATOM      7  C   LIG A   1      -7.451   1.372 125.183  0.00  0.00    -0.023 C 
ATOM      8  C   LIG A   1      -7.736   1.931 123.780  0.00  0.00    +0.012 C 
ATOM      9  C   LIG A   1      -6.322   0.268 125.092  0.00  0.00    +0.001 C 
ATOM     10  C   LIG A   1      -5.178   0.707 126.042  0.00  0.00    +0.036 C 
ATOM     11  C   LIG A   1      -6.779  -1.198 125.144  0.00  0.00    +0.000 C 
ATOM     12  C   LIG A   1      -7.908  -1.525 126.139  0.00  0.00    +0.003 C 
ATOM     13  C   LIG A   1      -9.092  -0.588 125.853  0.00  0.00    +0.005 C 
ATOM     14  C   LIG A   1      -8.789   0.911 125.831  0.00  0.00    +0.007 C 
ATOM     15  C   LIG A   1      -7.468  -1.745 127.648  0.00  0.00    -0.008 C 
ATOM     16  C   LIG A   1      -7.623  -0.475 128.511  0.00  0.00    +0.016 C 
ATOM     17  C   LIG A   1      -6.035  -2.295 127.744  0.00  0.00    -0.065 C 
ATOM     18  C   LIG A   1      -5.246  -2.505 126.679  0.00  0.00    -0.027 C 
ATOM     19  C   LIG A   1      -5.625  -2.198 125.268  0.00  0.00    +0.031 C 
ATOM     20  C   LIG A   1      -5.561  -2.701 129.123  0.00  0.00    +0.062 C 
ATOM     21  C   LIG A   1      -6.516  -3.715 129.761  0.00  0.00    +0.119 C 
ATOM     22  C   LIG A   1      -7.977  -3.265 129.696  0.00  0.00    +0.032 C 
ATOM     23  C   LIG A   1      -8.392  -2.839 128.279  0.00  0.00    +0.013 C 
ATOM     24  C   LIG A   1      -6.164   4.224 128.572  0.00  0.00    +0.052 C 
ATOM     25  C   LIG A   1      -5.024   4.354 129.575  0.00  0.00    +0.011 C 
ATOM     26  C   LIG A   1      -4.135   5.549 129.228  0.00  0.00    +0.028 C 
ATOM     27  C   LIG A   1      -3.740   5.538 127.739  0.00  0.00    +0.089 C 
ATOM     28  N   LIG A   1      -4.893   5.394 126.834  0.00  0.00    -0.288 NA
ATOM     29  H   LIG A   1      -5.508   6.195 126.960  0.00  0.00    +0.125 HD
ENDROOT
BRANCH  21  30
ATOM     30  O   LIG A   1      -6.150  -3.936 131.122  0.00  0.00    -0.392 OA
ATOM     31  H   LIG A   1      -6.430  -3.158 131.637  0.00  0.00    +0.210 HD
ENDBRANCH  21  30
BRANCH  26  32
ATOM     32  C   LIG A   1      -2.904   5.547 130.139  0.00  0.00    +0.160 C 
BRANCH  32  33
ATOM     33  O   LIG A   1      -1.926   6.449 129.642  0.00  0.00    -0.395 OA
ATOM     34  H   LIG A   1      -1.321   5.929 129.084  0.00  0.00    +0.209 HD
ENDBRANCH  32  33
ENDBRANCH  26  32
TORSDOF 3
ENDMDL
MODEL 5
REMARK VINA RESULT:      -8.6      3.259      4.744
REMARK  Name = NuBBE_2484
REMARK  6 active torsions:
REMARK  status: ('A' for Active; 'I' for Inactive)
REMARK    1  A    between atoms: C_1  and  C_2
REMARK    2  A    between atoms: C_10  and  C_11
REMARK    3  A    between atoms: C_21  and  C_22
REMARK    4  A    between atoms: C_27  and  O_31
REMARK    5  A    between atoms: C_34  and  C_38
REMARK    6  A    between atoms: C_38  and  O_39
REMARK                            x       y       z     vdW  Elec       q    Type
REMARK                         _______ _______ _______ _____ _____    ______ ____
ROOT
ATOM      1  C   LIG A   1      -9.388   2.143 132.600  0.00  0.00    +0.012 C 
ATOM      2  C   LIG A   1      -9.062   2.806 131.274  0.00  0.00    +0.039 C 
ATOM      3  C   LIG A   1      -9.751   4.196 130.978  0.00  0.00    +0.124 C 
ATOM      4  O   LIG A   1      -8.845   4.886 130.058  0.00  0.00    -0.355 OA
ATOM      5  C   LIG A   1      -7.785   3.982 129.798  0.00  0.00    +0.125 C 
ATOM      6  C   LIG A   1      -7.624   3.250 131.109  0.00  0.00    +0.031 C 
ATOM      7  C   LIG A   1      -6.318   2.445 130.987  0.00  0.00    -0.023 C 
ATOM      8  C   LIG A   1      -6.563   1.014 130.483  0.00  0.00    +0.012 C 
ATOM      9  C   LIG A   1      -5.540   3.268 129.883  0.00  0.00    +0.001 C 
ATOM     10  C   LIG A   1      -6.398   4.518 129.558  0.00  0.00    +0.036 C 
ATOM     11  C   LIG A   1      -4.032   3.467 130.101  0.00  0.00    +0.000 C 
ATOM     12  C   LIG A   1      -3.584   3.759 131.544  0.00  0.00    +0.003 C 
ATOM     13  C   LIG A   1      -4.131   2.650 132.455  0.00  0.00    +0.005 C 
ATOM     14  C   LIG A   1      -5.635   2.385 132.385  0.00  0.00    +0.007 C 
ATOM     15  C   LIG A   1      -3.720   5.266 132.028  0.00  0.00    -0.008 C 
ATOM     16  C   LIG A   1      -5.025   5.533 132.806  0.00  0.00    +0.016 C 
ATOM     17  C   LIG A   1      -3.576   6.250 130.854  0.00  0.00    -0.065 C 
ATOM     18  C   LIG A   1      -3.414   5.867 129.578  0.00  0.00    -0.027 C 
ATOM     19  C   LIG A   1      -3.392   4.448 129.113  0.00  0.00    +0.031 C 
ATOM     20  C   LIG A   1      -3.524   7.720 131.211  0.00  0.00    +0.062 C 
ATOM     21  C   LIG A   1      -2.410   8.004 132.223  0.00  0.00    +0.119 C 
ATOM     22  C   LIG A   1      -2.455   7.057 133.425  0.00  0.00    +0.032 C 
ATOM     23  C   LIG A   1      -2.536   5.583 133.001  0.00  0.00    +0.013 C 
ATOM     24  C   LIG A   1      -9.892   5.076 132.245  0.00  0.00    +0.052 C 
ATOM     25  C   LIG A   1     -10.463   6.449 131.915  0.00  0.00    +0.011 C 
ATOM     26  C   LIG A   1     -11.778   6.315 131.144  0.00  0.00    +0.028 C 
ATOM     27  C   LIG A   1     -11.638   5.329 129.969  0.00  0.00    +0.089 C 
ATOM     28  N   LIG A   1     -11.066   4.031 130.365  0.00  0.00    -0.288 NA
ATOM     29  H   LIG A   1     -11.692   3.589 131.034  0.00  0.00    +0.125 HD
ENDROOT
BRANCH  21  30
ATOM     30  O   LIG A   1      -2.502   9.352 132.681  0.00  0.00    -0.392 OA
ATOM     31  H   LIG A   1      -3.264   9.766 132.238  0.00  0.00    +0.210 HD
ENDBRANCH  21  30
BRANCH  26  32
ATOM     32  C   LIG A   1     -12.232   7.698 130.670  0.00  0.00    +0.160 C 
BRANCH  32  33
ATOM     33  O   LIG A   1     -11.498   8.087 129.518  0.00  0.00    -0.395 OA
ATOM     34  H   LIG A   1     -10.563   7.889 129.701  0.00  0.00    +0.209 HD
ENDBRANCH  32  33
ENDBRANCH  26  32
TORSDOF 3
ENDMDL
MODEL 6
REMARK VINA RESULT:      -8.6      3.384      5.123
REMARK  Name = NuBBE_2484
REMARK  6 active torsions:
REMARK  status: ('A' for Active; 'I' for Inactive)
REMARK    1  A    between atoms: C_1  and  C_2
REMARK    2  A    between atoms: C_10  and  C_11
REMARK    3  A    between atoms: C_21  and  C_22
REMARK    4  A    between atoms: C_27  and  O_31
REMARK    5  A    between atoms: C_34  and  C_38
REMARK    6  A    between atoms: C_38  and  O_39
REMARK                            x       y       z     vdW  Elec       q    Type
REMARK                         _______ _______ _______ _____ _____    ______ ____
ROOT
ATOM      1  C   LIG A   1      -4.745   1.220 132.879  0.00  0.00    +0.012 C 
ATOM      2  C   LIG A   1      -6.146   0.655 132.724  0.00  0.00    +0.039 C 
ATOM      3  C   LIG A   1      -7.297   1.678 132.371  0.00  0.00    +0.124 C 
ATOM      4  O   LIG A   1      -8.309   0.888 131.668  0.00  0.00    -0.355 OA
ATOM      5  C   LIG A   1      -7.836  -0.447 131.665  0.00  0.00    +0.125 C 
ATOM      6  C   LIG A   1      -6.339  -0.284 131.552  0.00  0.00    +0.031 C 
ATOM      7  C   LIG A   1      -5.779  -1.689 131.271  0.00  0.00    -0.023 C 
ATOM      8  C   LIG A   1      -5.370  -2.420 132.560  0.00  0.00    +0.012 C 
ATOM      9  C   LIG A   1      -7.034  -2.408 130.632  0.00  0.00    +0.001 C 
ATOM     10  C   LIG A   1      -8.150  -1.341 130.494  0.00  0.00    +0.036 C 
ATOM     11  C   LIG A   1      -6.769  -3.331 129.432  0.00  0.00    +0.000 C 
ATOM     12  C   LIG A   1      -5.731  -2.837 128.409  0.00  0.00    +0.003 C 
ATOM     13  C   LIG A   1      -4.428  -2.516 129.156  0.00  0.00    +0.005 C 
ATOM     14  C   LIG A   1      -4.537  -1.557 130.342  0.00  0.00    +0.007 C 
ATOM     15  C   LIG A   1      -6.254  -1.799 127.327  0.00  0.00    -0.008 C 
ATOM     16  C   LIG A   1      -5.974  -0.333 127.716  0.00  0.00    +0.016 C 
ATOM     17  C   LIG A   1      -7.748  -2.004 127.024  0.00  0.00    -0.065 C 
ATOM     18  C   LIG A   1      -8.515  -2.915 127.645  0.00  0.00    -0.027 C 
ATOM     19  C   LIG A   1      -8.044  -3.819 128.737  0.00  0.00    +0.031 C 
ATOM     20  C   LIG A   1      -8.324  -1.184 125.891  0.00  0.00    +0.062 C 
ATOM     21  C   LIG A   1      -7.532  -1.394 124.597  0.00  0.00    +0.119 C 
ATOM     22  C   LIG A   1      -6.023  -1.231 124.800  0.00  0.00    +0.032 C 
ATOM     23  C   LIG A   1      -5.502  -2.064 125.980  0.00  0.00    +0.013 C 
ATOM     24  C   LIG A   1      -6.828   2.801 131.414  0.00  0.00    +0.052 C 
ATOM     25  C   LIG A   1      -7.980   3.710 131.008  0.00  0.00    +0.011 C 
ATOM     26  C   LIG A   1      -8.697   4.256 132.245  0.00  0.00    +0.028 C 
ATOM     27  C   LIG A   1      -9.030   3.128 133.239  0.00  0.00    +0.089 C 
ATOM     28  N   LIG A   1      -7.870   2.283 133.570  0.00  0.00    -0.288 NA
ATOM     29  H   LIG A   1      -7.165   2.862 134.021  0.00  0.00    +0.125 HD
ENDROOT
BRANCH  21  30
ATOM     30  O   LIG A   1      -7.976  -0.474 123.600  0.00  0.00    -0.392 OA
ATOM     31  H   LIG A   1      -7.251  -0.352 122.962  0.00  0.00    +0.210 HD
ENDBRANCH  21  30
BRANCH  26  32
ATOM     32  C   LIG A   1      -9.953   5.015 131.810  0.00  0.00    +0.160 C 
BRANCH  32  33
ATOM     33  O   LIG A   1     -10.531   5.684 132.921  0.00  0.00    -0.395 OA
ATOM     34  H   LIG A   1      -9.849   6.282 133.275  0.00  0.00    +0.209 HD
ENDBRANCH  32  33
ENDBRANCH  26  32
TORSDOF 3
ENDMDL
MODEL 7
REMARK VINA RESULT:      -8.5      2.443      6.994
REMARK  Name = NuBBE_2484
REMARK  6 active torsions:
REMARK  status: ('A' for Active; 'I' for Inactive)
REMARK    1  A    between atoms: C_1  and  C_2
REMARK    2  A    between atoms: C_10  and  C_11
REMARK    3  A    between atoms: C_21  and  C_22
REMARK    4  A    between atoms: C_27  and  O_31
REMARK    5  A    between atoms: C_34  and  C_38
REMARK    6  A    between atoms: C_38  and  O_39
REMARK                            x       y       z     vdW  Elec       q    Type
REMARK                         _______ _______ _______ _____ _____    ______ ____
ROOT
ATOM      1  C   LIG A   1      -7.924  -0.388 130.403  0.00  0.00    +0.012 C 
ATOM      2  C   LIG A   1      -7.098   0.755 129.843  0.00  0.00    +0.039 C 
ATOM      3  C   LIG A   1      -7.220   1.037 128.294  0.00  0.00    +0.124 C 
ATOM      4  O   LIG A   1      -6.906   2.458 128.136  0.00  0.00    -0.355 OA
ATOM      5  C   LIG A   1      -6.579   2.935 129.430  0.00  0.00    +0.125 C 
ATOM      6  C   LIG A   1      -7.485   2.135 130.333  0.00  0.00    +0.031 C 
ATOM      7  C   LIG A   1      -7.380   2.786 131.723  0.00  0.00    -0.023 C 
ATOM      8  C   LIG A   1      -6.304   2.122 132.598  0.00  0.00    +0.012 C 
ATOM      9  C   LIG A   1      -6.926   4.255 131.351  0.00  0.00    +0.001 C 
ATOM     10  C   LIG A   1      -6.923   4.353 129.804  0.00  0.00    +0.036 C 
ATOM     11  C   LIG A   1      -7.571   5.403 132.144  0.00  0.00    +0.000 C 
ATOM     12  C   LIG A   1      -9.073   5.261 132.449  0.00  0.00    +0.003 C 
ATOM     13  C   LIG A   1      -9.300   3.911 133.148  0.00  0.00    +0.005 C 
ATOM     14  C   LIG A   1      -8.760   2.672 132.435  0.00  0.00    +0.007 C 
ATOM     15  C   LIG A   1     -10.066   5.682 131.284  0.00  0.00    -0.008 C 
ATOM     16  C   LIG A   1     -10.536   4.485 130.432  0.00  0.00    +0.016 C 
ATOM     17  C   LIG A   1      -9.457   6.777 130.392  0.00  0.00    -0.065 C 
ATOM     18  C   LIG A   1      -8.218   7.266 130.555  0.00  0.00    -0.027 C 
ATOM     19  C   LIG A   1      -7.247   6.793 131.587  0.00  0.00    +0.031 C 
ATOM     20  C   LIG A   1     -10.370   7.379 129.345  0.00  0.00    +0.062 C 
ATOM     21  C   LIG A   1     -11.653   7.925 129.979  0.00  0.00    +0.119 C 
ATOM     22  C   LIG A   1     -12.326   6.910 130.907  0.00  0.00    +0.032 C 
ATOM     23  C   LIG A   1     -11.345   6.314 131.927  0.00  0.00    +0.013 C 
ATOM     24  C   LIG A   1      -8.654   0.810 127.755  0.00  0.00    +0.052 C 
ATOM     25  C   LIG A   1      -8.767   1.189 126.284  0.00  0.00    +0.011 C 
ATOM     26  C   LIG A   1      -7.708   0.458 125.456  0.00  0.00    +0.028 C 
ATOM     27  C   LIG A   1      -6.312   0.592 126.093  0.00  0.00    +0.089 C 
ATOM     28  N   LIG A   1      -6.286   0.224 127.519  0.00  0.00    -0.288 NA
ATOM     29  H   LIG A   1      -6.547  -0.756 127.607  0.00  0.00    +0.125 HD
ENDROOT
BRANCH  21  30
ATOM     30  O   LIG A   1     -12.571   8.313 128.959  0.00  0.00    -0.392 OA
ATOM     31  H   LIG A   1     -12.944   9.178 129.205  0.00  0.00    +0.210 HD
ENDBRANCH  21  30
BRANCH  26  32
ATOM     32  C   LIG A   1      -7.728   0.992 124.021  0.00  0.00    +0.160 C 
BRANCH  32  33
ATOM     33  O   LIG A   1      -6.891   0.199 123.192  0.00  0.00    -0.395 OA
ATOM     34  H   LIG A   1      -7.469  -0.437 122.735  0.00  0.00    +0.209 HD
ENDBRANCH  32  33
ENDBRANCH  26  32
TORSDOF 3
ENDMDL
MODEL 8
REMARK VINA RESULT:      -8.2      2.268      3.010
REMARK  Name = NuBBE_2484
REMARK  6 active torsions:
REMARK  status: ('A' for Active; 'I' for Inactive)
REMARK    1  A    between atoms: C_1  and  C_2
REMARK    2  A    between atoms: C_10  and  C_11
REMARK    3  A    between atoms: C_21  and  C_22
REMARK    4  A    between atoms: C_27  and  O_31
REMARK    5  A    between atoms: C_34  and  C_38
REMARK    6  A    between atoms: C_38  and  O_39
REMARK                            x       y       z     vdW  Elec       q    Type
REMARK                         _______ _______ _______ _____ _____    ______ ____
ROOT
ATOM      1  C   LIG A   1      -9.454   3.096 132.715  0.00  0.00    +0.012 C 
ATOM      2  C   LIG A   1      -9.520   3.156 131.201  0.00  0.00    +0.039 C 
ATOM      3  C   LIG A   1     -10.087   4.482 130.558  0.00  0.00    +0.124 C 
ATOM      4  O   LIG A   1      -9.472   4.560 129.232  0.00  0.00    -0.355 OA
ATOM      5  C   LIG A   1      -8.688   3.387 129.092  0.00  0.00    +0.125 C 
ATOM      6  C   LIG A   1      -8.182   3.140 130.492  0.00  0.00    +0.031 C 
ATOM      7  C   LIG A   1      -7.110   2.043 130.368  0.00  0.00    -0.023 C 
ATOM      8  C   LIG A   1      -7.691   0.635 130.576  0.00  0.00    +0.012 C 
ATOM      9  C   LIG A   1      -6.659   2.210 128.861  0.00  0.00    +0.001 C 
ATOM     10  C   LIG A   1      -7.412   3.441 128.294  0.00  0.00    +0.036 C 
ATOM     11  C   LIG A   1      -5.156   2.088 128.568  0.00  0.00    +0.000 C 
ATOM     12  C   LIG A   1      -4.208   2.740 129.591  0.00  0.00    +0.003 C 
ATOM     13  C   LIG A   1      -4.545   2.189 130.985  0.00  0.00    +0.005 C 
ATOM     14  C   LIG A   1      -6.003   2.301 131.431  0.00  0.00    +0.007 C 
ATOM     15  C   LIG A   1      -3.978   4.303 129.434  0.00  0.00    -0.008 C 
ATOM     16  C   LIG A   1      -4.892   5.140 130.351  0.00  0.00    +0.016 C 
ATOM     17  C   LIG A   1      -4.122   4.750 127.969  0.00  0.00    -0.065 C 
ATOM     18  C   LIG A   1      -4.456   3.921 126.968  0.00  0.00    -0.027 C 
ATOM     19  C   LIG A   1      -4.774   2.472 127.135  0.00  0.00    +0.031 C 
ATOM     20  C   LIG A   1      -3.765   6.189 127.666  0.00  0.00    +0.062 C 
ATOM     21  C   LIG A   1      -2.345   6.518 128.138  0.00  0.00    +0.119 C 
ATOM     22  C   LIG A   1      -2.095   6.089 129.586  0.00  0.00    +0.032 C 
ATOM     23  C   LIG A   1      -2.502   4.630 129.839  0.00  0.00    +0.013 C 
ATOM     24  C   LIG A   1      -9.673   5.752 131.343  0.00  0.00    +0.052 C 
ATOM     25  C   LIG A   1     -10.144   7.021 130.644  0.00  0.00    +0.011 C 
ATOM     26  C   LIG A   1     -11.649   6.963 130.376  0.00  0.00    +0.028 C 
ATOM     27  C   LIG A   1     -12.046   5.629 129.716  0.00  0.00    +0.089 C 
ATOM     28  N   LIG A   1     -11.542   4.449 130.439  0.00  0.00    -0.288 NA
ATOM     29  H   LIG A   1     -11.952   4.439 131.370  0.00  0.00    +0.125 HD
ENDROOT
BRANCH  21  30
ATOM     30  O   LIG A   1      -2.104   7.919 128.012  0.00  0.00    -0.392 OA
ATOM     31  H   LIG A   1      -1.741   8.081 127.123  0.00  0.00    +0.210 HD
ENDBRANCH  21  30
BRANCH  26  32
ATOM     32  C   LIG A   1     -12.059   8.162 129.518  0.00  0.00    +0.160 C 
BRANCH  32  33
ATOM     33  O   LIG A   1     -11.322   8.172 128.305  0.00  0.00    -0.395 OA
ATOM     34  H   LIG A   1     -11.009   9.084 128.173  0.00  0.00    +0.209 HD
ENDBRANCH  32  33
ENDBRANCH  26  32
TORSDOF 3
ENDMDL
MODEL 9
REMARK VINA RESULT:      -8.2      4.257      7.901
REMARK  Name = NuBBE_2484
REMARK  6 active torsions:
REMARK  status: ('A' for Active; 'I' for Inactive)
REMARK    1  A    between atoms: C_1  and  C_2
REMARK    2  A    between atoms: C_10  and  C_11
REMARK    3  A    between atoms: C_21  and  C_22
REMARK    4  A    between atoms: C_27  and  O_31
REMARK    5  A    between atoms: C_34  and  C_38
REMARK    6  A    between atoms: C_38  and  O_39
REMARK                            x       y       z     vdW  Elec       q    Type
REMARK                         _______ _______ _______ _____ _____    ______ ____
ROOT
ATOM      1  C   LIG A   1      -9.337  -4.201 128.315  0.00  0.00    +0.012 C 
ATOM      2  C   LIG A   1      -8.027  -3.696 127.739  0.00  0.00    +0.039 C 
ATOM      3  C   LIG A   1      -8.097  -2.932 126.359  0.00  0.00    +0.124 C 
ATOM      4  O   LIG A   1      -6.937  -2.039 126.355  0.00  0.00    -0.355 OA
ATOM      5  C   LIG A   1      -6.239  -2.295 127.562  0.00  0.00    +0.125 C 
ATOM      6  C   LIG A   1      -7.344  -2.609 128.541  0.00  0.00    +0.031 C 
ATOM      7  C   LIG A   1      -6.683  -2.632 129.931  0.00  0.00    -0.023 C 
ATOM      8  C   LIG A   1      -6.235  -4.045 130.338  0.00  0.00    +0.012 C 
ATOM      9  C   LIG A   1      -5.412  -1.722 129.693  0.00  0.00    +0.001 C 
ATOM     10  C   LIG A   1      -5.511  -1.169 128.248  0.00  0.00    +0.036 C 
ATOM     11  C   LIG A   1      -5.040  -0.741 130.816  0.00  0.00    +0.000 C 
ATOM     12  C   LIG A   1      -6.213  -0.025 131.510  0.00  0.00    +0.003 C 
ATOM     13  C   LIG A   1      -7.202  -1.088 132.011  0.00  0.00    +0.005 C 
ATOM     14  C   LIG A   1      -7.703  -2.098 130.979  0.00  0.00    +0.007 C 
ATOM     15  C   LIG A   1      -6.792   1.252 130.765  0.00  0.00    -0.008 C 
ATOM     16  C   LIG A   1      -8.027   0.933 129.897  0.00  0.00    +0.016 C 
ATOM     17  C   LIG A   1      -5.711   1.958 129.930  0.00  0.00    -0.065 C 
ATOM     18  C   LIG A   1      -4.452   1.508 129.810  0.00  0.00    -0.027 C 
ATOM     19  C   LIG A   1      -3.937   0.249 130.428  0.00  0.00    +0.031 C 
ATOM     20  C   LIG A   1      -6.099   3.279 129.303  0.00  0.00    +0.062 C 
ATOM     21  C   LIG A   1      -6.616   4.261 130.359  0.00  0.00    +0.119 C 
ATOM     22  C   LIG A   1      -7.689   3.642 131.259  0.00  0.00    +0.032 C 
ATOM     23  C   LIG A   1      -7.249   2.291 131.842  0.00  0.00    +0.013 C 
ATOM     24  C   LIG A   1      -9.366  -2.055 126.223  0.00  0.00    +0.052 C 
ATOM     25  C   LIG A   1      -9.357  -1.250 124.930  0.00  0.00    +0.011 C 
ATOM     26  C   LIG A   1      -9.148  -2.169 123.725  0.00  0.00    +0.028 C 
ATOM     27  C   LIG A   1      -7.958  -3.121 123.949  0.00  0.00    +0.089 C 
ATOM     28  N   LIG A   1      -8.030  -3.851 125.226  0.00  0.00    -0.288 NA
ATOM     29  H   LIG A   1      -8.865  -4.434 125.221  0.00  0.00    +0.125 HD
ENDROOT
BRANCH  21  30
ATOM     30  O   LIG A   1      -7.148   5.423 129.723  0.00  0.00    -0.392 OA
ATOM     31  H   LIG A   1      -7.573   5.141 128.894  0.00  0.00    +0.210 HD
ENDBRANCH  21  30
BRANCH  26  32
ATOM     32  C   LIG A   1      -8.963  -1.320 122.465  0.00  0.00    +0.160 C 
BRANCH  32  33
ATOM     33  O   LIG A   1     -10.075  -0.454 122.290  0.00  0.00    -0.395 OA
ATOM     34  H   LIG A   1      -9.752   0.452 122.442  0.00  0.00    +0.209 HD
ENDBRANCH  32  33
ENDBRANCH  26  32
TORSDOF 3
ENDMDL
