MODEL 1
REMARK VINA RESULT:      -7.4      0.000      0.000
REMARK  Name = NuBBE_1221
REMARK  11 active torsions:
REMARK  status: ('A' for Active; 'I' for Inactive)
REMARK    1  A    between atoms: C_4  and  C_18
REMARK    2  A    between atoms: C_9  and  O_10
REMARK    3  A    between atoms: O_10  and  C_11
REMARK    4  A    between atoms: C_12  and  O_13
REMARK    5  A    between atoms: O_13  and  C_14
REMARK    6  A    between atoms: C_15  and  O_16
REMARK    7  A    between atoms: O_16  and  C_17
REMARK    8  A    between atoms: C_21  and  O_26
REMARK    9  A    between atoms: C_22  and  O_23
REMARK   10  A    between atoms: O_23  and  C_24
REMARK   11  A    between atoms: O_26  and  C_27
REMARK                            x       y       z     vdW  Elec       q    Type
REMARK                         _______ _______ _______ _____ _____    ______ ____
ROOT
ATOM      1  O   LIG A   1      -8.701   4.333 134.543  0.00  0.00    -0.287 OA
ATOM      2  C   LIG A   1      -9.039   4.301 133.412  0.00  0.00    +0.193 A 
ATOM      3  C   LIG A   1      -9.791   5.407 132.800  0.00  0.00    +0.098 A 
ATOM      4  C   LIG A   1     -10.150   5.333 131.517  0.00  0.00    +0.140 A 
ATOM      5  O   LIG A   1      -9.855   4.262 130.661  0.00  0.00    -0.451 OA
ATOM      6  C   LIG A   1      -9.136   3.189 131.162  0.00  0.00    +0.184 A 
ATOM      7  C   LIG A   1      -8.758   3.173 132.496  0.00  0.00    +0.071 A 
ATOM      8  C   LIG A   1      -8.107   2.085 133.028  0.00  0.00    +0.065 A 
ATOM      9  C   LIG A   1      -7.860   0.945 132.253  0.00  0.00    +0.166 A 
ATOM     10  C   LIG A   1      -8.139   0.926 130.845  0.00  0.00    +0.207 A 
ATOM     11  C   LIG A   1      -8.806   2.086 130.315  0.00  0.00    +0.209 A 
ENDROOT
BRANCH   4  12
ATOM     12  C   LIG A   1     -10.927   6.426 130.900  0.00  0.00    +0.021 A 
ATOM     13  C   LIG A   1     -12.099   6.903 131.481  0.00  0.00    +0.015 A 
ATOM     14  C   LIG A   1     -12.826   7.933 130.873  0.00  0.00    +0.050 A 
ATOM     15  C   LIG A   1     -12.372   8.526 129.687  0.00  0.00    +0.162 A 
ATOM     16  C   LIG A   1     -11.174   8.076 129.105  0.00  0.00    +0.162 A 
ATOM     17  C   LIG A   1     -10.499   7.007 129.700  0.00  0.00    +0.061 A 
BRANCH  16  18
ATOM     18  O   LIG A   1     -10.701   8.676 127.960  0.00  0.00    -0.491 OA
ATOM     19  C   LIG A   1     -10.882   7.917 126.757  0.00  0.00    +0.277 C 
ENDBRANCH  16  18
BRANCH  15  20
ATOM     20  O   LIG A   1     -13.080   9.503 129.032  0.00  0.00    -0.491 OA
ATOM     21  C   LIG A   1     -13.399  10.653 129.813  0.00  0.00    +0.277 C 
ENDBRANCH  15  20
ENDBRANCH   4  12
BRANCH   9  22
ATOM     22  O   LIG A   1      -7.395  -0.032 133.123  0.00  0.00    -0.491 OA
ATOM     23  C   LIG A   1      -6.213   0.357 133.731  0.00  0.00    +0.277 C 
ENDBRANCH   9  22
BRANCH  10  24
ATOM     24  O   LIG A   1      -8.029  -0.173 129.991  0.00  0.00    -0.488 OA
ATOM     25  C   LIG A   1      -6.891  -0.571 129.186  0.00  0.00    +0.277 C 
ENDBRANCH  10  24
BRANCH  11  26
ATOM     26  O   LIG A   1      -9.146   2.272 128.987  0.00  0.00    -0.488 OA
ATOM     27  C   LIG A   1      -8.120   2.768 128.135  0.00  0.00    +0.277 C 
ENDBRANCH  11  26
TORSDOF 6
ENDMDL
MODEL 2
REMARK VINA RESULT:      -6.9      3.640      4.076
REMARK  Name = NuBBE_1221
REMARK  11 active torsions:
REMARK  status: ('A' for Active; 'I' for Inactive)
REMARK    1  A    between atoms: C_4  and  C_18
REMARK    2  A    between atoms: C_9  and  O_10
REMARK    3  A    between atoms: O_10  and  C_11
REMARK    4  A    between atoms: C_12  and  O_13
REMARK    5  A    between atoms: O_13  and  C_14
REMARK    6  A    between atoms: C_15  and  O_16
REMARK    7  A    between atoms: O_16  and  C_17
REMARK    8  A    between atoms: C_21  and  O_26
REMARK    9  A    between atoms: C_22  and  O_23
REMARK   10  A    between atoms: O_23  and  C_24
REMARK   11  A    between atoms: O_26  and  C_27
REMARK                            x       y       z     vdW  Elec       q    Type
REMARK                         _______ _______ _______ _____ _____    ______ ____
ROOT
ATOM      1  O   LIG A   1      -7.952   4.833 134.883  0.00  0.00    -0.287 OA
ATOM      2  C   LIG A   1      -7.820   5.297 133.806  0.00  0.00    +0.193 A 
ATOM      3  C   LIG A   1      -8.969   5.796 133.035  0.00  0.00    +0.098 A 
ATOM      4  C   LIG A   1      -8.775   6.319 131.822  0.00  0.00    +0.140 A 
ATOM      5  O   LIG A   1      -7.529   6.451 131.194  0.00  0.00    -0.451 OA
ATOM      6  C   LIG A   1      -6.397   6.017 131.865  0.00  0.00    +0.184 A 
ATOM      7  C   LIG A   1      -6.518   5.429 133.115  0.00  0.00    +0.071 A 
ATOM      8  C   LIG A   1      -5.414   4.926 133.763  0.00  0.00    +0.065 A 
ATOM      9  C   LIG A   1      -4.153   4.945 133.156  0.00  0.00    +0.166 A 
ATOM     10  C   LIG A   1      -3.935   5.619 131.908  0.00  0.00    +0.207 A 
ATOM     11  C   LIG A   1      -5.108   6.148 131.262  0.00  0.00    +0.209 A 
ENDROOT
BRANCH   4  12
ATOM     12  C   LIG A   1      -9.925   6.799 131.029  0.00  0.00    +0.021 A 
ATOM     13  C   LIG A   1     -11.226   6.736 131.523  0.00  0.00    +0.015 A 
ATOM     14  C   LIG A   1     -12.301   7.187 130.750  0.00  0.00    +0.050 A 
ATOM     15  C   LIG A   1     -12.088   7.739 129.480  0.00  0.00    +0.162 A 
ATOM     16  C   LIG A   1     -10.778   7.838 128.981  0.00  0.00    +0.162 A 
ATOM     17  C   LIG A   1      -9.728   7.326 129.747  0.00  0.00    +0.061 A 
BRANCH  16  18
ATOM     18  O   LIG A   1     -10.554   8.411 127.750  0.00  0.00    -0.491 OA
ATOM     19  C   LIG A   1     -10.693   7.524 126.632  0.00  0.00    +0.277 C 
ENDBRANCH  16  18
BRANCH  15  20
ATOM     20  O   LIG A   1     -13.119   8.147 128.669  0.00  0.00    -0.491 OA
ATOM     21  C   LIG A   1     -13.447   9.532 128.749  0.00  0.00    +0.277 C 
ENDBRANCH  15  20
ENDBRANCH   4  12
BRANCH   9  22
ATOM     22  O   LIG A   1      -3.315   4.185 133.961  0.00  0.00    -0.491 OA
ATOM     23  C   LIG A   1      -3.552   2.831 133.798  0.00  0.00    +0.277 C 
ENDBRANCH   9  22
BRANCH  10  24
ATOM     24  O   LIG A   1      -2.757   5.625 131.160  0.00  0.00    -0.488 OA
ATOM     25  C   LIG A   1      -1.544   6.379 131.408  0.00  0.00    +0.277 C 
ENDBRANCH  10  24
BRANCH  11  26
ATOM     26  O   LIG A   1      -5.112   6.845 130.065  0.00  0.00    -0.488 OA
ATOM     27  C   LIG A   1      -4.579   8.164 130.101  0.00  0.00    +0.277 C 
ENDBRANCH  11  26
TORSDOF 6
ENDMDL
MODEL 3
REMARK VINA RESULT:      -6.7      2.896      3.147
REMARK  Name = NuBBE_1221
REMARK  11 active torsions:
REMARK  status: ('A' for Active; 'I' for Inactive)
REMARK    1  A    between atoms: C_4  and  C_18
REMARK    2  A    between atoms: C_9  and  O_10
REMARK    3  A    between atoms: O_10  and  C_11
REMARK    4  A    between atoms: C_12  and  O_13
REMARK    5  A    between atoms: O_13  and  C_14
REMARK    6  A    between atoms: C_15  and  O_16
REMARK    7  A    between atoms: O_16  and  C_17
REMARK    8  A    between atoms: C_21  and  O_26
REMARK    9  A    between atoms: C_22  and  O_23
REMARK   10  A    between atoms: O_23  and  C_24
REMARK   11  A    between atoms: O_26  and  C_27
REMARK                            x       y       z     vdW  Elec       q    Type
REMARK                         _______ _______ _______ _____ _____    ______ ____
ROOT
ATOM      1  O   LIG A   1      -8.981   2.150 132.412  0.00  0.00    -0.287 OA
ATOM      2  C   LIG A   1      -8.697   3.132 131.822  0.00  0.00    +0.193 A 
ATOM      3  C   LIG A   1      -9.710   4.139 131.466  0.00  0.00    +0.098 A 
ATOM      4  C   LIG A   1      -9.345   5.238 130.802  0.00  0.00    +0.140 A 
ATOM      5  O   LIG A   1      -8.035   5.539 130.407  0.00  0.00    -0.451 OA
ATOM      6  C   LIG A   1      -7.023   4.646 130.719  0.00  0.00    +0.184 A 
ATOM      7  C   LIG A   1      -7.325   3.463 131.376  0.00  0.00    +0.071 A 
ATOM      8  C   LIG A   1      -6.345   2.532 131.630  0.00  0.00    +0.065 A 
ATOM      9  C   LIG A   1      -5.033   2.729 131.184  0.00  0.00    +0.166 A 
ATOM     10  C   LIG A   1      -4.627   3.967 130.582  0.00  0.00    +0.207 A 
ATOM     11  C   LIG A   1      -5.673   4.927 130.344  0.00  0.00    +0.209 A 
ENDROOT
BRANCH   4  12
ATOM     12  C   LIG A   1     -10.358   6.241 130.418  0.00  0.00    +0.021 A 
ATOM     13  C   LIG A   1     -11.430   6.549 131.251  0.00  0.00    +0.015 A 
ATOM     14  C   LIG A   1     -12.384   7.495 130.863  0.00  0.00    +0.050 A 
ATOM     15  C   LIG A   1     -12.262   8.175 129.643  0.00  0.00    +0.162 A 
ATOM     16  C   LIG A   1     -11.169   7.897 128.804  0.00  0.00    +0.162 A 
ATOM     17  C   LIG A   1     -10.263   6.906 129.189  0.00  0.00    +0.061 A 
BRANCH  16  18
ATOM     18  O   LIG A   1     -11.020   8.585 127.621  0.00  0.00    -0.491 OA
ATOM     19  C   LIG A   1     -10.952   7.765 126.447  0.00  0.00    +0.277 C 
ENDBRANCH  16  18
BRANCH  15  20
ATOM     20  O   LIG A   1     -13.202   9.073 129.201  0.00  0.00    -0.491 OA
ATOM     21  C   LIG A   1     -13.224  10.321 129.890  0.00  0.00    +0.277 C 
ENDBRANCH  15  20
ENDBRANCH   4  12
BRANCH   9  22
ATOM     22  O   LIG A   1      -4.357   1.536 131.405  0.00  0.00    -0.491 OA
ATOM     23  C   LIG A   1      -4.250   0.795 130.240  0.00  0.00    +0.277 C 
ENDBRANCH   9  22
BRANCH  10  24
ATOM     24  O   LIG A   1      -3.384   4.247 130.013  0.00  0.00    -0.488 OA
ATOM     25  C   LIG A   1      -2.976   4.086 128.631  0.00  0.00    +0.277 C 
ENDBRANCH  10  24
BRANCH  11  26
ATOM     26  O   LIG A   1      -5.490   6.183 129.792  0.00  0.00    -0.488 OA
ATOM     27  C   LIG A   1      -5.018   7.198 130.672  0.00  0.00    +0.277 C 
ENDBRANCH  11  26
TORSDOF 6
ENDMDL
MODEL 4
REMARK VINA RESULT:      -6.6      5.151      7.898
REMARK  Name = NuBBE_1221
REMARK  11 active torsions:
REMARK  status: ('A' for Active; 'I' for Inactive)
REMARK    1  A    between atoms: C_4  and  C_18
REMARK    2  A    between atoms: C_9  and  O_10
REMARK    3  A    between atoms: O_10  and  C_11
REMARK    4  A    between atoms: C_12  and  O_13
REMARK    5  A    between atoms: O_13  and  C_14
REMARK    6  A    between atoms: C_15  and  O_16
REMARK    7  A    between atoms: O_16  and  C_17
REMARK    8  A    between atoms: C_21  and  O_26
REMARK    9  A    between atoms: C_22  and  O_23
REMARK   10  A    between atoms: O_23  and  C_24
REMARK   11  A    between atoms: O_26  and  C_27
REMARK                            x       y       z     vdW  Elec       q    Type
REMARK                         _______ _______ _______ _____ _____    ______ ____
ROOT
ATOM      1  O   LIG A   1      -1.777   3.496 126.982  0.00  0.00    -0.287 OA
ATOM      2  C   LIG A   1      -2.921   3.774 127.084  0.00  0.00    +0.193 A 
ATOM      3  C   LIG A   1      -3.879   3.505 126.001  0.00  0.00    +0.098 A 
ATOM      4  C   LIG A   1      -5.164   3.830 126.159  0.00  0.00    +0.140 A 
ATOM      5  O   LIG A   1      -5.707   4.417 127.311  0.00  0.00    -0.451 OA
ATOM      6  C   LIG A   1      -4.869   4.687 128.379  0.00  0.00    +0.184 A 
ATOM      7  C   LIG A   1      -3.514   4.412 128.280  0.00  0.00    +0.071 A 
ATOM      8  C   LIG A   1      -2.655   4.740 129.303  0.00  0.00    +0.065 A 
ATOM      9  C   LIG A   1      -3.116   5.408 130.443  0.00  0.00    +0.166 A 
ATOM     10  C   LIG A   1      -4.516   5.640 130.656  0.00  0.00    +0.207 A 
ATOM     11  C   LIG A   1      -5.391   5.272 129.574  0.00  0.00    +0.209 A 
ENDROOT
BRANCH   4  12
ATOM     12  C   LIG A   1      -6.129   3.588 125.069  0.00  0.00    +0.021 A 
ATOM     13  C   LIG A   1      -5.787   3.792 123.735  0.00  0.00    +0.015 A 
ATOM     14  C   LIG A   1      -6.721   3.566 122.718  0.00  0.00    +0.050 A 
ATOM     15  C   LIG A   1      -8.008   3.101 123.020  0.00  0.00    +0.162 A 
ATOM     16  C   LIG A   1      -8.359   2.860 124.359  0.00  0.00    +0.162 A 
ATOM     17  C   LIG A   1      -7.427   3.149 125.359  0.00  0.00    +0.061 A 
BRANCH  16  18
ATOM     18  O   LIG A   1      -9.608   2.367 124.663  0.00  0.00    -0.491 OA
ATOM     19  C   LIG A   1      -9.647   0.974 124.997  0.00  0.00    +0.277 C 
ENDBRANCH  16  18
BRANCH  15  20
ATOM     20  O   LIG A   1      -8.970   2.915 122.058  0.00  0.00    -0.491 OA
ATOM     21  C   LIG A   1      -8.763   3.630 120.841  0.00  0.00    +0.277 C 
ENDBRANCH  15  20
ENDBRANCH   4  12
BRANCH   9  22
ATOM     22  O   LIG A   1      -1.991   5.777 131.168  0.00  0.00    -0.491 OA
ATOM     23  C   LIG A   1      -1.786   4.931 132.245  0.00  0.00    +0.277 C 
ENDBRANCH   9  22
BRANCH  10  24
ATOM     24  O   LIG A   1      -5.088   6.375 131.696  0.00  0.00    -0.488 OA
ATOM     25  C   LIG A   1      -5.416   5.926 133.035  0.00  0.00    +0.277 C 
ENDBRANCH  10  24
BRANCH  11  26
ATOM     26  O   LIG A   1      -6.769   5.398 129.586  0.00  0.00    -0.488 OA
ATOM     27  C   LIG A   1      -7.492   4.369 130.253  0.00  0.00    +0.277 C 
ENDBRANCH  11  26
TORSDOF 6
ENDMDL
MODEL 5
REMARK VINA RESULT:      -6.6      3.286      5.915
REMARK  Name = NuBBE_1221
REMARK  11 active torsions:
REMARK  status: ('A' for Active; 'I' for Inactive)
REMARK    1  A    between atoms: C_4  and  C_18
REMARK    2  A    between atoms: C_9  and  O_10
REMARK    3  A    between atoms: O_10  and  C_11
REMARK    4  A    between atoms: C_12  and  O_13
REMARK    5  A    between atoms: O_13  and  C_14
REMARK    6  A    between atoms: C_15  and  O_16
REMARK    7  A    between atoms: O_16  and  C_17
REMARK    8  A    between atoms: C_21  and  O_26
REMARK    9  A    between atoms: C_22  and  O_23
REMARK   10  A    between atoms: O_23  and  C_24
REMARK   11  A    between atoms: O_26  and  C_27
REMARK                            x       y       z     vdW  Elec       q    Type
REMARK                         _______ _______ _______ _____ _____    ______ ____
ROOT
ATOM      1  O   LIG A   1      -7.191  -1.313 128.966  0.00  0.00    -0.287 OA
ATOM      2  C   LIG A   1      -7.666  -0.315 128.550  0.00  0.00    +0.193 A 
ATOM      3  C   LIG A   1      -8.007   0.806 129.440  0.00  0.00    +0.098 A 
ATOM      4  C   LIG A   1      -8.539   1.918 128.928  0.00  0.00    +0.140 A 
ATOM      5  O   LIG A   1      -8.802   2.130 127.568  0.00  0.00    -0.451 OA
ATOM      6  C   LIG A   1      -8.494   1.125 126.666  0.00  0.00    +0.184 A 
ATOM      7  C   LIG A   1      -7.972  -0.076 127.122  0.00  0.00    +0.071 A 
ATOM      8  C   LIG A   1      -7.728  -1.112 126.250  0.00  0.00    +0.065 A 
ATOM      9  C   LIG A   1      -8.051  -1.000 124.893  0.00  0.00    +0.166 A 
ATOM     10  C   LIG A   1      -8.505   0.242 124.334  0.00  0.00    +0.207 A 
ATOM     11  C   LIG A   1      -8.736   1.311 125.270  0.00  0.00    +0.209 A 
ENDROOT
BRANCH   4  12
ATOM     12  C   LIG A   1      -8.908   3.039 129.815  0.00  0.00    +0.021 A 
ATOM     13  C   LIG A   1      -9.234   2.831 131.153  0.00  0.00    +0.015 A 
ATOM     14  C   LIG A   1      -9.591   3.907 131.973  0.00  0.00    +0.050 A 
ATOM     15  C   LIG A   1      -9.598   5.216 131.473  0.00  0.00    +0.162 A 
ATOM     16  C   LIG A   1      -9.242   5.446 130.133  0.00  0.00    +0.162 A 
ATOM     17  C   LIG A   1      -8.946   4.348 129.320  0.00  0.00    +0.061 A 
BRANCH  16  18
ATOM     18  O   LIG A   1      -9.210   6.731 129.643  0.00  0.00    -0.491 OA
ATOM     19  C   LIG A   1     -10.228   7.040 128.682  0.00  0.00    +0.277 C 
ENDBRANCH  16  18
BRANCH  15  20
ATOM     20  O   LIG A   1      -9.991   6.293 132.229  0.00  0.00    -0.491 OA
ATOM     21  C   LIG A   1     -11.390   6.570 132.217  0.00  0.00    +0.277 C 
ENDBRANCH  15  20
ENDBRANCH   4  12
BRANCH   9  22
ATOM     22  O   LIG A   1      -7.886  -2.264 124.342  0.00  0.00    -0.491 OA
ATOM     23  C   LIG A   1      -9.102  -2.912 124.198  0.00  0.00    +0.277 C 
ENDBRANCH   9  22
BRANCH  10  24
ATOM     24  O   LIG A   1      -8.948   0.452 123.027  0.00  0.00    -0.488 OA
ATOM     25  C   LIG A   1     -10.303   0.368 122.517  0.00  0.00    +0.277 C 
ENDBRANCH  10  24
BRANCH  11  26
ATOM     26  O   LIG A   1      -9.157   2.586 124.934  0.00  0.00    -0.488 OA
ATOM     27  C   LIG A   1      -8.155   3.476 124.455  0.00  0.00    +0.277 C 
ENDBRANCH  11  26
TORSDOF 6
ENDMDL
MODEL 6
REMARK VINA RESULT:      -6.5      1.733      3.524
REMARK  Name = NuBBE_1221
REMARK  11 active torsions:
REMARK  status: ('A' for Active; 'I' for Inactive)
REMARK    1  A    between atoms: C_4  and  C_18
REMARK    2  A    between atoms: C_9  and  O_10
REMARK    3  A    between atoms: O_10  and  C_11
REMARK    4  A    between atoms: C_12  and  O_13
REMARK    5  A    between atoms: O_13  and  C_14
REMARK    6  A    between atoms: C_15  and  O_16
REMARK    7  A    between atoms: O_16  and  C_17
REMARK    8  A    between atoms: C_21  and  O_26
REMARK    9  A    between atoms: C_22  and  O_23
REMARK   10  A    between atoms: O_23  and  C_24
REMARK   11  A    between atoms: O_26  and  C_27
REMARK                            x       y       z     vdW  Elec       q    Type
REMARK                         _______ _______ _______ _____ _____    ______ ____
ROOT
ATOM      1  O   LIG A   1      -9.710   1.479 131.220  0.00  0.00    -0.287 OA
ATOM      2  C   LIG A   1      -9.526   2.587 131.586  0.00  0.00    +0.193 A 
ATOM      3  C   LIG A   1     -10.309   3.714 131.056  0.00  0.00    +0.098 A 
ATOM      4  C   LIG A   1     -10.073   4.951 131.500  0.00  0.00    +0.140 A 
ATOM      5  O   LIG A   1      -9.119   5.286 132.471  0.00  0.00    -0.451 OA
ATOM      6  C   LIG A   1      -8.353   4.276 133.028  0.00  0.00    +0.184 A 
ATOM      7  C   LIG A   1      -8.512   2.969 132.594  0.00  0.00    +0.071 A 
ATOM      8  C   LIG A   1      -7.710   1.965 133.084  0.00  0.00    +0.065 A 
ATOM      9  C   LIG A   1      -6.679   2.244 133.988  0.00  0.00    +0.166 A 
ATOM     10  C   LIG A   1      -6.516   3.554 134.552  0.00  0.00    +0.207 A 
ATOM     11  C   LIG A   1      -7.380   4.580 134.030  0.00  0.00    +0.209 A 
ENDROOT
BRANCH   4  12
ATOM     12  C   LIG A   1     -10.836   6.092 130.955  0.00  0.00    +0.021 A 
ATOM     13  C   LIG A   1     -12.026   6.516 131.539  0.00  0.00    +0.015 A 
ATOM     14  C   LIG A   1     -12.738   7.593 131.000  0.00  0.00    +0.050 A 
ATOM     15  C   LIG A   1     -12.251   8.285 129.882  0.00  0.00    +0.162 A 
ATOM     16  C   LIG A   1     -11.035   7.888 129.300  0.00  0.00    +0.162 A 
ATOM     17  C   LIG A   1     -10.374   6.773 129.822  0.00  0.00    +0.061 A 
BRANCH  16  18
ATOM     18  O   LIG A   1     -10.530   8.583 128.225  0.00  0.00    -0.491 OA
ATOM     19  C   LIG A   1     -10.770   7.982 126.946  0.00  0.00    +0.277 C 
ENDBRANCH  16  18
BRANCH  15  20
ATOM     20  O   LIG A   1     -12.942   9.314 129.292  0.00  0.00    -0.491 OA
ATOM     21  C   LIG A   1     -13.232  10.422 130.142  0.00  0.00    +0.277 C 
ENDBRANCH  15  20
ENDBRANCH   4  12
BRANCH   9  22
ATOM     22  O   LIG A   1      -5.937   1.077 134.115  0.00  0.00    -0.491 OA
ATOM     23  C   LIG A   1      -6.416   0.083 133.279  0.00  0.00    +0.277 C 
ENDBRANCH   9  22
BRANCH  10  24
ATOM     24  O   LIG A   1      -5.476   3.978 135.381  0.00  0.00    -0.488 OA
ATOM     25  C   LIG A   1      -4.143   4.402 134.999  0.00  0.00    +0.277 C 
ENDBRANCH  10  24
BRANCH  11  26
ATOM     26  O   LIG A   1      -7.394   5.899 134.450  0.00  0.00    -0.488 OA
ATOM     27  C   LIG A   1      -7.901   6.140 135.758  0.00  0.00    +0.277 C 
ENDBRANCH  11  26
TORSDOF 6
ENDMDL
MODEL 7
REMARK VINA RESULT:      -6.5      6.974     10.410
REMARK  Name = NuBBE_1221
REMARK  11 active torsions:
REMARK  status: ('A' for Active; 'I' for Inactive)
REMARK    1  A    between atoms: C_4  and  C_18
REMARK    2  A    between atoms: C_9  and  O_10
REMARK    3  A    between atoms: O_10  and  C_11
REMARK    4  A    between atoms: C_12  and  O_13
REMARK    5  A    between atoms: O_13  and  C_14
REMARK    6  A    between atoms: C_15  and  O_16
REMARK    7  A    between atoms: O_16  and  C_17
REMARK    8  A    between atoms: C_21  and  O_26
REMARK    9  A    between atoms: C_22  and  O_23
REMARK   10  A    between atoms: O_23  and  C_24
REMARK   11  A    between atoms: O_26  and  C_27
REMARK                            x       y       z     vdW  Elec       q    Type
REMARK                         _______ _______ _______ _____ _____    ______ ____
ROOT
ATOM      1  O   LIG A   1      -9.794  -2.683 125.178  0.00  0.00    -0.287 OA
ATOM      2  C   LIG A   1      -9.029  -2.082 125.848  0.00  0.00    +0.193 A 
ATOM      3  C   LIG A   1      -8.472  -2.652 127.084  0.00  0.00    +0.098 A 
ATOM      4  C   LIG A   1      -7.607  -1.940 127.810  0.00  0.00    +0.140 A 
ATOM      5  O   LIG A   1      -7.155  -0.654 127.485  0.00  0.00    -0.451 OA
ATOM      6  C   LIG A   1      -7.624  -0.056 126.327  0.00  0.00    +0.184 A 
ATOM      7  C   LIG A   1      -8.553  -0.715 125.537  0.00  0.00    +0.071 A 
ATOM      8  C   LIG A   1      -9.084  -0.108 124.423  0.00  0.00    +0.065 A 
ATOM      9  C   LIG A   1      -8.744   1.208 124.091  0.00  0.00    +0.166 A 
ATOM     10  C   LIG A   1      -7.721   1.918 124.806  0.00  0.00    +0.207 A 
ATOM     11  C   LIG A   1      -7.174   1.249 125.957  0.00  0.00    +0.209 A 
ENDROOT
BRANCH   4  12
ATOM     12  C   LIG A   1      -7.061  -2.493 129.065  0.00  0.00    +0.021 A 
ATOM     13  C   LIG A   1      -7.853  -2.637 130.202  0.00  0.00    +0.015 A 
ATOM     14  C   LIG A   1      -7.312  -3.154 131.384  0.00  0.00    +0.050 A 
ATOM     15  C   LIG A   1      -5.973  -3.566 131.438  0.00  0.00    +0.162 A 
ATOM     16  C   LIG A   1      -5.170  -3.456 130.291  0.00  0.00    +0.162 A 
ATOM     17  C   LIG A   1      -5.718  -2.882 129.140  0.00  0.00    +0.061 A 
BRANCH  16  18
ATOM     18  O   LIG A   1      -3.865  -3.891 130.323  0.00  0.00    -0.491 OA
ATOM     19  C   LIG A   1      -3.124  -3.679 129.114  0.00  0.00    +0.277 C 
ENDBRANCH  16  18
BRANCH  15  20
ATOM     20  O   LIG A   1      -5.390  -4.030 132.591  0.00  0.00    -0.491 OA
ATOM     21  C   LIG A   1      -6.288  -4.287 133.669  0.00  0.00    +0.277 C 
ENDBRANCH  15  20
ENDBRANCH   4  12
BRANCH   9  22
ATOM     22  O   LIG A   1      -9.596   1.590 123.063  0.00  0.00    -0.491 OA
ATOM     23  C   LIG A   1     -10.220   0.493 122.493  0.00  0.00    +0.277 C 
ENDBRANCH   9  22
BRANCH  10  24
ATOM     24  O   LIG A   1      -7.363   3.256 124.634  0.00  0.00    -0.488 OA
ATOM     25  C   LIG A   1      -6.394   3.812 123.710  0.00  0.00    +0.277 C 
ENDBRANCH  10  24
BRANCH  11  26
ATOM     26  O   LIG A   1      -6.171   1.752 126.768  0.00  0.00    -0.488 OA
ATOM     27  C   LIG A   1      -4.836   1.567 126.311  0.00  0.00    +0.277 C 
ENDBRANCH  11  26
TORSDOF 6
ENDMDL
MODEL 8
REMARK VINA RESULT:      -6.5      3.332      8.774
REMARK  Name = NuBBE_1221
REMARK  11 active torsions:
REMARK  status: ('A' for Active; 'I' for Inactive)
REMARK    1  A    between atoms: C_4  and  C_18
REMARK    2  A    between atoms: C_9  and  O_10
REMARK    3  A    between atoms: O_10  and  C_11
REMARK    4  A    between atoms: C_12  and  O_13
REMARK    5  A    between atoms: O_13  and  C_14
REMARK    6  A    between atoms: C_15  and  O_16
REMARK    7  A    between atoms: O_16  and  C_17
REMARK    8  A    between atoms: C_21  and  O_26
REMARK    9  A    between atoms: C_22  and  O_23
REMARK   10  A    between atoms: O_23  and  C_24
REMARK   11  A    between atoms: O_26  and  C_27
REMARK                            x       y       z     vdW  Elec       q    Type
REMARK                         _______ _______ _______ _____ _____    ______ ____
ROOT
ATOM      1  O   LIG A   1      -7.839  -1.770 131.977  0.00  0.00    -0.287 OA
ATOM      2  C   LIG A   1      -7.857  -1.149 130.973  0.00  0.00    +0.193 A 
ATOM      3  C   LIG A   1      -7.440  -1.742 129.692  0.00  0.00    +0.098 A 
ATOM      4  C   LIG A   1      -7.480  -1.007 128.579  0.00  0.00    +0.140 A 
ATOM      5  O   LIG A   1      -7.910   0.326 128.512  0.00  0.00    -0.451 OA
ATOM      6  C   LIG A   1      -8.334   0.948 129.675  0.00  0.00    +0.184 A 
ATOM      7  C   LIG A   1      -8.288   0.264 130.880  0.00  0.00    +0.071 A 
ATOM      8  C   LIG A   1      -8.635   0.888 132.055  0.00  0.00    +0.065 A 
ATOM      9  C   LIG A   1      -8.989   2.242 132.072  0.00  0.00    +0.166 A 
ATOM     10  C   LIG A   1      -9.149   2.988 130.856  0.00  0.00    +0.207 A 
ATOM     11  C   LIG A   1      -8.792   2.301 129.642  0.00  0.00    +0.209 A 
ENDROOT
BRANCH   4  12
ATOM     12  C   LIG A   1      -7.039  -1.584 127.294  0.00  0.00    +0.021 A 
ATOM     13  C   LIG A   1      -5.782  -1.304 126.764  0.00  0.00    +0.015 A 
ATOM     14  C   LIG A   1      -5.389  -1.854 125.539  0.00  0.00    +0.050 A 
ATOM     15  C   LIG A   1      -6.238  -2.721 124.838  0.00  0.00    +0.162 A 
ATOM     16  C   LIG A   1      -7.498  -3.037 125.375  0.00  0.00    +0.162 A 
ATOM     17  C   LIG A   1      -7.890  -2.429 126.570  0.00  0.00    +0.061 A 
BRANCH  16  18
ATOM     18  O   LIG A   1      -8.325  -3.916 124.712  0.00  0.00    -0.491 OA
ATOM     19  C   LIG A   1      -9.334  -3.304 123.898  0.00  0.00    +0.277 C 
ENDBRANCH  16  18
BRANCH  15  20
ATOM     20  O   LIG A   1      -5.912  -3.241 123.610  0.00  0.00    -0.491 OA
ATOM     21  C   LIG A   1      -4.630  -3.860 123.530  0.00  0.00    +0.277 C 
ENDBRANCH  15  20
ENDBRANCH   4  12
BRANCH   9  22
ATOM     22  O   LIG A   1      -9.069   2.614 133.408  0.00  0.00    -0.491 OA
ATOM     23  C   LIG A   1      -7.921   3.271 133.817  0.00  0.00    +0.277 C 
ENDBRANCH   9  22
BRANCH  10  24
ATOM     24  O   LIG A   1      -9.400   4.356 130.746  0.00  0.00    -0.488 OA
ATOM     25  C   LIG A   1     -10.666   5.015 130.492  0.00  0.00    +0.277 C 
ENDBRANCH  10  24
BRANCH  11  26
ATOM     26  O   LIG A   1      -8.889   2.834 128.368  0.00  0.00    -0.488 OA
ATOM     27  C   LIG A   1      -7.792   3.627 127.930  0.00  0.00    +0.277 C 
ENDBRANCH  11  26
TORSDOF 6
ENDMDL
MODEL 9
REMARK VINA RESULT:      -6.4      6.528      8.704
REMARK  Name = NuBBE_1221
REMARK  11 active torsions:
REMARK  status: ('A' for Active; 'I' for Inactive)
REMARK    1  A    between atoms: C_4  and  C_18
REMARK    2  A    between atoms: C_9  and  O_10
REMARK    3  A    between atoms: O_10  and  C_11
REMARK    4  A    between atoms: C_12  and  O_13
REMARK    5  A    between atoms: O_13  and  C_14
REMARK    6  A    between atoms: C_15  and  O_16
REMARK    7  A    between atoms: O_16  and  C_17
REMARK    8  A    between atoms: C_21  and  O_26
REMARK    9  A    between atoms: C_22  and  O_23
REMARK   10  A    between atoms: O_23  and  C_24
REMARK   11  A    between atoms: O_26  and  C_27
REMARK                            x       y       z     vdW  Elec       q    Type
REMARK                         _______ _______ _______ _____ _____    ______ ____
ROOT
ATOM      1  O   LIG A   1      -7.892  -0.558 132.879  0.00  0.00    -0.287 OA
ATOM      2  C   LIG A   1      -7.395  -1.223 132.040  0.00  0.00    +0.193 A 
ATOM      3  C   LIG A   1      -7.982  -1.335 130.696  0.00  0.00    +0.098 A 
ATOM      4  C   LIG A   1      -7.384  -2.094 129.774  0.00  0.00    +0.140 A 
ATOM      5  O   LIG A   1      -6.198  -2.814 129.974  0.00  0.00    -0.451 OA
ATOM      6  C   LIG A   1      -5.577  -2.746 131.210  0.00  0.00    +0.184 A 
ATOM      7  C   LIG A   1      -6.154  -2.007 132.232  0.00  0.00    +0.071 A 
ATOM      8  C   LIG A   1      -5.591  -1.987 133.487  0.00  0.00    +0.065 A 
ATOM      9  C   LIG A   1      -4.457  -2.753 133.779  0.00  0.00    +0.166 A 
ATOM     10  C   LIG A   1      -3.753  -3.466 132.750  0.00  0.00    +0.207 A 
ATOM     11  C   LIG A   1      -4.359  -3.455 131.444  0.00  0.00    +0.209 A 
ENDROOT
BRANCH   4  12
ATOM     12  C   LIG A   1      -7.979  -2.234 128.430  0.00  0.00    +0.021 A 
ATOM     13  C   LIG A   1      -8.597  -3.415 128.027  0.00  0.00    +0.015 A 
ATOM     14  C   LIG A   1      -9.144  -3.529 126.745  0.00  0.00    +0.050 A 
ATOM     15  C   LIG A   1      -9.110  -2.448 125.853  0.00  0.00    +0.162 A 
ATOM     16  C   LIG A   1      -8.518  -1.239 126.257  0.00  0.00    +0.162 A 
ATOM     17  C   LIG A   1      -7.927  -1.170 127.521  0.00  0.00    +0.061 A 
BRANCH  16  18
ATOM     18  O   LIG A   1      -8.512  -0.159 125.403  0.00  0.00    -0.491 OA
ATOM     19  C   LIG A   1      -9.494   0.846 125.688  0.00  0.00    +0.277 C 
ENDBRANCH  16  18
BRANCH  15  20
ATOM     20  O   LIG A   1      -9.590  -2.533 124.570  0.00  0.00    -0.491 OA
ATOM     21  C   LIG A   1      -8.760  -3.244 123.654  0.00  0.00    +0.277 C 
ENDBRANCH  15  20
ENDBRANCH   4  12
BRANCH   9  22
ATOM     22  O   LIG A   1      -4.274  -2.682 135.153  0.00  0.00    -0.491 OA
ATOM     23  C   LIG A   1      -5.211  -3.448 135.826  0.00  0.00    +0.277 C 
ENDBRANCH   9  22
BRANCH  10  24
ATOM     24  O   LIG A   1      -2.677  -4.336 132.929  0.00  0.00    -0.488 OA
ATOM     25  C   LIG A   1      -2.603  -5.504 133.785  0.00  0.00    +0.277 C 
ENDBRANCH  10  24
BRANCH  11  26
ATOM     26  O   LIG A   1      -3.834  -4.064 130.318  0.00  0.00    -0.488 OA
ATOM     27  C   LIG A   1      -3.008  -3.255 129.489  0.00  0.00    +0.277 C 
ENDBRANCH  11  26
TORSDOF 6
ENDMDL
