MODEL 1
REMARK VINA RESULT:      -9.0      0.000      0.000
REMARK  Name = NuBBE_1431
REMARK  9 active torsions:
REMARK  status: ('A' for Active; 'I' for Inactive)
REMARK    1  A    between atoms: O_1  and  C_2
REMARK    2  A    between atoms: C_6  and  C_7
REMARK    3  A    between atoms: C_15  and  C_16
REMARK    4  A    between atoms: C_17  and  C_18
REMARK    5  A    between atoms: C_21  and  C_22
REMARK    6  A    between atoms: C_25  and  C_26
REMARK    7  A    between atoms: C_25  and  C_27
REMARK    8  A    between atoms: C_30  and  C_31
REMARK    9  A    between atoms: C_30  and  C_32
REMARK                            x       y       z     vdW  Elec       q    Type
REMARK                         _______ _______ _______ _____ _____    ______ ____
ROOT
ATOM      1  C   LIG A   1      -8.353  -0.438 123.799  0.00  0.00    +0.121 C 
ATOM      2  C   LIG A   1      -6.821  -0.605 123.574  0.00  0.00    +0.032 C 
ATOM      3  C   LIG A   1      -6.101  -1.110 124.803  0.00  0.00    +0.013 C 
ATOM      4  C   LIG A   1      -6.727  -2.411 125.387  0.00  0.00    -0.007 C 
ATOM      5  C   LIG A   1      -6.117  -3.639 124.686  0.00  0.00    +0.016 C 
ATOM      6  C   LIG A   1      -8.284  -2.320 125.267  0.00  0.00    +0.007 C 
ATOM      7  C   LIG A   1      -8.955  -3.408 126.152  0.00  0.00    +0.009 C 
ATOM      8  C   LIG A   1      -8.638  -3.117 127.582  0.00  0.00    +0.031 C 
ATOM      9  C   LIG A   1      -7.217  -2.820 127.895  0.00  0.00    -0.063 C 
ATOM     10  C   LIG A   1      -6.283  -2.518 126.869  0.00  0.00    -0.064 C 
ATOM     11  C   LIG A   1      -4.849  -2.245 127.142  0.00  0.00    +0.032 C 
ATOM     12  C   LIG A   1      -4.515  -1.563 128.473  0.00  0.00    +0.012 C 
ATOM     13  C   LIG A   1      -5.039  -2.458 129.637  0.00  0.00    -0.019 C 
ATOM     14  C   LIG A   1      -3.924  -3.663 129.434  0.00  0.00    +0.012 C 
ATOM     15  C   LIG A   1      -6.916  -2.532 129.335  0.00  0.00    -0.005 C 
ATOM     16  C   LIG A   1      -8.010  -1.171 129.408  0.00  0.00    +0.016 C 
ATOM     17  C   LIG A   1      -7.807  -3.288 130.453  0.00  0.00    +0.012 C 
ATOM     18  C   LIG A   1      -7.431  -2.747 131.833  0.00  0.00    +0.008 C 
ATOM     19  C   LIG A   1      -5.983  -2.289 131.860  0.00  0.00    -0.029 C 
ATOM     20  C   LIG A   1      -5.671  -4.052 131.587  0.00  0.00    +0.011 C 
ATOM     21  C   LIG A   1      -4.608  -2.146 131.356  0.00  0.00    +0.002 C 
ATOM     22  C   LIG A   1      -4.173  -0.817 132.323  0.00  0.00    +0.011 C 
ATOM     23  C   LIG A   1      -5.463   0.222 133.104  0.00  0.00    -0.035 C 
ATOM     24  C   LIG A   1      -5.417  -0.704 134.343  0.00  0.00    +0.011 C 
ATOM     25  C   LIG A   1      -7.137   0.306 133.269  0.00  0.00    +0.011 C 
ATOM     26  C   LIG A   1      -5.780   0.631 131.683  0.00  0.00    +0.007 C 
ATOM     27  C   LIG A   1      -5.947  -0.652 130.926  0.00  0.00    +0.007 C 
ATOM     28  C   LIG A   1      -9.089  -1.866 123.904  0.00  0.00    -0.005 C 
ATOM     29  C   LIG A   1      -9.711  -3.287 123.596  0.00  0.00    +0.014 C 
ATOM     30  C   LIG A   1      -8.885  -1.902 122.236  0.00  0.00    +0.014 C 
ENDROOT
BRANCH   1  31
ATOM     31  O   LIG A   1      -8.621   0.422 124.927  0.00  0.00    -0.391 OA
ATOM     32  H   LIG A   1      -8.088   1.232 124.881  0.00  0.00    +0.210 HD
ENDBRANCH   1  31
TORSDOF 1
ENDMDL
MODEL 2
REMARK VINA RESULT:      -8.9      1.726      3.700
REMARK  Name = NuBBE_1431
REMARK  9 active torsions:
REMARK  status: ('A' for Active; 'I' for Inactive)
REMARK    1  A    between atoms: O_1  and  C_2
REMARK    2  A    between atoms: C_6  and  C_7
REMARK    3  A    between atoms: C_15  and  C_16
REMARK    4  A    between atoms: C_17  and  C_18
REMARK    5  A    between atoms: C_21  and  C_22
REMARK    6  A    between atoms: C_25  and  C_26
REMARK    7  A    between atoms: C_25  and  C_27
REMARK    8  A    between atoms: C_30  and  C_31
REMARK    9  A    between atoms: C_30  and  C_32
REMARK                            x       y       z     vdW  Elec       q    Type
REMARK                         _______ _______ _______ _____ _____    ______ ____
ROOT
ATOM      1  C   LIG A   1      -7.373  -3.537 123.953  0.00  0.00    +0.121 C 
ATOM      2  C   LIG A   1      -8.790  -3.517 124.599  0.00  0.00    +0.032 C 
ATOM      3  C   LIG A   1      -8.763  -3.115 126.055  0.00  0.00    +0.013 C 
ATOM      4  C   LIG A   1      -8.014  -1.772 126.304  0.00  0.00    -0.007 C 
ATOM      5  C   LIG A   1      -8.992  -0.595 126.133  0.00  0.00    +0.016 C 
ATOM      6  C   LIG A   1      -6.769  -1.705 125.360  0.00  0.00    +0.007 C 
ATOM      7  C   LIG A   1      -5.804  -0.577 125.823  0.00  0.00    +0.009 C 
ATOM      8  C   LIG A   1      -5.275  -0.931 127.173  0.00  0.00    +0.031 C 
ATOM      9  C   LIG A   1      -6.274  -1.374 128.178  0.00  0.00    -0.063 C 
ATOM     10  C   LIG A   1      -7.591  -1.743 127.796  0.00  0.00    -0.064 C 
ATOM     11  C   LIG A   1      -8.625  -2.163 128.776  0.00  0.00    +0.032 C 
ATOM     12  C   LIG A   1      -8.135  -2.905 130.024  0.00  0.00    +0.012 C 
ATOM     13  C   LIG A   1      -7.128  -1.990 130.786  0.00  0.00    -0.019 C 
ATOM     14  C   LIG A   1      -8.257  -0.897 131.302  0.00  0.00    +0.012 C 
ATOM     15  C   LIG A   1      -5.725  -1.723 129.528  0.00  0.00    -0.005 C 
ATOM     16  C   LIG A   1      -4.673  -2.971 128.902  0.00  0.00    +0.016 C 
ATOM     17  C   LIG A   1      -4.426  -0.910 130.044  0.00  0.00    +0.012 C 
ATOM     18  C   LIG A   1      -3.956  -1.516 131.366  0.00  0.00    +0.008 C 
ATOM     19  C   LIG A   1      -5.121  -2.116 132.133  0.00  0.00    -0.029 C 
ATOM     20  C   LIG A   1      -5.655  -0.387 132.201  0.00  0.00    +0.011 C 
ATOM     21  C   LIG A   1      -6.535  -2.382 132.438  0.00  0.00    +0.002 C 
ATOM     22  C   LIG A   1      -6.282  -3.770 133.388  0.00  0.00    +0.011 C 
ATOM     23  C   LIG A   1      -4.705  -4.694 133.276  0.00  0.00    -0.035 C 
ATOM     24  C   LIG A   1      -4.137  -3.806 134.408  0.00  0.00    +0.011 C 
ATOM     25  C   LIG A   1      -3.208  -4.615 132.508  0.00  0.00    +0.011 C 
ATOM     26  C   LIG A   1      -5.181  -5.037 131.881  0.00  0.00    +0.007 C 
ATOM     27  C   LIG A   1      -5.542  -3.726 131.249  0.00  0.00    +0.007 C 
ATOM     28  C   LIG A   1      -6.801  -2.046 123.750  0.00  0.00    -0.005 C 
ATOM     29  C   LIG A   1      -6.547  -0.563 123.260  0.00  0.00    +0.014 C 
ATOM     30  C   LIG A   1      -7.878  -1.992 122.460  0.00  0.00    +0.014 C 
ENDROOT
BRANCH   1  31
ATOM     31  O   LIG A   1      -6.477  -4.392 124.693  0.00  0.00    -0.391 OA
ATOM     32  H   LIG A   1      -5.734  -3.884 125.059  0.00  0.00    +0.210 HD
ENDBRANCH   1  31
TORSDOF 1
ENDMDL
MODEL 3
REMARK VINA RESULT:      -8.8      3.189      7.416
REMARK  Name = NuBBE_1431
REMARK  9 active torsions:
REMARK  status: ('A' for Active; 'I' for Inactive)
REMARK    1  A    between atoms: O_1  and  C_2
REMARK    2  A    between atoms: C_6  and  C_7
REMARK    3  A    between atoms: C_15  and  C_16
REMARK    4  A    between atoms: C_17  and  C_18
REMARK    5  A    between atoms: C_21  and  C_22
REMARK    6  A    between atoms: C_25  and  C_26
REMARK    7  A    between atoms: C_25  and  C_27
REMARK    8  A    between atoms: C_30  and  C_31
REMARK    9  A    between atoms: C_30  and  C_32
REMARK                            x       y       z     vdW  Elec       q    Type
REMARK                         _______ _______ _______ _____ _____    ______ ____
ROOT
ATOM      1  C   LIG A   1      -8.914   5.271 130.375  0.00  0.00    +0.121 C 
ATOM      2  C   LIG A   1      -9.309   4.278 131.507  0.00  0.00    +0.032 C 
ATOM      3  C   LIG A   1      -8.869   2.860 131.221  0.00  0.00    +0.013 C 
ATOM      4  C   LIG A   1      -7.354   2.747 130.880  0.00  0.00    -0.007 C 
ATOM      5  C   LIG A   1      -6.540   2.598 132.179  0.00  0.00    +0.016 C 
ATOM      6  C   LIG A   1      -6.939   3.979 130.009  0.00  0.00    +0.007 C 
ATOM      7  C   LIG A   1      -5.555   3.727 129.348  0.00  0.00    +0.009 C 
ATOM      8  C   LIG A   1      -5.684   2.581 128.400  0.00  0.00    +0.031 C 
ATOM      9  C   LIG A   1      -6.379   1.374 128.915  0.00  0.00    -0.063 C 
ATOM     10  C   LIG A   1      -7.147   1.418 130.108  0.00  0.00    -0.064 C 
ATOM     11  C   LIG A   1      -7.831   0.225 130.668  0.00  0.00    +0.032 C 
ATOM     12  C   LIG A   1      -8.346  -0.813 129.665  0.00  0.00    +0.012 C 
ATOM     13  C   LIG A   1      -7.141  -1.331 128.822  0.00  0.00    -0.019 C 
ATOM     14  C   LIG A   1      -6.431  -2.179 130.052  0.00  0.00    +0.012 C 
ATOM     15  C   LIG A   1      -6.497   0.233 127.950  0.00  0.00    -0.005 C 
ATOM     16  C   LIG A   1      -7.381   1.174 126.772  0.00  0.00    +0.016 C 
ATOM     17  C   LIG A   1      -5.308   0.033 126.874  0.00  0.00    +0.012 C 
ATOM     18  C   LIG A   1      -5.696  -1.088 125.909  0.00  0.00    +0.008 C 
ATOM     19  C   LIG A   1      -6.599  -2.101 126.591  0.00  0.00    -0.029 C 
ATOM     20  C   LIG A   1      -5.116  -2.393 127.589  0.00  0.00    +0.011 C 
ATOM     21  C   LIG A   1      -7.277  -2.750 127.724  0.00  0.00    +0.002 C 
ATOM     22  C   LIG A   1      -8.487  -3.529 126.819  0.00  0.00    +0.011 C 
ATOM     23  C   LIG A   1      -8.886  -2.963 125.124  0.00  0.00    -0.035 C 
ATOM     24  C   LIG A   1      -7.828  -3.952 124.576  0.00  0.00    +0.011 C 
ATOM     25  C   LIG A   1      -8.376  -1.836 123.979  0.00  0.00    +0.011 C 
ATOM     26  C   LIG A   1      -9.404  -1.725 125.822  0.00  0.00    +0.007 C 
ATOM     27  C   LIG A   1      -8.289  -1.277 126.718  0.00  0.00    +0.007 C 
ATOM     28  C   LIG A   1      -7.327   5.540 130.359  0.00  0.00    -0.005 C 
ATOM     29  C   LIG A   1      -5.855   6.004 130.708  0.00  0.00    +0.014 C 
ATOM     30  C   LIG A   1      -7.649   6.500 131.701  0.00  0.00    +0.014 C 
ENDROOT
BRANCH   1  31
ATOM     31  O   LIG A   1      -9.427   4.834 129.099  0.00  0.00    -0.391 OA
ATOM     32  H   LIG A   1      -9.269   3.885 128.966  0.00  0.00    +0.210 HD
ENDBRANCH   1  31
TORSDOF 1
ENDMDL
MODEL 4
REMARK VINA RESULT:      -8.6      3.773      5.167
REMARK  Name = NuBBE_1431
REMARK  9 active torsions:
REMARK  status: ('A' for Active; 'I' for Inactive)
REMARK    1  A    between atoms: O_1  and  C_2
REMARK    2  A    between atoms: C_6  and  C_7
REMARK    3  A    between atoms: C_15  and  C_16
REMARK    4  A    between atoms: C_17  and  C_18
REMARK    5  A    between atoms: C_21  and  C_22
REMARK    6  A    between atoms: C_25  and  C_26
REMARK    7  A    between atoms: C_25  and  C_27
REMARK    8  A    between atoms: C_30  and  C_31
REMARK    9  A    between atoms: C_30  and  C_32
REMARK                            x       y       z     vdW  Elec       q    Type
REMARK                         _______ _______ _______ _____ _____    ______ ____
ROOT
ATOM      1  C   LIG A   1      -7.108   3.809 124.130  0.00  0.00    +0.121 C 
ATOM      2  C   LIG A   1      -5.588   3.743 124.460  0.00  0.00    +0.032 C 
ATOM      3  C   LIG A   1      -5.318   3.440 125.916  0.00  0.00    +0.013 C 
ATOM      4  C   LIG A   1      -6.057   2.167 126.422  0.00  0.00    -0.007 C 
ATOM      5  C   LIG A   1      -5.196   0.921 126.140  0.00  0.00    +0.016 C 
ATOM      6  C   LIG A   1      -7.479   2.116 125.773  0.00  0.00    +0.007 C 
ATOM      7  C   LIG A   1      -8.373   1.084 126.517  0.00  0.00    +0.009 C 
ATOM      8  C   LIG A   1      -8.580   1.559 127.916  0.00  0.00    +0.031 C 
ATOM      9  C   LIG A   1      -7.367   2.004 128.648  0.00  0.00    -0.063 C 
ATOM     10  C   LIG A   1      -6.148   2.263 127.967  0.00  0.00    -0.064 C 
ATOM     11  C   LIG A   1      -4.908   2.681 128.670  0.00  0.00    +0.032 C 
ATOM     12  C   LIG A   1      -5.081   3.534 129.931  0.00  0.00    +0.012 C 
ATOM     13  C   LIG A   1      -5.940   2.736 130.959  0.00  0.00    -0.019 C 
ATOM     14  C   LIG A   1      -4.779   1.611 131.307  0.00  0.00    +0.012 C 
ATOM     15  C   LIG A   1      -7.594   2.475 130.053  0.00  0.00    -0.005 C 
ATOM     16  C   LIG A   1      -8.696   3.742 129.570  0.00  0.00    +0.016 C 
ATOM     17  C   LIG A   1      -8.787   1.781 130.895  0.00  0.00    +0.012 C 
ATOM     18  C   LIG A   1      -8.931   2.502 132.236  0.00  0.00    +0.008 C 
ATOM     19  C   LIG A   1      -7.600   3.076 132.688  0.00  0.00    -0.029 C 
ATOM     20  C   LIG A   1      -7.146   1.326 132.775  0.00  0.00    +0.011 C 
ATOM     21  C   LIG A   1      -6.142   3.273 132.664  0.00  0.00    +0.002 C 
ATOM     22  C   LIG A   1      -6.118   4.734 133.534  0.00  0.00    +0.011 C 
ATOM     23  C   LIG A   1      -7.636   5.746 133.688  0.00  0.00    -0.035 C 
ATOM     24  C   LIG A   1      -7.987   4.972 134.981  0.00  0.00    +0.011 C 
ATOM     25  C   LIG A   1      -9.267   5.711 133.264  0.00  0.00    +0.011 C 
ATOM     26  C   LIG A   1      -7.459   5.965 132.201  0.00  0.00    +0.007 C 
ATOM     27  C   LIG A   1      -7.305   4.595 131.612  0.00  0.00    +0.007 C 
ATOM     28  C   LIG A   1      -7.780   2.347 124.171  0.00  0.00    -0.005 C 
ATOM     29  C   LIG A   1      -8.204   0.854 123.863  0.00  0.00    +0.014 C 
ATOM     30  C   LIG A   1      -7.012   2.140 122.690  0.00  0.00    +0.014 C 
ENDROOT
BRANCH   1  31
ATOM     31  O   LIG A   1      -7.781   4.766 124.975  0.00  0.00    -0.391 OA
ATOM     32  H   LIG A   1      -7.198   5.072 125.688  0.00  0.00    +0.210 HD
ENDBRANCH   1  31
TORSDOF 1
ENDMDL
MODEL 5
REMARK VINA RESULT:      -8.6      3.059      4.181
REMARK  Name = NuBBE_1431
REMARK  9 active torsions:
REMARK  status: ('A' for Active; 'I' for Inactive)
REMARK    1  A    between atoms: O_1  and  C_2
REMARK    2  A    between atoms: C_6  and  C_7
REMARK    3  A    between atoms: C_15  and  C_16
REMARK    4  A    between atoms: C_17  and  C_18
REMARK    5  A    between atoms: C_21  and  C_22
REMARK    6  A    between atoms: C_25  and  C_26
REMARK    7  A    between atoms: C_25  and  C_27
REMARK    8  A    between atoms: C_30  and  C_31
REMARK    9  A    between atoms: C_30  and  C_32
REMARK                            x       y       z     vdW  Elec       q    Type
REMARK                         _______ _______ _______ _____ _____    ______ ____
ROOT
ATOM      1  C   LIG A   1      -9.040  -0.845 123.910  0.00  0.00    +0.121 C 
ATOM      2  C   LIG A   1      -7.741  -0.198 123.345  0.00  0.00    +0.032 C 
ATOM      3  C   LIG A   1      -6.911   0.476 124.413  0.00  0.00    +0.013 C 
ATOM      4  C   LIG A   1      -6.593  -0.457 125.619  0.00  0.00    -0.007 C 
ATOM      5  C   LIG A   1      -5.318  -1.268 125.324  0.00  0.00    +0.016 C 
ATOM      6  C   LIG A   1      -7.850  -1.338 125.921  0.00  0.00    +0.007 C 
ATOM      7  C   LIG A   1      -7.713  -2.007 127.318  0.00  0.00    +0.009 C 
ATOM      8  C   LIG A   1      -7.705  -0.936 128.357  0.00  0.00    +0.031 C 
ATOM      9  C   LIG A   1      -6.806   0.219 128.108  0.00  0.00    -0.063 C 
ATOM     10  C   LIG A   1      -6.237   0.447 126.827  0.00  0.00    -0.064 C 
ATOM     11  C   LIG A   1      -5.311   1.575 126.549  0.00  0.00    +0.032 C 
ATOM     12  C   LIG A   1      -5.534   2.866 127.342  0.00  0.00    +0.012 C 
ATOM     13  C   LIG A   1      -5.417   2.544 128.863  0.00  0.00    -0.019 C 
ATOM     14  C   LIG A   1      -3.784   2.278 128.849  0.00  0.00    +0.012 C 
ATOM     15  C   LIG A   1      -6.810   1.283 129.163  0.00  0.00    -0.005 C 
ATOM     16  C   LIG A   1      -8.520   1.602 128.995  0.00  0.00    +0.016 C 
ATOM     17  C   LIG A   1      -7.062   0.823 130.693  0.00  0.00    +0.012 C 
ATOM     18  C   LIG A   1      -7.165   2.069 131.573  0.00  0.00    +0.008 C 
ATOM     19  C   LIG A   1      -6.336   3.207 131.003  0.00  0.00    -0.029 C 
ATOM     20  C   LIG A   1      -4.969   2.081 131.379  0.00  0.00    +0.011 C 
ATOM     21  C   LIG A   1      -5.345   3.835 130.115  0.00  0.00    +0.002 C 
ATOM     22  C   LIG A   1      -5.886   5.435 130.304  0.00  0.00    +0.011 C 
ATOM     23  C   LIG A   1      -7.570   5.776 130.938  0.00  0.00    -0.035 C 
ATOM     24  C   LIG A   1      -6.995   5.792 132.374  0.00  0.00    +0.011 C 
ATOM     25  C   LIG A   1      -8.924   4.962 131.524  0.00  0.00    +0.011 C 
ATOM     26  C   LIG A   1      -8.022   5.173 129.626  0.00  0.00    +0.007 C 
ATOM     27  C   LIG A   1      -7.310   3.857 129.525  0.00  0.00    +0.007 C 
ATOM     28  C   LIG A   1      -8.709  -2.158 124.781  0.00  0.00    -0.005 C 
ATOM     29  C   LIG A   1      -8.279  -3.605 125.256  0.00  0.00    +0.014 C 
ATOM     30  C   LIG A   1      -8.466  -2.881 123.282  0.00  0.00    +0.014 C 
ENDROOT
BRANCH   1  31
ATOM     31  O   LIG A   1      -9.834   0.124 124.627  0.00  0.00    -0.391 OA
ATOM     32  H   LIG A   1      -9.289   0.873 124.920  0.00  0.00    +0.210 HD
ENDBRANCH   1  31
TORSDOF 1
ENDMDL
MODEL 6
REMARK VINA RESULT:      -8.6      2.156      7.379
REMARK  Name = NuBBE_1431
REMARK  9 active torsions:
REMARK  status: ('A' for Active; 'I' for Inactive)
REMARK    1  A    between atoms: O_1  and  C_2
REMARK    2  A    between atoms: C_6  and  C_7
REMARK    3  A    between atoms: C_15  and  C_16
REMARK    4  A    between atoms: C_17  and  C_18
REMARK    5  A    between atoms: C_21  and  C_22
REMARK    6  A    between atoms: C_25  and  C_26
REMARK    7  A    between atoms: C_25  and  C_27
REMARK    8  A    between atoms: C_30  and  C_31
REMARK    9  A    between atoms: C_30  and  C_32
REMARK                            x       y       z     vdW  Elec       q    Type
REMARK                         _______ _______ _______ _____ _____    ______ ____
ROOT
ATOM      1  C   LIG A   1      -6.456  -1.862 133.074  0.00  0.00    +0.121 C 
ATOM      2  C   LIG A   1      -7.385  -3.052 132.695  0.00  0.00    +0.032 C 
ATOM      3  C   LIG A   1      -7.606  -3.169 131.204  0.00  0.00    +0.013 C 
ATOM      4  C   LIG A   1      -6.278  -3.213 130.392  0.00  0.00    -0.007 C 
ATOM      5  C   LIG A   1      -5.775  -4.666 130.299  0.00  0.00    +0.016 C 
ATOM      6  C   LIG A   1      -5.254  -2.227 131.044  0.00  0.00    +0.007 C 
ATOM      7  C   LIG A   1      -4.068  -1.965 130.073  0.00  0.00    +0.009 C 
ATOM      8  C   LIG A   1      -4.593  -1.267 128.862  0.00  0.00    +0.031 C 
ATOM      9  C   LIG A   1      -5.814  -1.845 128.245  0.00  0.00    -0.063 C 
ATOM     10  C   LIG A   1      -6.609  -2.797 128.935  0.00  0.00    -0.064 C 
ATOM     11  C   LIG A   1      -7.819  -3.417 128.337  0.00  0.00    +0.032 C 
ATOM     12  C   LIG A   1      -8.629  -2.557 127.362  0.00  0.00    +0.012 C 
ATOM     13  C   LIG A   1      -7.702  -2.135 126.181  0.00  0.00    -0.019 C 
ATOM     14  C   LIG A   1      -7.600  -3.641 125.505  0.00  0.00    +0.012 C 
ATOM     15  C   LIG A   1      -6.324  -1.132 127.029  0.00  0.00    -0.005 C 
ATOM     16  C   LIG A   1      -6.545   0.383 127.872  0.00  0.00    +0.016 C 
ATOM     17  C   LIG A   1      -5.240  -0.420 126.064  0.00  0.00    +0.012 C 
ATOM     18  C   LIG A   1      -5.981   0.358 124.976  0.00  0.00    +0.008 C 
ATOM     19  C   LIG A   1      -7.316  -0.292 124.659  0.00  0.00    -0.029 C 
ATOM     20  C   LIG A   1      -6.252  -1.640 124.085  0.00  0.00    +0.011 C 
ATOM     21  C   LIG A   1      -8.340  -1.348 124.694  0.00  0.00    +0.002 C 
ATOM     22  C   LIG A   1      -9.659  -0.370 124.255  0.00  0.00    +0.011 C 
ATOM     23  C   LIG A   1      -9.560   1.451 124.428  0.00  0.00    -0.035 C 
ATOM     24  C   LIG A   1      -9.011   1.529 122.983  0.00  0.00    +0.011 C 
ATOM     25  C   LIG A   1      -8.468   2.654 124.873  0.00  0.00    +0.011 C 
ATOM     26  C   LIG A   1      -9.537   1.157 125.912  0.00  0.00    +0.007 C 
ATOM     27  C   LIG A   1      -8.451   0.141 126.100  0.00  0.00    +0.007 C 
ATOM     28  C   LIG A   1      -4.929  -2.154 132.656  0.00  0.00    -0.005 C 
ATOM     29  C   LIG A   1      -3.457  -2.727 132.557  0.00  0.00    +0.014 C 
ATOM     30  C   LIG A   1      -4.933  -3.162 134.002  0.00  0.00    +0.014 C 
ENDROOT
BRANCH   1  31
ATOM     31  O   LIG A   1      -6.961  -0.619 132.543  0.00  0.00    -0.391 OA
ATOM     32  H   LIG A   1      -6.242   0.021 132.409  0.00  0.00    +0.210 HD
ENDBRANCH   1  31
TORSDOF 1
ENDMDL
MODEL 7
REMARK VINA RESULT:      -8.5      4.542      8.943
REMARK  Name = NuBBE_1431
REMARK  9 active torsions:
REMARK  status: ('A' for Active; 'I' for Inactive)
REMARK    1  A    between atoms: O_1  and  C_2
REMARK    2  A    between atoms: C_6  and  C_7
REMARK    3  A    between atoms: C_15  and  C_16
REMARK    4  A    between atoms: C_17  and  C_18
REMARK    5  A    between atoms: C_21  and  C_22
REMARK    6  A    between atoms: C_25  and  C_26
REMARK    7  A    between atoms: C_25  and  C_27
REMARK    8  A    between atoms: C_30  and  C_31
REMARK    9  A    between atoms: C_30  and  C_32
REMARK                            x       y       z     vdW  Elec       q    Type
REMARK                         _______ _______ _______ _____ _____    ______ ____
ROOT
ATOM      1  C   LIG A   1      -4.219   7.505 130.277  0.00  0.00    +0.121 C 
ATOM      2  C   LIG A   1      -5.519   7.246 131.093  0.00  0.00    +0.032 C 
ATOM      3  C   LIG A   1      -6.225   5.976 130.679  0.00  0.00    +0.013 C 
ATOM      4  C   LIG A   1      -5.295   4.727 130.695  0.00  0.00    -0.007 C 
ATOM      5  C   LIG A   1      -5.285   4.107 132.104  0.00  0.00    +0.016 C 
ATOM      6  C   LIG A   1      -3.880   5.144 130.175  0.00  0.00    +0.007 C 
ATOM      7  C   LIG A   1      -3.041   3.881 129.830  0.00  0.00    +0.009 C 
ATOM      8  C   LIG A   1      -3.700   3.170 128.695  0.00  0.00    +0.031 C 
ATOM      9  C   LIG A   1      -5.165   2.956 128.812  0.00  0.00    -0.063 C 
ATOM     10  C   LIG A   1      -5.938   3.655 129.777  0.00  0.00    -0.064 C 
ATOM     11  C   LIG A   1      -7.399   3.444 129.942  0.00  0.00    +0.032 C 
ATOM     12  C   LIG A   1      -8.194   3.091 128.681  0.00  0.00    +0.012 C 
ATOM     13  C   LIG A   1      -7.610   1.780 128.073  0.00  0.00    -0.019 C 
ATOM     14  C   LIG A   1      -8.163   0.782 129.272  0.00  0.00    +0.012 C 
ATOM     15  C   LIG A   1      -5.809   2.239 127.665  0.00  0.00    -0.005 C 
ATOM     16  C   LIG A   1      -5.308   3.432 126.491  0.00  0.00    +0.016 C 
ATOM     17  C   LIG A   1      -4.931   1.127 126.885  0.00  0.00    +0.012 C 
ATOM     18  C   LIG A   1      -5.724   0.628 125.677  0.00  0.00    +0.008 C 
ATOM     19  C   LIG A   1      -7.218   0.708 125.938  0.00  0.00    -0.029 C 
ATOM     20  C   LIG A   1      -6.823  -0.534 127.195  0.00  0.00    +0.011 C 
ATOM     21  C   LIG A   1      -8.434   0.886 126.747  0.00  0.00    +0.002 C 
ATOM     22  C   LIG A   1      -9.487   1.237 125.458  0.00  0.00    +0.011 C 
ATOM     23  C   LIG A   1      -8.823   1.782 123.841  0.00  0.00    -0.035 C 
ATOM     24  C   LIG A   1      -8.762   0.300 123.399  0.00  0.00    +0.011 C 
ATOM     25  C   LIG A   1      -7.350   2.040 123.064  0.00  0.00    +0.011 C 
ATOM     26  C   LIG A   1      -8.415   3.027 124.599  0.00  0.00    +0.007 C 
ATOM     27  C   LIG A   1      -7.664   2.535 125.799  0.00  0.00    +0.007 C 
ATOM     28  C   LIG A   1      -3.054   6.473 130.687  0.00  0.00    -0.005 C 
ATOM     29  C   LIG A   1      -1.918   5.679 131.451  0.00  0.00    +0.014 C 
ATOM     30  C   LIG A   1      -2.918   7.435 132.059  0.00  0.00    +0.014 C 
ENDROOT
BRANCH   1  31
ATOM     31  O   LIG A   1      -4.489   7.520 128.859  0.00  0.00    -0.391 OA
ATOM     32  H   LIG A   1      -5.409   7.780 128.683  0.00  0.00    +0.210 HD
ENDBRANCH   1  31
TORSDOF 1
ENDMDL
MODEL 8
REMARK VINA RESULT:      -8.5      3.206      8.006
REMARK  Name = NuBBE_1431
REMARK  9 active torsions:
REMARK  status: ('A' for Active; 'I' for Inactive)
REMARK    1  A    between atoms: O_1  and  C_2
REMARK    2  A    between atoms: C_6  and  C_7
REMARK    3  A    between atoms: C_15  and  C_16
REMARK    4  A    between atoms: C_17  and  C_18
REMARK    5  A    between atoms: C_21  and  C_22
REMARK    6  A    between atoms: C_25  and  C_26
REMARK    7  A    between atoms: C_25  and  C_27
REMARK    8  A    between atoms: C_30  and  C_31
REMARK    9  A    between atoms: C_30  and  C_32
REMARK                            x       y       z     vdW  Elec       q    Type
REMARK                         _______ _______ _______ _____ _____    ______ ____
ROOT
ATOM      1  C   LIG A   1      -5.166   1.843 132.074  0.00  0.00    +0.121 C 
ATOM      2  C   LIG A   1      -4.036   2.452 131.193  0.00  0.00    +0.032 C 
ATOM      3  C   LIG A   1      -4.360   2.415 129.718  0.00  0.00    +0.013 C 
ATOM      4  C   LIG A   1      -5.740   3.052 129.379  0.00  0.00    -0.007 C 
ATOM      5  C   LIG A   1      -5.573   4.568 129.170  0.00  0.00    +0.016 C 
ATOM      6  C   LIG A   1      -6.760   2.675 130.503  0.00  0.00    +0.007 C 
ATOM      7  C   LIG A   1      -8.212   2.971 130.032  0.00  0.00    +0.009 C 
ATOM      8  C   LIG A   1      -8.527   2.078 128.878  0.00  0.00    +0.031 C 
ATOM      9  C   LIG A   1      -7.505   2.004 127.803  0.00  0.00    -0.063 C 
ATOM     10  C   LIG A   1      -6.187   2.492 128.003  0.00  0.00    -0.064 C 
ATOM     11  C   LIG A   1      -5.148   2.461 126.942  0.00  0.00    +0.032 C 
ATOM     12  C   LIG A   1      -5.209   1.298 125.947  0.00  0.00    +0.012 C 
ATOM     13  C   LIG A   1      -6.594   1.326 125.230  0.00  0.00    -0.019 C 
ATOM     14  C   LIG A   1      -6.291   2.689 124.342  0.00  0.00    +0.012 C 
ATOM     15  C   LIG A   1      -7.839   1.104 126.651  0.00  0.00    -0.005 C 
ATOM     16  C   LIG A   1      -7.986  -0.317 127.658  0.00  0.00    +0.016 C 
ATOM     17  C   LIG A   1      -9.396   0.955 126.242  0.00  0.00    +0.012 C 
ATOM     18  C   LIG A   1      -9.521  -0.106 125.148  0.00  0.00    +0.008 C 
ATOM     19  C   LIG A   1      -8.262  -0.162 124.301  0.00  0.00    -0.029 C 
ATOM     20  C   LIG A   1      -8.782   1.511 123.844  0.00  0.00    +0.011 C 
ATOM     21  C   LIG A   1      -6.956   0.296 123.801  0.00  0.00    +0.002 C 
ATOM     22  C   LIG A   1      -6.447  -1.196 123.163  0.00  0.00    +0.011 C 
ATOM     23  C   LIG A   1      -7.236  -2.756 123.710  0.00  0.00    -0.035 C 
ATOM     24  C   LIG A   1      -8.261  -2.606 122.561  0.00  0.00    +0.011 C 
ATOM     25  C   LIG A   1      -8.482  -3.298 124.706  0.00  0.00    +0.011 C 
ATOM     26  C   LIG A   1      -6.576  -2.447 125.037  0.00  0.00    +0.007 C 
ATOM     27  C   LIG A   1      -6.971  -1.037 125.360  0.00  0.00    +0.007 C 
ATOM     28  C   LIG A   1      -6.458   2.802 132.116  0.00  0.00    -0.005 C 
ATOM     29  C   LIG A   1      -7.466   3.992 132.382  0.00  0.00    +0.014 C 
ATOM     30  C   LIG A   1      -5.525   3.726 133.166  0.00  0.00    +0.014 C 
ENDROOT
BRANCH   1  31
ATOM     31  O   LIG A   1      -5.475   0.494 131.662  0.00  0.00    -0.391 OA
ATOM     32  H   LIG A   1      -5.446   0.410 130.695  0.00  0.00    +0.210 HD
ENDBRANCH   1  31
TORSDOF 1
ENDMDL
MODEL 9
REMARK VINA RESULT:      -8.4      3.976      6.785
REMARK  Name = NuBBE_1431
REMARK  9 active torsions:
REMARK  status: ('A' for Active; 'I' for Inactive)
REMARK    1  A    between atoms: O_1  and  C_2
REMARK    2  A    between atoms: C_6  and  C_7
REMARK    3  A    between atoms: C_15  and  C_16
REMARK    4  A    between atoms: C_17  and  C_18
REMARK    5  A    between atoms: C_21  and  C_22
REMARK    6  A    between atoms: C_25  and  C_26
REMARK    7  A    between atoms: C_25  and  C_27
REMARK    8  A    between atoms: C_30  and  C_31
REMARK    9  A    between atoms: C_30  and  C_32
REMARK                            x       y       z     vdW  Elec       q    Type
REMARK                         _______ _______ _______ _____ _____    ______ ____
ROOT
ATOM      1  C   LIG A   1      -4.160  -2.443 129.186  0.00  0.00    +0.121 C 
ATOM      2  C   LIG A   1      -3.165  -1.846 130.224  0.00  0.00    +0.032 C 
ATOM      3  C   LIG A   1      -3.778  -0.743 131.055  0.00  0.00    +0.013 C 
ATOM      4  C   LIG A   1      -5.113  -1.164 131.738  0.00  0.00    -0.007 C 
ATOM      5  C   LIG A   1      -4.814  -1.838 133.090  0.00  0.00    +0.016 C 
ATOM      6  C   LIG A   1      -5.926  -2.061 130.747  0.00  0.00    +0.007 C 
ATOM      7  C   LIG A   1      -7.398  -2.198 131.231  0.00  0.00    +0.009 C 
ATOM      8  C   LIG A   1      -8.039  -0.851 131.183  0.00  0.00    +0.031 C 
ATOM      9  C   LIG A   1      -7.268   0.269 131.780  0.00  0.00    -0.063 C 
ATOM     10  C   LIG A   1      -5.888   0.133 132.086  0.00  0.00    -0.064 C 
ATOM     11  C   LIG A   1      -5.093   1.221 132.711  0.00  0.00    +0.032 C 
ATOM     12  C   LIG A   1      -5.487   2.658 132.356  0.00  0.00    +0.012 C 
ATOM     13  C   LIG A   1      -6.974   2.885 132.770  0.00  0.00    -0.019 C 
ATOM     14  C   LIG A   1      -6.696   2.862 134.400  0.00  0.00    +0.012 C 
ATOM     15  C   LIG A   1      -7.928   1.613 131.724  0.00  0.00    -0.005 C 
ATOM     16  C   LIG A   1      -8.038   1.612 129.980  0.00  0.00    +0.016 C 
ATOM     17  C   LIG A   1      -9.542   1.662 131.809  0.00  0.00    +0.012 C 
ATOM     18  C   LIG A   1     -10.006   3.103 131.594  0.00  0.00    +0.008 C 
ATOM     19  C   LIG A   1      -8.957   4.088 132.077  0.00  0.00    -0.029 C 
ATOM     20  C   LIG A   1      -9.357   3.359 133.685  0.00  0.00    +0.011 C 
ATOM     21  C   LIG A   1      -7.732   4.516 132.771  0.00  0.00    +0.002 C 
ATOM     22  C   LIG A   1      -7.539   5.994 131.954  0.00  0.00    +0.011 C 
ATOM     23  C   LIG A   1      -8.382   6.285 130.354  0.00  0.00    -0.035 C 
ATOM     24  C   LIG A   1      -9.591   6.863 131.129  0.00  0.00    +0.011 C 
ATOM     25  C   LIG A   1      -9.459   5.533 129.300  0.00  0.00    +0.011 C 
ATOM     26  C   LIG A   1      -7.440   5.221 129.837  0.00  0.00    +0.007 C 
ATOM     27  C   LIG A   1      -7.593   4.062 130.776  0.00  0.00    +0.007 C 
ATOM     28  C   LIG A   1      -5.296  -3.328 129.906  0.00  0.00    -0.005 C 
ATOM     29  C   LIG A   1      -6.083  -4.456 130.688  0.00  0.00    +0.014 C 
ATOM     30  C   LIG A   1      -4.070  -4.470 130.056  0.00  0.00    +0.014 C 
ENDROOT
BRANCH   1  31
ATOM     31  O   LIG A   1      -4.702  -1.413 128.333  0.00  0.00    -0.391 OA
ATOM     32  H   LIG A   1      -5.458  -1.745 127.823  0.00  0.00    +0.210 HD
ENDBRANCH   1  31
TORSDOF 1
ENDMDL
