MODEL 1
REMARK VINA RESULT:      -5.8      0.000      0.000
REMARK  Name = NuBBE_515
REMARK  8 active torsions:
REMARK  status: ('A' for Active; 'I' for Inactive)
REMARK    1  A    between atoms: C_1  and  O_2
REMARK    2  A    between atoms: O_2  and  C_3
REMARK    3  A    between atoms: C_6  and  O_7
REMARK    4  A    between atoms: O_7  and  C_8
REMARK    5  A    between atoms: C_9  and  C_10
REMARK    6  A    between atoms: C_10  and  O_11
REMARK    7  A    between atoms: C_10  and  C_12
REMARK    8  A    between atoms: C_12  and  N_13
REMARK                            x       y       z     vdW  Elec       q    Type
REMARK                         _______ _______ _______ _____ _____    ______ ____
ROOT
ATOM      1  C   LIG A   1     -12.832   9.286 130.239  0.00  0.00    +0.121 A 
ATOM      2  C   LIG A   1     -13.123   8.211 131.064  0.00  0.00    +0.049 A 
ATOM      3  C   LIG A   1     -12.625   6.936 130.780  0.00  0.00    +0.049 A 
ATOM      4  C   LIG A   1     -11.790   6.733 129.670  0.00  0.00    +0.126 A 
ATOM      5  C   LIG A   1     -11.452   7.820 128.846  0.00  0.00    +0.027 A 
ATOM      6  C   LIG A   1     -12.000   9.088 129.135  0.00  0.00    +0.055 A 
ENDROOT
BRANCH   1   8
ATOM      7  C   LIG A   1     -13.804  11.337 129.560  0.00  0.00    +0.277 C 
ATOM      8  O   LIG A   1     -13.361  10.488 130.614  0.00  0.00    -0.495 OA
ENDBRANCH   1   8
BRANCH   4   9
ATOM      9  O   LIG A   1     -11.276   5.513 129.314  0.00  0.00    -0.495 OA
ATOM     10  C   LIG A   1     -11.095   4.546 130.343  0.00  0.00    +0.277 C 
ENDBRANCH   4   9
BRANCH   5  11
ATOM     11  C   LIG A   1     -10.529   7.654 127.643  0.00  0.00    +0.162 C 
BRANCH  11  12
ATOM     12  O   LIG A   1      -9.764   6.436 127.739  0.00  0.00    -0.386 OA
ATOM     13  H   LIG A   1      -9.616   6.171 126.806  0.00  0.00    +0.210 HD
ENDBRANCH  11  12
BRANCH  11  14
ATOM     14  C   LIG A   1     -11.272   7.617 126.283  0.00  0.00    +0.114 C 
BRANCH  14  15
ATOM     15  N   LIG A   1     -12.287   6.541 126.273  0.00  0.00    -0.327 NA
ATOM     16  H   LIG A   1     -12.742   6.538 125.357  0.00  0.00    +0.118 HD
ATOM     17  H   LIG A   1     -13.024   6.793 126.934  0.00  0.00    +0.118 HD
ENDBRANCH  14  15
ENDBRANCH  11  14
ENDBRANCH   5  11
TORSDOF 6
ENDMDL
MODEL 2
REMARK VINA RESULT:      -5.6      8.439      9.963
REMARK  Name = NuBBE_515
REMARK  8 active torsions:
REMARK  status: ('A' for Active; 'I' for Inactive)
REMARK    1  A    between atoms: C_1  and  O_2
REMARK    2  A    between atoms: O_2  and  C_3
REMARK    3  A    between atoms: C_6  and  O_7
REMARK    4  A    between atoms: O_7  and  C_8
REMARK    5  A    between atoms: C_9  and  C_10
REMARK    6  A    between atoms: C_10  and  O_11
REMARK    7  A    between atoms: C_10  and  C_12
REMARK    8  A    between atoms: C_12  and  N_13
REMARK                            x       y       z     vdW  Elec       q    Type
REMARK                         _______ _______ _______ _____ _____    ______ ____
ROOT
ATOM      1  C   LIG A   1      -7.521   3.998 120.343  0.00  0.00    +0.121 A 
ATOM      2  C   LIG A   1      -6.185   4.266 120.593  0.00  0.00    +0.049 A 
ATOM      3  C   LIG A   1      -5.619   3.978 121.838  0.00  0.00    +0.049 A 
ATOM      4  C   LIG A   1      -6.390   3.379 122.845  0.00  0.00    +0.126 A 
ATOM      5  C   LIG A   1      -7.737   3.063 122.595  0.00  0.00    +0.027 A 
ATOM      6  C   LIG A   1      -8.291   3.399 121.342  0.00  0.00    +0.055 A 
ENDROOT
BRANCH   1   8
ATOM      7  C   LIG A   1      -9.384   4.340 118.918  0.00  0.00    +0.277 C 
ATOM      8  O   LIG A   1      -7.970   4.309 119.090  0.00  0.00    -0.495 OA
ENDBRANCH   1   8
BRANCH   4   9
ATOM      9  O   LIG A   1      -5.915   3.082 124.097  0.00  0.00    -0.495 OA
ATOM     10  C   LIG A   1      -5.374   4.148 124.869  0.00  0.00    +0.277 C 
ENDBRANCH   4   9
BRANCH   5  11
ATOM     11  C   LIG A   1      -8.609   2.389 123.650  0.00  0.00    +0.162 C 
BRANCH  11  12
ATOM     12  O   LIG A   1      -9.122   3.352 124.591  0.00  0.00    -0.386 OA
ATOM     13  H   LIG A   1      -8.381   3.981 124.719  0.00  0.00    +0.210 HD
ENDBRANCH  11  12
BRANCH  11  14
ATOM     14  C   LIG A   1      -9.829   1.632 123.065  0.00  0.00    +0.114 C 
BRANCH  14  15
ATOM     15  N   LIG A   1     -10.858   1.419 124.106  0.00  0.00    -0.327 NA
ATOM     16  H   LIG A   1     -10.487   1.758 124.997  0.00  0.00    +0.118 HD
ATOM     17  H   LIG A   1     -10.977   0.412 124.234  0.00  0.00    +0.118 HD
ENDBRANCH  14  15
ENDBRANCH  11  14
ENDBRANCH   5  11
TORSDOF 6
ENDMDL
MODEL 3
REMARK VINA RESULT:      -5.6      1.356      3.829
REMARK  Name = NuBBE_515
REMARK  8 active torsions:
REMARK  status: ('A' for Active; 'I' for Inactive)
REMARK    1  A    between atoms: C_1  and  O_2
REMARK    2  A    between atoms: O_2  and  C_3
REMARK    3  A    between atoms: C_6  and  O_7
REMARK    4  A    between atoms: O_7  and  C_8
REMARK    5  A    between atoms: C_9  and  C_10
REMARK    6  A    between atoms: C_10  and  O_11
REMARK    7  A    between atoms: C_10  and  C_12
REMARK    8  A    between atoms: C_12  and  N_13
REMARK                            x       y       z     vdW  Elec       q    Type
REMARK                         _______ _______ _______ _____ _____    ______ ____
ROOT
ATOM      1  C   LIG A   1     -11.145   6.131 130.941  0.00  0.00    +0.121 A 
ATOM      2  C   LIG A   1     -12.199   6.668 131.664  0.00  0.00    +0.049 A 
ATOM      3  C   LIG A   1     -12.898   7.781 131.189  0.00  0.00    +0.049 A 
ATOM      4  C   LIG A   1     -12.564   8.352 129.951  0.00  0.00    +0.126 A 
ATOM      5  C   LIG A   1     -11.526   7.795 129.186  0.00  0.00    +0.027 A 
ATOM      6  C   LIG A   1     -10.812   6.696 129.707  0.00  0.00    +0.055 A 
ENDROOT
BRANCH   1   8
ATOM      7  C   LIG A   1     -10.012   4.083 130.574  0.00  0.00    +0.277 C 
ATOM      8  O   LIG A   1     -10.538   5.038 131.490  0.00  0.00    -0.495 OA
ENDBRANCH   1   8
BRANCH   4   9
ATOM      9  O   LIG A   1     -13.189   9.453 129.425  0.00  0.00    -0.495 OA
ATOM     10  C   LIG A   1     -13.306  10.606 130.252  0.00  0.00    +0.277 C 
ENDBRANCH   4   9
BRANCH   5  11
ATOM     11  C   LIG A   1     -11.142   8.366 127.824  0.00  0.00    +0.162 C 
BRANCH  11  12
ATOM     12  O   LIG A   1      -9.971   9.200 127.922  0.00  0.00    -0.386 OA
ATOM     13  H   LIG A   1     -10.267  10.070 127.579  0.00  0.00    +0.210 HD
ENDBRANCH  11  12
BRANCH  11  14
ATOM     14  C   LIG A   1     -10.841   7.286 126.753  0.00  0.00    +0.114 C 
BRANCH  14  15
ATOM     15  N   LIG A   1     -12.098   6.710 126.226  0.00  0.00    -0.327 NA
ATOM     16  H   LIG A   1     -12.644   6.357 127.016  0.00  0.00    +0.118 HD
ATOM     17  H   LIG A   1     -11.862   5.883 125.675  0.00  0.00    +0.118 HD
ENDBRANCH  14  15
ENDBRANCH  11  14
ENDBRANCH   5  11
TORSDOF 6
ENDMDL
MODEL 4
REMARK VINA RESULT:      -5.3      2.604      5.103
REMARK  Name = NuBBE_515
REMARK  8 active torsions:
REMARK  status: ('A' for Active; 'I' for Inactive)
REMARK    1  A    between atoms: C_1  and  O_2
REMARK    2  A    between atoms: O_2  and  C_3
REMARK    3  A    between atoms: C_6  and  O_7
REMARK    4  A    between atoms: O_7  and  C_8
REMARK    5  A    between atoms: C_9  and  C_10
REMARK    6  A    between atoms: C_10  and  O_11
REMARK    7  A    between atoms: C_10  and  C_12
REMARK    8  A    between atoms: C_12  and  N_13
REMARK                            x       y       z     vdW  Elec       q    Type
REMARK                         _______ _______ _______ _____ _____    ______ ____
ROOT
ATOM      1  C   LIG A   1     -10.235   6.807 127.731  0.00  0.00    +0.121 A 
ATOM      2  C   LIG A   1     -11.014   7.837 127.228  0.00  0.00    +0.049 A 
ATOM      3  C   LIG A   1     -11.878   8.553 128.062  0.00  0.00    +0.049 A 
ATOM      4  C   LIG A   1     -11.945   8.259 129.433  0.00  0.00    +0.126 A 
ATOM      5  C   LIG A   1     -11.132   7.245 129.967  0.00  0.00    +0.027 A 
ATOM      6  C   LIG A   1     -10.297   6.514 129.095  0.00  0.00    +0.055 A 
ENDROOT
BRANCH   1   8
ATOM      7  C   LIG A   1      -8.591   5.144 127.351  0.00  0.00    +0.277 C 
ATOM      8  O   LIG A   1      -9.418   6.181 126.833  0.00  0.00    -0.495 OA
ENDBRANCH   1   8
BRANCH   4   9
ATOM      9  O   LIG A   1     -12.778   8.901 130.312  0.00  0.00    -0.495 OA
ATOM     10  C   LIG A   1     -13.201  10.219 129.980  0.00  0.00    +0.277 C 
ENDBRANCH   4   9
BRANCH   5  11
ATOM     11  C   LIG A   1     -11.150   6.906 131.454  0.00  0.00    +0.162 C 
BRANCH  11  12
ATOM     12  O   LIG A   1     -12.389   6.268 131.825  0.00  0.00    -0.386 OA
ATOM     13  H   LIG A   1     -12.591   6.636 132.712  0.00  0.00    +0.210 HD
ENDBRANCH  11  12
BRANCH  11  14
ATOM     14  C   LIG A   1     -10.004   5.961 131.896  0.00  0.00    +0.114 C 
BRANCH  14  15
ATOM     15  N   LIG A   1      -9.663   6.186 133.318  0.00  0.00    -0.327 NA
ATOM     16  H   LIG A   1      -9.689   7.192 133.498  0.00  0.00    +0.118 HD
ATOM     17  H   LIG A   1      -8.687   5.917 133.458  0.00  0.00    +0.118 HD
ENDBRANCH  14  15
ENDBRANCH  11  14
ENDBRANCH   5  11
TORSDOF 6
ENDMDL
MODEL 5
REMARK VINA RESULT:      -5.3     10.645     13.042
REMARK  Name = NuBBE_515
REMARK  8 active torsions:
REMARK  status: ('A' for Active; 'I' for Inactive)
REMARK    1  A    between atoms: C_1  and  O_2
REMARK    2  A    between atoms: O_2  and  C_3
REMARK    3  A    between atoms: C_6  and  O_7
REMARK    4  A    between atoms: O_7  and  C_8
REMARK    5  A    between atoms: C_9  and  C_10
REMARK    6  A    between atoms: C_10  and  O_11
REMARK    7  A    between atoms: C_10  and  C_12
REMARK    8  A    between atoms: C_12  and  N_13
REMARK                            x       y       z     vdW  Elec       q    Type
REMARK                         _______ _______ _______ _____ _____    ______ ____
ROOT
ATOM      1  C   LIG A   1      -5.743  -2.904 123.852  0.00  0.00    +0.121 A 
ATOM      2  C   LIG A   1      -6.076  -2.288 122.656  0.00  0.00    +0.049 A 
ATOM      3  C   LIG A   1      -7.327  -1.690 122.483  0.00  0.00    +0.049 A 
ATOM      4  C   LIG A   1      -8.255  -1.673 123.536  0.00  0.00    +0.126 A 
ATOM      5  C   LIG A   1      -7.918  -2.257 124.770  0.00  0.00    +0.027 A 
ATOM      6  C   LIG A   1      -6.663  -2.887 124.902  0.00  0.00    +0.055 A 
ENDROOT
BRANCH   1   8
ATOM      7  C   LIG A   1      -4.375  -4.811 123.520  0.00  0.00    +0.277 C 
ATOM      8  O   LIG A   1      -4.491  -3.448 123.917  0.00  0.00    -0.495 OA
ENDBRANCH   1   8
BRANCH   4   9
ATOM      9  O   LIG A   1      -9.507  -1.123 123.442  0.00  0.00    -0.495 OA
ATOM     10  C   LIG A   1      -9.603   0.235 123.029  0.00  0.00    +0.277 C 
ENDBRANCH   4   9
BRANCH   5  11
ATOM     11  C   LIG A   1      -8.883  -2.242 125.951  0.00  0.00    +0.162 C 
BRANCH  11  12
ATOM     12  O   LIG A   1     -10.082  -2.985 125.651  0.00  0.00    -0.386 OA
ATOM     13  H   LIG A   1      -9.820  -3.922 125.769  0.00  0.00    +0.210 HD
ENDBRANCH  11  12
BRANCH  11  14
ATOM     14  C   LIG A   1      -8.292  -2.843 127.252  0.00  0.00    +0.114 C 
BRANCH  14  15
ATOM     15  N   LIG A   1      -9.114  -3.979 127.722  0.00  0.00    -0.327 NA
ATOM     16  H   LIG A   1      -8.674  -4.368 128.560  0.00  0.00    +0.118 HD
ATOM     17  H   LIG A   1      -9.058  -4.723 127.024  0.00  0.00    +0.118 HD
ENDBRANCH  14  15
ENDBRANCH  11  14
ENDBRANCH   5  11
TORSDOF 6
ENDMDL
MODEL 6
REMARK VINA RESULT:      -5.2      7.531      9.856
REMARK  Name = NuBBE_515
REMARK  8 active torsions:
REMARK  status: ('A' for Active; 'I' for Inactive)
REMARK    1  A    between atoms: C_1  and  O_2
REMARK    2  A    between atoms: O_2  and  C_3
REMARK    3  A    between atoms: C_6  and  O_7
REMARK    4  A    between atoms: O_7  and  C_8
REMARK    5  A    between atoms: C_9  and  C_10
REMARK    6  A    between atoms: C_10  and  O_11
REMARK    7  A    between atoms: C_10  and  C_12
REMARK    8  A    between atoms: C_12  and  N_13
REMARK                            x       y       z     vdW  Elec       q    Type
REMARK                         _______ _______ _______ _____ _____    ______ ____
ROOT
ATOM      1  C   LIG A   1      -6.170   4.140 120.952  0.00  0.00    +0.121 A 
ATOM      2  C   LIG A   1      -7.399   3.899 120.358  0.00  0.00    +0.049 A 
ATOM      3  C   LIG A   1      -8.471   3.407 121.106  0.00  0.00    +0.049 A 
ATOM      4  C   LIG A   1      -8.329   3.183 122.485  0.00  0.00    +0.126 A 
ATOM      5  C   LIG A   1      -7.103   3.461 123.112  0.00  0.00    +0.027 A 
ATOM      6  C   LIG A   1      -6.026   3.921 122.324  0.00  0.00    +0.055 A 
ENDROOT
BRANCH   1   8
ATOM      7  C   LIG A   1      -5.613   5.560 119.138  0.00  0.00    +0.277 C 
ATOM      8  O   LIG A   1      -5.194   4.630 120.132  0.00  0.00    -0.495 OA
ENDBRANCH   1   8
BRANCH   4   9
ATOM      9  O   LIG A   1      -9.326   2.686 123.284  0.00  0.00    -0.495 OA
ATOM     10  C   LIG A   1      -9.757   1.350 123.050  0.00  0.00    +0.277 C 
ENDBRANCH   4   9
BRANCH   5  11
ATOM     11  C   LIG A   1      -6.907   3.256 124.611  0.00  0.00    +0.162 C 
BRANCH  11  12
ATOM     12  O   LIG A   1      -5.565   2.819 124.904  0.00  0.00    -0.386 OA
ATOM     13  H   LIG A   1      -5.083   3.648 125.111  0.00  0.00    +0.210 HD
ENDBRANCH  11  12
BRANCH  11  14
ATOM     14  C   LIG A   1      -7.164   4.530 125.457  0.00  0.00    +0.114 C 
BRANCH  14  15
ATOM     15  N   LIG A   1      -8.606   4.862 125.473  0.00  0.00    -0.327 NA
ATOM     16  H   LIG A   1      -8.809   5.447 124.659  0.00  0.00    +0.118 HD
ATOM     17  H   LIG A   1      -8.785   5.460 126.281  0.00  0.00    +0.118 HD
ENDBRANCH  14  15
ENDBRANCH  11  14
ENDBRANCH   5  11
TORSDOF 6
ENDMDL
MODEL 7
REMARK VINA RESULT:      -4.9      8.788     11.060
REMARK  Name = NuBBE_515
REMARK  8 active torsions:
REMARK  status: ('A' for Active; 'I' for Inactive)
REMARK    1  A    between atoms: C_1  and  O_2
REMARK    2  A    between atoms: O_2  and  C_3
REMARK    3  A    between atoms: C_6  and  O_7
REMARK    4  A    between atoms: O_7  and  C_8
REMARK    5  A    between atoms: C_9  and  C_10
REMARK    6  A    between atoms: C_10  and  O_11
REMARK    7  A    between atoms: C_10  and  C_12
REMARK    8  A    between atoms: C_12  and  N_13
REMARK                            x       y       z     vdW  Elec       q    Type
REMARK                         _______ _______ _______ _____ _____    ______ ____
ROOT
ATOM      1  C   LIG A   1      -7.691  -2.510 128.696  0.00  0.00    +0.121 A 
ATOM      2  C   LIG A   1      -8.316  -3.689 128.321  0.00  0.00    +0.049 A 
ATOM      3  C   LIG A   1      -9.033  -3.770 127.125  0.00  0.00    +0.049 A 
ATOM      4  C   LIG A   1      -9.102  -2.663 126.264  0.00  0.00    +0.126 A 
ATOM      5  C   LIG A   1      -8.440  -1.472 126.608  0.00  0.00    +0.027 A 
ATOM      6  C   LIG A   1      -7.755  -1.408 127.840  0.00  0.00    +0.055 A 
ENDROOT
BRANCH   1   8
ATOM      7  C   LIG A   1      -6.388  -3.781 130.214  0.00  0.00    +0.277 C 
ATOM      8  O   LIG A   1      -7.008  -2.544 129.879  0.00  0.00    -0.495 OA
ENDBRANCH   1   8
BRANCH   4   9
ATOM      9  O   LIG A   1      -9.799  -2.656 125.083  0.00  0.00    -0.495 OA
ATOM     10  C   LIG A   1      -9.249  -3.378 123.987  0.00  0.00    +0.277 C 
ENDBRANCH   4   9
BRANCH   5  11
ATOM     11  C   LIG A   1      -8.465  -0.251 125.695  0.00  0.00    +0.162 C 
BRANCH  11  12
ATOM     12  O   LIG A   1      -9.815   0.094 125.327  0.00  0.00    -0.386 OA
ATOM     13  H   LIG A   1      -9.853  -0.082 124.362  0.00  0.00    +0.210 HD
ENDBRANCH  11  12
BRANCH  11  14
ATOM     14  C   LIG A   1      -7.829   1.016 126.323  0.00  0.00    +0.114 C 
BRANCH  14  15
ATOM     15  N   LIG A   1      -8.870   1.879 126.923  0.00  0.00    -0.327 NA
ATOM     16  H   LIG A   1      -9.488   1.290 127.486  0.00  0.00    +0.118 HD
ATOM     17  H   LIG A   1      -9.458   2.238 126.170  0.00  0.00    +0.118 HD
ENDBRANCH  14  15
ENDBRANCH  11  14
ENDBRANCH   5  11
TORSDOF 6
ENDMDL
MODEL 8
REMARK VINA RESULT:      -4.8      2.015      4.273
REMARK  Name = NuBBE_515
REMARK  8 active torsions:
REMARK  status: ('A' for Active; 'I' for Inactive)
REMARK    1  A    between atoms: C_1  and  O_2
REMARK    2  A    between atoms: O_2  and  C_3
REMARK    3  A    between atoms: C_6  and  O_7
REMARK    4  A    between atoms: O_7  and  C_8
REMARK    5  A    between atoms: C_9  and  C_10
REMARK    6  A    between atoms: C_10  and  O_11
REMARK    7  A    between atoms: C_10  and  C_12
REMARK    8  A    between atoms: C_12  and  N_13
REMARK                            x       y       z     vdW  Elec       q    Type
REMARK                         _______ _______ _______ _____ _____    ______ ____
ROOT
ATOM      1  C   LIG A   1      -9.061   5.824 129.860  0.00  0.00    +0.121 A 
ATOM      2  C   LIG A   1      -9.620   5.445 131.070  0.00  0.00    +0.049 A 
ATOM      3  C   LIG A   1     -10.909   5.856 131.422  0.00  0.00    +0.049 A 
ATOM      4  C   LIG A   1     -11.672   6.633 130.536  0.00  0.00    +0.126 A 
ATOM      5  C   LIG A   1     -11.136   6.991 129.287  0.00  0.00    +0.027 A 
ATOM      6  C   LIG A   1      -9.819   6.594 128.974  0.00  0.00    +0.055 A 
ENDROOT
BRANCH   1   8
ATOM      7  C   LIG A   1      -7.285   4.410 130.538  0.00  0.00    +0.277 C 
ATOM      8  O   LIG A   1      -7.801   5.359 129.611  0.00  0.00    -0.495 OA
ENDBRANCH   1   8
BRANCH   4   9
ATOM      9  O   LIG A   1     -12.934   7.090 130.814  0.00  0.00    -0.495 OA
ATOM     10  C   LIG A   1     -13.067   8.105 131.803  0.00  0.00    +0.277 C 
ENDBRANCH   4   9
BRANCH   5  11
ATOM     11  C   LIG A   1     -11.935   7.813 128.281  0.00  0.00    +0.162 C 
BRANCH  11  12
ATOM     12  O   LIG A   1     -11.961   9.206 128.652  0.00  0.00    -0.386 OA
ATOM     13  H   LIG A   1     -12.299   9.661 127.852  0.00  0.00    +0.210 HD
ENDBRANCH  11  12
BRANCH  11  14
ATOM     14  C   LIG A   1     -11.385   7.739 126.833  0.00  0.00    +0.114 C 
BRANCH  14  15
ATOM     15  N   LIG A   1     -12.078   6.681 126.066  0.00  0.00    -0.327 NA
ATOM     16  H   LIG A   1     -12.983   7.048 125.761  0.00  0.00    +0.118 HD
ATOM     17  H   LIG A   1     -12.303   5.919 126.707  0.00  0.00    +0.118 HD
ENDBRANCH  14  15
ENDBRANCH  11  14
ENDBRANCH   5  11
TORSDOF 6
ENDMDL
MODEL 9
REMARK VINA RESULT:      -4.8      6.899      9.069
REMARK  Name = NuBBE_515
REMARK  8 active torsions:
REMARK  status: ('A' for Active; 'I' for Inactive)
REMARK    1  A    between atoms: C_1  and  O_2
REMARK    2  A    between atoms: O_2  and  C_3
REMARK    3  A    between atoms: C_6  and  O_7
REMARK    4  A    between atoms: O_7  and  C_8
REMARK    5  A    between atoms: C_9  and  C_10
REMARK    6  A    between atoms: C_10  and  O_11
REMARK    7  A    between atoms: C_10  and  C_12
REMARK    8  A    between atoms: C_12  and  N_13
REMARK                            x       y       z     vdW  Elec       q    Type
REMARK                         _______ _______ _______ _____ _____    ______ ____
ROOT
ATOM      1  C   LIG A   1      -5.986   3.959 122.547  0.00  0.00    +0.121 A 
ATOM      2  C   LIG A   1      -7.039   3.354 121.880  0.00  0.00    +0.049 A 
ATOM      3  C   LIG A   1      -8.169   2.913 122.575  0.00  0.00    +0.049 A 
ATOM      4  C   LIG A   1      -8.268   3.109 123.962  0.00  0.00    +0.126 A 
ATOM      5  C   LIG A   1      -7.228   3.758 124.648  0.00  0.00    +0.027 A 
ATOM      6  C   LIG A   1      -6.083   4.158 123.927  0.00  0.00    +0.055 A 
ENDROOT
BRANCH   1   8
ATOM      7  C   LIG A   1      -5.253   4.757 120.440  0.00  0.00    +0.277 C 
ATOM      8  O   LIG A   1      -4.937   4.362 121.771  0.00  0.00    -0.495 OA
ENDBRANCH   1   8
BRANCH   4   9
ATOM      9  O   LIG A   1      -9.332   2.691 124.718  0.00  0.00    -0.495 OA
ATOM     10  C   LIG A   1      -9.967   1.472 124.348  0.00  0.00    +0.277 C 
ENDBRANCH   4   9
BRANCH   5  11
ATOM     11  C   LIG A   1      -7.300   4.016 126.150  0.00  0.00    +0.162 C 
BRANCH  11  12
ATOM     12  O   LIG A   1      -8.540   4.657 126.508  0.00  0.00    -0.386 OA
ATOM     13  H   LIG A   1      -8.388   4.981 127.421  0.00  0.00    +0.210 HD
ENDBRANCH  11  12
BRANCH  11  14
ATOM     14  C   LIG A   1      -7.188   2.732 127.013  0.00  0.00    +0.114 C 
BRANCH  14  15
ATOM     15  N   LIG A   1      -8.504   2.373 127.586  0.00  0.00    -0.327 NA
ATOM     16  H   LIG A   1      -8.447   1.417 127.944  0.00  0.00    +0.118 HD
ATOM     17  H   LIG A   1      -9.182   2.331 126.823  0.00  0.00    +0.118 HD
ENDBRANCH  14  15
ENDBRANCH  11  14
ENDBRANCH   5  11
TORSDOF 6
ENDMDL
