MODEL 1
REMARK VINA RESULT:      -6.5      0.000      0.000
REMARK  Name = NuBBE_1743
REMARK  10 active torsions:
REMARK  status: ('A' for Active; 'I' for Inactive)
REMARK    1  A    between atoms: C_1  and  C_9
REMARK    2  A    between atoms: C_1  and  C_15
REMARK    3  A    between atoms: C_2  and  C_3
REMARK    4  A    between atoms: C_3  and  C_4
REMARK    5  A    between atoms: C_5  and  C_6
REMARK    6  A    between atoms: C_5  and  C_8
REMARK    7  A    between atoms: C_9  and  C_10
REMARK    8  A    between atoms: C_10  and  C_11
REMARK    9  A    between atoms: C_12  and  C_13
REMARK   10  A    between atoms: C_12  and  C_14
REMARK                            x       y       z     vdW  Elec       q    Type
REMARK                         _______ _______ _______ _____ _____    ______ ____
ROOT
ATOM      1  C   LIG A   1      -8.213  -2.947 127.318  0.00  0.00    -0.076 C 
ATOM      2  C   LIG A   1      -8.641  -3.634 126.234  0.00  0.00    -0.024 C 
ATOM      3  C   LIG A   1      -7.317  -1.739 127.236  0.00  0.00    +0.038 C 
ENDROOT
BRANCH   2   4
ATOM      4  C   LIG A   1      -8.374  -3.324 124.776  0.00  0.00    +0.054 C 
BRANCH   4   5
ATOM      5  C   LIG A   1      -6.961  -3.682 124.367  0.00  0.00    -0.020 C 
ATOM      6  C   LIG A   1      -6.047  -2.899 123.740  0.00  0.00    -0.055 C 
ATOM      7  C   LIG A   1      -6.313  -1.473 123.333  0.00  0.00    +0.043 C 
BRANCH   6   8
ATOM      8  C   LIG A   1      -4.712  -3.431 123.467  0.00  0.00    -0.005 C 
ATOM      9  C   LIG A   1      -4.339  -4.722 123.558  0.00  0.00    +0.008 C 
ENDBRANCH   6   8
ENDBRANCH   4   5
ENDBRANCH   2   4
BRANCH   1  10
ATOM     10  C   LIG A   1      -8.577  -3.388 128.735  0.00  0.00    +0.034 C 
BRANCH  10  11
ATOM     11  C   LIG A   1      -7.813  -2.615 129.824  0.00  0.00    +0.031 C 
BRANCH  11  12
ATOM     12  C   LIG A   1      -7.055  -3.494 130.789  0.00  0.00    -0.028 C 
ATOM     13  C   LIG A   1      -5.792  -3.951 130.675  0.00  0.00    -0.080 C 
ATOM     14  C   LIG A   1      -4.830  -3.576 129.581  0.00  0.00    +0.038 C 
ATOM     15  C   LIG A   1      -5.222  -4.920 131.681  0.00  0.00    +0.038 C 
ENDBRANCH  11  12
ENDBRANCH  10  11
ENDBRANCH   1  10
TORSDOF 6
ENDMDL
MODEL 2
REMARK VINA RESULT:      -6.3      1.662      5.815
REMARK  Name = NuBBE_1743
REMARK  10 active torsions:
REMARK  status: ('A' for Active; 'I' for Inactive)
REMARK    1  A    between atoms: C_1  and  C_9
REMARK    2  A    between atoms: C_1  and  C_15
REMARK    3  A    between atoms: C_2  and  C_3
REMARK    4  A    between atoms: C_3  and  C_4
REMARK    5  A    between atoms: C_5  and  C_6
REMARK    6  A    between atoms: C_5  and  C_8
REMARK    7  A    between atoms: C_9  and  C_10
REMARK    8  A    between atoms: C_10  and  C_11
REMARK    9  A    between atoms: C_12  and  C_13
REMARK   10  A    between atoms: C_12  and  C_14
REMARK                            x       y       z     vdW  Elec       q    Type
REMARK                         _______ _______ _______ _____ _____    ______ ____
ROOT
ATOM      1  C   LIG A   1      -8.699  -2.193 123.648  0.00  0.00    -0.076 C 
ATOM      2  C   LIG A   1      -8.561  -1.473 124.784  0.00  0.00    -0.024 C 
ATOM      3  C   LIG A   1      -9.541  -3.439 123.551  0.00  0.00    +0.038 C 
ENDROOT
BRANCH   2   4
ATOM      4  C   LIG A   1      -9.231  -1.712 126.120  0.00  0.00    +0.054 C 
BRANCH   4   5
ATOM      5  C   LIG A   1      -8.227  -2.020 127.212  0.00  0.00    -0.020 C 
ATOM      6  C   LIG A   1      -8.214  -3.076 128.063  0.00  0.00    -0.055 C 
ATOM      7  C   LIG A   1      -9.253  -4.168 128.051  0.00  0.00    +0.043 C 
BRANCH   6   8
ATOM      8  C   LIG A   1      -7.123  -3.207 129.030  0.00  0.00    -0.005 C 
ATOM      9  C   LIG A   1      -6.417  -2.195 129.569  0.00  0.00    +0.008 C 
ENDBRANCH   6   8
ENDBRANCH   4   5
ENDBRANCH   2   4
BRANCH   1  10
ATOM     10  C   LIG A   1      -7.955  -1.815 122.368  0.00  0.00    +0.034 C 
BRANCH  10  11
ATOM     11  C   LIG A   1      -6.465  -1.513 122.601  0.00  0.00    +0.031 C 
BRANCH  11  12
ATOM     12  C   LIG A   1      -5.589  -2.741 122.668  0.00  0.00    -0.028 C 
ATOM     13  C   LIG A   1      -5.073  -3.331 123.766  0.00  0.00    -0.080 C 
ATOM     14  C   LIG A   1      -5.365  -2.927 125.184  0.00  0.00    +0.038 C 
ATOM     15  C   LIG A   1      -4.118  -4.492 123.647  0.00  0.00    +0.038 C 
ENDBRANCH  11  12
ENDBRANCH  10  11
ENDBRANCH   1  10
TORSDOF 6
ENDMDL
MODEL 3
REMARK VINA RESULT:      -6.1      0.942      5.565
REMARK  Name = NuBBE_1743
REMARK  10 active torsions:
REMARK  status: ('A' for Active; 'I' for Inactive)
REMARK    1  A    between atoms: C_1  and  C_9
REMARK    2  A    between atoms: C_1  and  C_15
REMARK    3  A    between atoms: C_2  and  C_3
REMARK    4  A    between atoms: C_3  and  C_4
REMARK    5  A    between atoms: C_5  and  C_6
REMARK    6  A    between atoms: C_5  and  C_8
REMARK    7  A    between atoms: C_9  and  C_10
REMARK    8  A    between atoms: C_10  and  C_11
REMARK    9  A    between atoms: C_12  and  C_13
REMARK   10  A    between atoms: C_12  and  C_14
REMARK                            x       y       z     vdW  Elec       q    Type
REMARK                         _______ _______ _______ _____ _____    ______ ____
ROOT
ATOM      1  C   LIG A   1      -8.479  -2.793 127.154  0.00  0.00    -0.076 C 
ATOM      2  C   LIG A   1      -8.329  -3.585 128.240  0.00  0.00    -0.024 C 
ATOM      3  C   LIG A   1      -8.035  -1.354 127.106  0.00  0.00    +0.038 C 
ENDROOT
BRANCH   2   4
ATOM      4  C   LIG A   1      -7.665  -3.237 129.555  0.00  0.00    +0.054 C 
BRANCH   4   5
ATOM      5  C   LIG A   1      -6.157  -3.168 129.431  0.00  0.00    -0.020 C 
ATOM      6  C   LIG A   1      -5.231  -3.953 130.037  0.00  0.00    -0.055 C 
ATOM      7  C   LIG A   1      -5.580  -5.076 130.978  0.00  0.00    +0.043 C 
BRANCH   6   8
ATOM      8  C   LIG A   1      -3.812  -3.743 129.749  0.00  0.00    -0.005 C 
ATOM      9  C   LIG A   1      -3.164  -2.562 129.773  0.00  0.00    +0.008 C 
ENDBRANCH   6   8
ENDBRANCH   4   5
ENDBRANCH   2   4
BRANCH   1  10
ATOM     10  C   LIG A   1      -9.172  -3.299 125.888  0.00  0.00    +0.034 C 
BRANCH  10  11
ATOM     11  C   LIG A   1      -8.428  -2.915 124.597  0.00  0.00    +0.031 C 
BRANCH  11  12
ATOM     12  C   LIG A   1      -7.183  -3.728 124.337  0.00  0.00    -0.028 C 
ATOM     13  C   LIG A   1      -5.913  -3.288 124.234  0.00  0.00    -0.080 C 
ATOM     14  C   LIG A   1      -5.465  -1.872 124.471  0.00  0.00    +0.038 C 
ATOM     15  C   LIG A   1      -4.794  -4.225 123.855  0.00  0.00    +0.038 C 
ENDBRANCH  11  12
ENDBRANCH  10  11
ENDBRANCH   1  10
TORSDOF 6
ENDMDL
MODEL 4
REMARK VINA RESULT:      -5.5      3.793      6.432
REMARK  Name = NuBBE_1743
REMARK  10 active torsions:
REMARK  status: ('A' for Active; 'I' for Inactive)
REMARK    1  A    between atoms: C_1  and  C_9
REMARK    2  A    between atoms: C_1  and  C_15
REMARK    3  A    between atoms: C_2  and  C_3
REMARK    4  A    between atoms: C_3  and  C_4
REMARK    5  A    between atoms: C_5  and  C_6
REMARK    6  A    between atoms: C_5  and  C_8
REMARK    7  A    between atoms: C_9  and  C_10
REMARK    8  A    between atoms: C_10  and  C_11
REMARK    9  A    between atoms: C_12  and  C_13
REMARK   10  A    between atoms: C_12  and  C_14
REMARK                            x       y       z     vdW  Elec       q    Type
REMARK                         _______ _______ _______ _____ _____    ______ ____
ROOT
ATOM      1  C   LIG A   1      -6.538   0.725 125.364  0.00  0.00    -0.076 C 
ATOM      2  C   LIG A   1      -6.145   2.017 125.438  0.00  0.00    -0.024 C 
ATOM      3  C   LIG A   1      -7.808   0.279 124.688  0.00  0.00    +0.038 C 
ENDROOT
BRANCH   2   4
ATOM      4  C   LIG A   1      -6.829   3.228 124.840  0.00  0.00    +0.054 C 
BRANCH   4   5
ATOM      5  C   LIG A   1      -6.361   3.506 123.428  0.00  0.00    -0.020 C 
ATOM      6  C   LIG A   1      -7.072   3.411 122.276  0.00  0.00    -0.055 C 
ATOM      7  C   LIG A   1      -8.518   2.992 122.223  0.00  0.00    +0.043 C 
BRANCH   6   8
ATOM      8  C   LIG A   1      -6.435   3.765 121.007  0.00  0.00    -0.005 C 
ATOM      9  C   LIG A   1      -5.111   3.792 120.764  0.00  0.00    +0.008 C 
ENDBRANCH   6   8
ENDBRANCH   4   5
ENDBRANCH   2   4
BRANCH   1  10
ATOM     10  C   LIG A   1      -5.728  -0.394 126.019  0.00  0.00    +0.034 C 
BRANCH  10  11
ATOM     11  C   LIG A   1      -6.359  -1.784 125.839  0.00  0.00    +0.031 C 
BRANCH  11  12
ATOM     12  C   LIG A   1      -5.436  -2.806 125.220  0.00  0.00    -0.028 C 
ATOM     13  C   LIG A   1      -5.244  -3.063 123.910  0.00  0.00    -0.080 C 
ATOM     14  C   LIG A   1      -5.854  -2.287 122.776  0.00  0.00    +0.038 C 
ATOM     15  C   LIG A   1      -4.364  -4.204 123.463  0.00  0.00    +0.038 C 
ENDBRANCH  11  12
ENDBRANCH  10  11
ENDBRANCH   1  10
TORSDOF 6
ENDMDL
MODEL 5
REMARK VINA RESULT:      -5.5      1.137      2.314
REMARK  Name = NuBBE_1743
REMARK  10 active torsions:
REMARK  status: ('A' for Active; 'I' for Inactive)
REMARK    1  A    between atoms: C_1  and  C_9
REMARK    2  A    between atoms: C_1  and  C_15
REMARK    3  A    between atoms: C_2  and  C_3
REMARK    4  A    between atoms: C_3  and  C_4
REMARK    5  A    between atoms: C_5  and  C_6
REMARK    6  A    between atoms: C_5  and  C_8
REMARK    7  A    between atoms: C_9  and  C_10
REMARK    8  A    between atoms: C_10  and  C_11
REMARK    9  A    between atoms: C_12  and  C_13
REMARK   10  A    between atoms: C_12  and  C_14
REMARK                            x       y       z     vdW  Elec       q    Type
REMARK                         _______ _______ _______ _____ _____    ______ ____
ROOT
ATOM      1  C   LIG A   1      -7.824  -2.865 129.059  0.00  0.00    -0.076 C 
ATOM      2  C   LIG A   1      -8.389  -3.700 128.158  0.00  0.00    -0.024 C 
ATOM      3  C   LIG A   1      -7.668  -1.383 128.835  0.00  0.00    +0.038 C 
ENDROOT
BRANCH   2   4
ATOM      4  C   LIG A   1      -9.008  -3.342 126.823  0.00  0.00    +0.054 C 
BRANCH   4   5
ATOM      5  C   LIG A   1      -7.961  -3.094 125.759  0.00  0.00    -0.020 C 
ATOM      6  C   LIG A   1      -8.123  -3.085 124.411  0.00  0.00    -0.055 C 
ATOM      7  C   LIG A   1      -9.444  -3.332 123.730  0.00  0.00    +0.043 C 
BRANCH   6   8
ATOM      8  C   LIG A   1      -6.977  -2.784 123.552  0.00  0.00    -0.005 C 
ATOM      9  C   LIG A   1      -5.679  -2.869 123.902  0.00  0.00    +0.008 C 
ENDBRANCH   6   8
ENDBRANCH   4   5
ENDBRANCH   2   4
BRANCH   1  10
ATOM     10  C   LIG A   1      -7.245  -3.385 130.374  0.00  0.00    +0.034 C 
BRANCH  10  11
ATOM     11  C   LIG A   1      -5.977  -4.234 130.184  0.00  0.00    +0.031 C 
BRANCH  11  12
ATOM     12  C   LIG A   1      -5.578  -5.028 131.404  0.00  0.00    -0.028 C 
ATOM     13  C   LIG A   1      -4.680  -4.693 132.353  0.00  0.00    -0.080 C 
ATOM     14  C   LIG A   1      -3.959  -3.376 132.437  0.00  0.00    +0.038 C 
ATOM     15  C   LIG A   1      -4.313  -5.659 133.452  0.00  0.00    +0.038 C 
ENDBRANCH  11  12
ENDBRANCH  10  11
ENDBRANCH   1  10
TORSDOF 6
ENDMDL
MODEL 6
REMARK VINA RESULT:      -5.4      4.063      6.904
REMARK  Name = NuBBE_1743
REMARK  10 active torsions:
REMARK  status: ('A' for Active; 'I' for Inactive)
REMARK    1  A    between atoms: C_1  and  C_9
REMARK    2  A    between atoms: C_1  and  C_15
REMARK    3  A    between atoms: C_2  and  C_3
REMARK    4  A    between atoms: C_3  and  C_4
REMARK    5  A    between atoms: C_5  and  C_6
REMARK    6  A    between atoms: C_5  and  C_8
REMARK    7  A    between atoms: C_9  and  C_10
REMARK    8  A    between atoms: C_10  and  C_11
REMARK    9  A    between atoms: C_12  and  C_13
REMARK   10  A    between atoms: C_12  and  C_14
REMARK                            x       y       z     vdW  Elec       q    Type
REMARK                         _______ _______ _______ _____ _____    ______ ____
ROOT
ATOM      1  C   LIG A   1      -5.958   0.569 125.442  0.00  0.00    -0.076 C 
ATOM      2  C   LIG A   1      -6.821   1.250 124.655  0.00  0.00    -0.024 C 
ATOM      3  C   LIG A   1      -4.879   1.230 126.260  0.00  0.00    +0.038 C 
ENDROOT
BRANCH   2   4
ATOM      4  C   LIG A   1      -6.926   2.750 124.477  0.00  0.00    +0.054 C 
BRANCH   4   5
ATOM      5  C   LIG A   1      -6.408   3.200 123.128  0.00  0.00    -0.020 C 
ATOM      6  C   LIG A   1      -7.106   3.368 121.976  0.00  0.00    -0.055 C 
ATOM      7  C   LIG A   1      -8.587   3.119 121.858  0.00  0.00    +0.043 C 
BRANCH   6   8
ATOM      8  C   LIG A   1      -6.415   3.852 120.781  0.00  0.00    -0.005 C 
ATOM      9  C   LIG A   1      -6.996   4.221 119.623  0.00  0.00    +0.008 C 
ENDBRANCH   6   8
ENDBRANCH   4   5
ENDBRANCH   2   4
BRANCH   1  10
ATOM     10  C   LIG A   1      -5.984  -0.958 125.519  0.00  0.00    +0.034 C 
BRANCH  10  11
ATOM     11  C   LIG A   1      -6.075  -1.632 124.140  0.00  0.00    +0.031 C 
BRANCH  11  12
ATOM     12  C   LIG A   1      -7.233  -2.589 123.995  0.00  0.00    -0.028 C 
ATOM     13  C   LIG A   1      -8.461  -2.334 123.500  0.00  0.00    -0.080 C 
ATOM     14  C   LIG A   1      -8.892  -1.033 122.881  0.00  0.00    +0.038 C 
ATOM     15  C   LIG A   1      -9.546  -3.381 123.534  0.00  0.00    +0.038 C 
ENDBRANCH  11  12
ENDBRANCH  10  11
ENDBRANCH   1  10
TORSDOF 6
ENDMDL
MODEL 7
REMARK VINA RESULT:      -5.4      1.208      5.866
REMARK  Name = NuBBE_1743
REMARK  10 active torsions:
REMARK  status: ('A' for Active; 'I' for Inactive)
REMARK    1  A    between atoms: C_1  and  C_9
REMARK    2  A    between atoms: C_1  and  C_15
REMARK    3  A    between atoms: C_2  and  C_3
REMARK    4  A    between atoms: C_3  and  C_4
REMARK    5  A    between atoms: C_5  and  C_6
REMARK    6  A    between atoms: C_5  and  C_8
REMARK    7  A    between atoms: C_9  and  C_10
REMARK    8  A    between atoms: C_10  and  C_11
REMARK    9  A    between atoms: C_12  and  C_13
REMARK   10  A    between atoms: C_12  and  C_14
REMARK                            x       y       z     vdW  Elec       q    Type
REMARK                         _______ _______ _______ _____ _____    ______ ____
ROOT
ATOM      1  C   LIG A   1      -7.758  -1.426 126.774  0.00  0.00    -0.076 C 
ATOM      2  C   LIG A   1      -8.098  -2.714 127.007  0.00  0.00    -0.024 C 
ATOM      3  C   LIG A   1      -7.901  -0.329 127.797  0.00  0.00    +0.038 C 
ENDROOT
BRANCH   2   4
ATOM      4  C   LIG A   1      -8.615  -3.316 128.297  0.00  0.00    +0.054 C 
BRANCH   4   5
ATOM      5  C   LIG A   1      -7.491  -3.811 129.183  0.00  0.00    -0.020 C 
ATOM      6  C   LIG A   1      -7.052  -3.280 130.352  0.00  0.00    -0.055 C 
ATOM      7  C   LIG A   1      -7.648  -2.049 130.983  0.00  0.00    +0.043 C 
BRANCH   6   8
ATOM      8  C   LIG A   1      -5.967  -3.941 131.078  0.00  0.00    -0.005 C 
ATOM      9  C   LIG A   1      -5.469  -5.165 130.818  0.00  0.00    +0.008 C 
ENDBRANCH   6   8
ENDBRANCH   4   5
ENDBRANCH   2   4
BRANCH   1  10
ATOM     10  C   LIG A   1      -7.241  -0.973 125.408  0.00  0.00    +0.034 C 
BRANCH  10  11
ATOM     11  C   LIG A   1      -5.706  -0.941 125.322  0.00  0.00    +0.031 C 
BRANCH  11  12
ATOM     12  C   LIG A   1      -5.081  -2.262 124.943  0.00  0.00    -0.028 C 
ATOM     13  C   LIG A   1      -5.167  -2.910 123.765  0.00  0.00    -0.080 C 
ATOM     14  C   LIG A   1      -5.835  -2.376 122.528  0.00  0.00    +0.038 C 
ATOM     15  C   LIG A   1      -4.573  -4.285 123.589  0.00  0.00    +0.038 C 
ENDBRANCH  11  12
ENDBRANCH  10  11
ENDBRANCH   1  10
TORSDOF 6
ENDMDL
MODEL 8
REMARK VINA RESULT:      -5.3      2.467      5.301
REMARK  Name = NuBBE_1743
REMARK  10 active torsions:
REMARK  status: ('A' for Active; 'I' for Inactive)
REMARK    1  A    between atoms: C_1  and  C_9
REMARK    2  A    between atoms: C_1  and  C_15
REMARK    3  A    between atoms: C_2  and  C_3
REMARK    4  A    between atoms: C_3  and  C_4
REMARK    5  A    between atoms: C_5  and  C_6
REMARK    6  A    between atoms: C_5  and  C_8
REMARK    7  A    between atoms: C_9  and  C_10
REMARK    8  A    between atoms: C_10  and  C_11
REMARK    9  A    between atoms: C_12  and  C_13
REMARK   10  A    between atoms: C_12  and  C_14
REMARK                            x       y       z     vdW  Elec       q    Type
REMARK                         _______ _______ _______ _____ _____    ______ ____
ROOT
ATOM      1  C   LIG A   1      -7.422  -1.389 127.480  0.00  0.00    -0.076 C 
ATOM      2  C   LIG A   1      -7.951  -0.189 127.145  0.00  0.00    -0.024 C 
ATOM      3  C   LIG A   1      -5.997  -1.781 127.186  0.00  0.00    +0.038 C 
ENDROOT
BRANCH   2   4
ATOM      4  C   LIG A   1      -7.250   0.981 126.489  0.00  0.00    +0.054 C 
BRANCH   4   5
ATOM      5  C   LIG A   1      -8.043   1.541 125.327  0.00  0.00    -0.020 C 
ATOM      6  C   LIG A   1      -7.992   1.169 124.023  0.00  0.00    -0.055 C 
ATOM      7  C   LIG A   1      -7.089   0.081 123.502  0.00  0.00    +0.043 C 
BRANCH   6   8
ATOM      8  C   LIG A   1      -8.879   1.818 123.056  0.00  0.00    -0.005 C 
ATOM      9  C   LIG A   1      -8.602   2.931 122.349  0.00  0.00    +0.008 C 
ENDBRANCH   6   8
ENDBRANCH   4   5
ENDBRANCH   2   4
BRANCH   1  10
ATOM     10  C   LIG A   1      -8.266  -2.473 128.149  0.00  0.00    +0.034 C 
BRANCH  10  11
ATOM     11  C   LIG A   1      -8.542  -3.677 127.232  0.00  0.00    +0.031 C 
BRANCH  11  12
ATOM     12  C   LIG A   1      -9.201  -3.318 125.923  0.00  0.00    -0.028 C 
ATOM     13  C   LIG A   1      -8.653  -3.321 124.691  0.00  0.00    -0.080 C 
ATOM     14  C   LIG A   1      -7.266  -3.799 124.361  0.00  0.00    +0.038 C 
ATOM     15  C   LIG A   1      -9.425  -2.821 123.495  0.00  0.00    +0.038 C 
ENDBRANCH  11  12
ENDBRANCH  10  11
ENDBRANCH   1  10
TORSDOF 6
ENDMDL
MODEL 9
REMARK VINA RESULT:      -5.2     10.241     12.371
REMARK  Name = NuBBE_1743
REMARK  10 active torsions:
REMARK  status: ('A' for Active; 'I' for Inactive)
REMARK    1  A    between atoms: C_1  and  C_9
REMARK    2  A    between atoms: C_1  and  C_15
REMARK    3  A    between atoms: C_2  and  C_3
REMARK    4  A    between atoms: C_3  and  C_4
REMARK    5  A    between atoms: C_5  and  C_6
REMARK    6  A    between atoms: C_5  and  C_8
REMARK    7  A    between atoms: C_9  and  C_10
REMARK    8  A    between atoms: C_10  and  C_11
REMARK    9  A    between atoms: C_12  and  C_13
REMARK   10  A    between atoms: C_12  and  C_14
REMARK                            x       y       z     vdW  Elec       q    Type
REMARK                         _______ _______ _______ _____ _____    ______ ____
ROOT
ATOM      1  C   LIG A   1      -9.344   5.868 131.229  0.00  0.00    -0.076 C 
ATOM      2  C   LIG A   1      -8.142   6.475 131.354  0.00  0.00    -0.024 C 
ATOM      3  C   LIG A   1      -9.553   4.585 130.468  0.00  0.00    +0.038 C 
ENDROOT
BRANCH   2   4
ATOM      4  C   LIG A   1      -6.804   5.995 130.833  0.00  0.00    +0.054 C 
BRANCH   4   5
ATOM      5  C   LIG A   1      -5.722   7.041 130.998  0.00  0.00    -0.020 C 
ATOM      6  C   LIG A   1      -4.387   6.847 131.153  0.00  0.00    -0.055 C 
ATOM      7  C   LIG A   1      -3.743   5.486 131.187  0.00  0.00    +0.043 C 
BRANCH   6   8
ATOM      8  C   LIG A   1      -3.500   8.007 131.258  0.00  0.00    -0.005 C 
ATOM      9  C   LIG A   1      -2.649   8.265 132.269  0.00  0.00    +0.008 C 
ENDBRANCH   6   8
ENDBRANCH   4   5
ENDBRANCH   2   4
BRANCH   1  10
ATOM     10  C   LIG A   1     -10.613   6.482 131.823  0.00  0.00    +0.034 C 
BRANCH  10  11
ATOM     11  C   LIG A   1     -11.851   6.293 130.930  0.00  0.00    +0.031 C 
BRANCH  11  12
ATOM     12  C   LIG A   1     -12.566   7.577 130.587  0.00  0.00    -0.028 C 
ATOM     13  C   LIG A   1     -12.254   8.468 129.625  0.00  0.00    -0.080 C 
ATOM     14  C   LIG A   1     -11.160   8.296 128.607  0.00  0.00    +0.038 C 
ATOM     15  C   LIG A   1     -13.011   9.765 129.490  0.00  0.00    +0.038 C 
ENDBRANCH  11  12
ENDBRANCH  10  11
ENDBRANCH   1  10
TORSDOF 6
ENDMDL
