MODEL 1
REMARK VINA RESULT:      -9.9      0.000      0.000
REMARK  Name = NuBBE_288
REMARK  13 active torsions:
REMARK  status: ('A' for Active; 'I' for Inactive)
REMARK    1  A    between atoms: O_1  and  C_2
REMARK    2  A    between atoms: C_4  and  O_5
REMARK    3  A    between atoms: C_7  and  C_25
REMARK    4  A    between atoms: C_9  and  O_24
REMARK    5  A    between atoms: C_11  and  C_16
REMARK    6  A    between atoms: C_19  and  O_23
REMARK    7  A    between atoms: C_20  and  O_21
REMARK    8  A    between atoms: C_29  and  O_42
REMARK    9  A    between atoms: C_31  and  C_34
REMARK   10  A    between atoms: C_37  and  O_41
REMARK   11  A    between atoms: C_38  and  O_39
REMARK   12  A    between atoms: C_43  and  O_47
REMARK   13  A    between atoms: C_45  and  O_46
REMARK                            x       y       z     vdW  Elec       q    Type
REMARK                         _______ _______ _______ _____ _____    ______ ____
ROOT
ATOM      1  C   LIG A   1      -7.703  -0.894 126.592  0.00  0.00    +0.124 A 
ATOM      2  C   LIG A   1      -7.905  -0.143 127.746  0.00  0.00    +0.091 A 
ATOM      3  C   LIG A   1      -7.720   1.242 127.703  0.00  0.00    +0.128 A 
ATOM      4  C   LIG A   1      -7.352   1.891 126.515  0.00  0.00    +0.046 A 
ATOM      5  C   LIG A   1      -7.113   3.386 126.418  0.00  0.00    +0.096 C 
ATOM      6  C   LIG A   1      -7.178   3.963 124.976  0.00  0.00    +0.172 C 
ATOM      7  C   LIG A   1      -7.672   2.900 123.973  0.00  0.00    +0.233 C 
ATOM      8  O   LIG A   1      -6.966   1.663 124.135  0.00  0.00    -0.481 OA
ATOM      9  C   LIG A   1      -7.228   1.108 125.361  0.00  0.00    +0.132 A 
ATOM     10  C   LIG A   1      -7.361  -0.277 125.400  0.00  0.00    +0.091 A 
ENDROOT
BRANCH   5  11
ATOM     11  C   LIG A   1      -5.865   3.871 127.180  0.00  0.00    +0.046 A 
ATOM     12  C   LIG A   1      -5.923   4.589 128.402  0.00  0.00    +0.136 A 
ATOM     13  C   LIG A   1      -4.746   5.054 129.031  0.00  0.00    +0.039 A 
ATOM     14  C   LIG A   1      -4.809   5.856 130.299  0.00  0.00    +0.078 C 
ATOM     15  C   LIG A   1      -6.212   6.312 130.659  0.00  0.00    +0.164 C 
ATOM     16  C   LIG A   1      -7.185   5.162 130.343  0.00  0.00    +0.232 C 
ATOM     17  O   LIG A   1      -7.166   4.832 128.939  0.00  0.00    -0.481 OA
ATOM     18  C   LIG A   1      -3.507   4.736 128.466  0.00  0.00    +0.127 A 
ATOM     19  C   LIG A   1      -3.423   4.005 127.290  0.00  0.00    +0.091 A 
ATOM     20  C   LIG A   1      -4.590   3.587 126.657  0.00  0.00    +0.128 A 
BRANCH  16  21
ATOM     21  C   LIG A   1      -8.598   5.542 130.767  0.00  0.00    -0.001 A 
ATOM     22  C   LIG A   1      -8.939   5.765 132.112  0.00  0.00    +0.011 A 
ATOM     23  C   LIG A   1     -10.257   6.061 132.482  0.00  0.00    +0.049 A 
ATOM     24  C   LIG A   1     -11.241   6.114 131.504  0.00  0.00    +0.158 A 
ATOM     25  C   LIG A   1     -10.918   5.882 130.172  0.00  0.00    +0.159 A 
ATOM     26  C   LIG A   1      -9.612   5.602 129.795  0.00  0.00    +0.056 A 
BRANCH  25  27
ATOM     27  O   LIG A   1     -11.892   5.920 129.215  0.00  0.00    -0.503 OA
ATOM     28  H   LIG A   1     -11.597   6.617 128.596  0.00  0.00    +0.292 HD
ENDBRANCH  25  27
BRANCH  24  29
ATOM     29  O   LIG A   1     -12.548   6.385 131.804  0.00  0.00    -0.503 OA
ATOM     30  H   LIG A   1     -13.026   5.539 131.841  0.00  0.00    +0.292 HD
ENDBRANCH  24  29
ENDBRANCH  16  21
BRANCH  15  31
ATOM     31  O   LIG A   1      -6.181   6.677 132.044  0.00  0.00    -0.388 OA
ATOM     32  H   LIG A   1      -5.741   7.545 132.109  0.00  0.00    +0.210 HD
ENDBRANCH  15  31
BRANCH  20  33
ATOM     33  O   LIG A   1      -4.488   2.888 125.485  0.00  0.00    -0.506 OA
ATOM     34  H   LIG A   1      -5.030   3.332 124.808  0.00  0.00    +0.292 HD
ENDBRANCH  20  33
BRANCH  18  35
ATOM     35  O   LIG A   1      -2.311   5.107 129.014  0.00  0.00    -0.506 OA
ATOM     36  H   LIG A   1      -1.647   4.411 128.885  0.00  0.00    +0.292 HD
ENDBRANCH  18  35
ENDBRANCH   5  11
BRANCH   7  37
ATOM     37  C   LIG A   1      -7.520   3.318 122.514  0.00  0.00    -0.001 A 
ATOM     38  C   LIG A   1      -6.250   3.621 121.985  0.00  0.00    +0.011 A 
ATOM     39  C   LIG A   1      -6.097   4.030 120.654  0.00  0.00    +0.049 A 
ATOM     40  C   LIG A   1      -7.224   4.137 119.848  0.00  0.00    +0.158 A 
ATOM     41  C   LIG A   1      -8.481   3.840 120.358  0.00  0.00    +0.159 A 
ATOM     42  C   LIG A   1      -8.644   3.441 121.679  0.00  0.00    +0.056 A 
BRANCH  41  43
ATOM     43  O   LIG A   1      -9.586   3.942 119.555  0.00  0.00    -0.503 OA
ATOM     44  H   LIG A   1      -9.308   4.548 118.840  0.00  0.00    +0.292 HD
ENDBRANCH  41  43
BRANCH  40  45
ATOM     45  O   LIG A   1      -7.142   4.538 118.541  0.00  0.00    -0.503 OA
ATOM     46  H   LIG A   1      -7.787   5.249 118.404  0.00  0.00    +0.292 HD
ENDBRANCH  40  45
ENDBRANCH   7  37
BRANCH   1  47
ATOM     47  O   LIG A   1      -7.852  -2.249 126.589  0.00  0.00    -0.506 OA
ATOM     48  H   LIG A   1      -8.528  -2.483 125.930  0.00  0.00    +0.292 HD
ENDBRANCH   1  47
BRANCH   3  49
ATOM     49  O   LIG A   1      -7.956   1.899 128.880  0.00  0.00    -0.506 OA
ATOM     50  H   LIG A   1      -8.911   2.019 129.015  0.00  0.00    +0.292 HD
ENDBRANCH   3  49
BRANCH   6  51
ATOM     51  O   LIG A   1      -8.095   5.083 124.959  0.00  0.00    -0.387 OA
ATOM     52  H   LIG A   1      -7.714   5.753 124.364  0.00  0.00    +0.210 HD
ENDBRANCH   6  51
TORSDOF 13
ENDMDL
MODEL 2
REMARK VINA RESULT:      -9.7      3.649      8.994
REMARK  Name = NuBBE_288
REMARK  13 active torsions:
REMARK  status: ('A' for Active; 'I' for Inactive)
REMARK    1  A    between atoms: O_1  and  C_2
REMARK    2  A    between atoms: C_4  and  O_5
REMARK    3  A    between atoms: C_7  and  C_25
REMARK    4  A    between atoms: C_9  and  O_24
REMARK    5  A    between atoms: C_11  and  C_16
REMARK    6  A    between atoms: C_19  and  O_23
REMARK    7  A    between atoms: C_20  and  O_21
REMARK    8  A    between atoms: C_29  and  O_42
REMARK    9  A    between atoms: C_31  and  C_34
REMARK   10  A    between atoms: C_37  and  O_41
REMARK   11  A    between atoms: C_38  and  O_39
REMARK   12  A    between atoms: C_43  and  O_47
REMARK   13  A    between atoms: C_45  and  O_46
REMARK                            x       y       z     vdW  Elec       q    Type
REMARK                         _______ _______ _______ _____ _____    ______ ____
ROOT
ATOM      1  C   LIG A   1      -3.496   3.304 126.367  0.00  0.00    +0.124 A 
ATOM      2  C   LIG A   1      -4.428   3.987 125.590  0.00  0.00    +0.091 A 
ATOM      3  C   LIG A   1      -5.791   3.739 125.780  0.00  0.00    +0.128 A 
ATOM      4  C   LIG A   1      -6.237   2.830 126.750  0.00  0.00    +0.046 A 
ATOM      5  C   LIG A   1      -7.700   2.504 126.981  0.00  0.00    +0.096 C 
ATOM      6  C   LIG A   1      -8.015   1.862 128.361  0.00  0.00    +0.172 C 
ATOM      7  C   LIG A   1      -6.774   1.880 129.278  0.00  0.00    +0.233 C 
ATOM      8  O   LIG A   1      -5.613   1.389 128.594  0.00  0.00    -0.481 OA
ATOM      9  C   LIG A   1      -5.270   2.218 127.557  0.00  0.00    +0.132 A 
ATOM     10  C   LIG A   1      -3.909   2.418 127.347  0.00  0.00    +0.091 A 
ENDROOT
BRANCH   5  11
ATOM     11  C   LIG A   1      -8.361   1.735 125.821  0.00  0.00    +0.046 A 
ATOM     12  C   LIG A   1      -8.329   0.323 125.698  0.00  0.00    +0.136 A 
ATOM     13  C   LIG A   1      -8.909  -0.326 124.585  0.00  0.00    +0.039 A 
ATOM     14  C   LIG A   1      -8.832  -1.818 124.430  0.00  0.00    +0.078 C 
ATOM     15  C   LIG A   1      -7.882  -2.482 125.412  0.00  0.00    +0.164 C 
ATOM     16  C   LIG A   1      -8.040  -1.786 126.775  0.00  0.00    +0.232 C 
ATOM     17  O   LIG A   1      -7.695  -0.388 126.692  0.00  0.00    -0.481 OA
ATOM     18  C   LIG A   1      -9.582   0.442 123.630  0.00  0.00    +0.127 A 
ATOM     19  C   LIG A   1      -9.657   1.822 123.746  0.00  0.00    +0.091 A 
ATOM     20  C   LIG A   1      -9.047   2.455 124.825  0.00  0.00    +0.128 A 
BRANCH  16  21
ATOM     21  C   LIG A   1      -7.166  -2.474 127.817  0.00  0.00    -0.001 A 
ATOM     22  C   LIG A   1      -7.694  -3.384 128.749  0.00  0.00    +0.011 A 
ATOM     23  C   LIG A   1      -6.879  -3.962 129.731  0.00  0.00    +0.049 A 
ATOM     24  C   LIG A   1      -5.537  -3.613 129.793  0.00  0.00    +0.158 A 
ATOM     25  C   LIG A   1      -5.008  -2.702 128.885  0.00  0.00    +0.159 A 
ATOM     26  C   LIG A   1      -5.804  -2.136 127.900  0.00  0.00    +0.056 A 
BRANCH  25  27
ATOM     27  O   LIG A   1      -3.691  -2.349 128.959  0.00  0.00    -0.503 OA
ATOM     28  H   LIG A   1      -3.358  -2.819 129.749  0.00  0.00    +0.292 HD
ENDBRANCH  25  27
BRANCH  24  29
ATOM     29  O   LIG A   1      -4.695  -4.132 130.737  0.00  0.00    -0.503 OA
ATOM     30  H   LIG A   1      -4.103  -3.420 131.033  0.00  0.00    +0.292 HD
ENDBRANCH  24  29
ENDBRANCH  16  21
BRANCH  15  31
ATOM     31  O   LIG A   1      -8.221  -3.874 125.432  0.00  0.00    -0.388 OA
ATOM     32  H   LIG A   1      -9.053  -3.967 125.933  0.00  0.00    +0.210 HD
ENDBRANCH  15  31
BRANCH  20  33
ATOM     33  O   LIG A   1      -9.112   3.819 124.910  0.00  0.00    -0.506 OA
ATOM     34  H   LIG A   1      -9.236   4.068 125.845  0.00  0.00    +0.292 HD
ENDBRANCH  20  33
BRANCH  18  35
ATOM     35  O   LIG A   1     -10.206  -0.092 122.537  0.00  0.00    -0.506 OA
ATOM     36  H   LIG A   1     -11.140   0.171 122.516  0.00  0.00    +0.292 HD
ENDBRANCH  18  35
ENDBRANCH   5  11
BRANCH   7  37
ATOM     37  C   LIG A   1      -6.937   1.045 130.545  0.00  0.00    -0.001 A 
ATOM     38  C   LIG A   1      -7.631  -0.180 130.509  0.00  0.00    +0.011 A 
ATOM     39  C   LIG A   1      -7.811  -0.946 131.669  0.00  0.00    +0.049 A 
ATOM     40  C   LIG A   1      -7.292  -0.480 132.872  0.00  0.00    +0.158 A 
ATOM     41  C   LIG A   1      -6.606   0.726 132.918  0.00  0.00    +0.159 A 
ATOM     42  C   LIG A   1      -6.430   1.497 131.775  0.00  0.00    +0.056 A 
BRANCH  41  43
ATOM     43  O   LIG A   1      -6.094   1.175 134.106  0.00  0.00    -0.503 OA
ATOM     44  H   LIG A   1      -6.838   1.651 134.524  0.00  0.00    +0.292 HD
ENDBRANCH  41  43
BRANCH  40  45
ATOM     45  O   LIG A   1      -7.441  -1.178 134.041  0.00  0.00    -0.503 OA
ATOM     46  H   LIG A   1      -6.986  -2.029 133.941  0.00  0.00    +0.292 HD
ENDBRANCH  40  45
ENDBRANCH   7  37
BRANCH   1  47
ATOM     47  O   LIG A   1      -2.156   3.497 126.204  0.00  0.00    -0.506 OA
ATOM     48  H   LIG A   1      -1.684   2.863 126.770  0.00  0.00    +0.292 HD
ENDBRANCH   1  47
BRANCH   3  49
ATOM     49  O   LIG A   1      -6.632   4.467 124.983  0.00  0.00    -0.506 OA
ATOM     50  H   LIG A   1      -7.557   4.215 125.148  0.00  0.00    +0.292 HD
ENDBRANCH   3  49
BRANCH   6  51
ATOM     51  O   LIG A   1      -9.076   2.613 128.997  0.00  0.00    -0.387 OA
ATOM     52  H   LIG A   1      -9.047   2.397 129.947  0.00  0.00    +0.210 HD
ENDBRANCH   6  51
TORSDOF 13
ENDMDL
MODEL 3
REMARK VINA RESULT:      -9.5      2.701      8.092
REMARK  Name = NuBBE_288
REMARK  13 active torsions:
REMARK  status: ('A' for Active; 'I' for Inactive)
REMARK    1  A    between atoms: O_1  and  C_2
REMARK    2  A    between atoms: C_4  and  O_5
REMARK    3  A    between atoms: C_7  and  C_25
REMARK    4  A    between atoms: C_9  and  O_24
REMARK    5  A    between atoms: C_11  and  C_16
REMARK    6  A    between atoms: C_19  and  O_23
REMARK    7  A    between atoms: C_20  and  O_21
REMARK    8  A    between atoms: C_29  and  O_42
REMARK    9  A    between atoms: C_31  and  C_34
REMARK   10  A    between atoms: C_37  and  O_41
REMARK   11  A    between atoms: C_38  and  O_39
REMARK   12  A    between atoms: C_43  and  O_47
REMARK   13  A    between atoms: C_45  and  O_46
REMARK                            x       y       z     vdW  Elec       q    Type
REMARK                         _______ _______ _______ _____ _____    ______ ____
ROOT
ATOM      1  C   LIG A   1      -2.912   3.094 127.075  0.00  0.00    +0.124 A 
ATOM      2  C   LIG A   1      -3.448   3.463 125.845  0.00  0.00    +0.091 A 
ATOM      3  C   LIG A   1      -4.825   3.675 125.734  0.00  0.00    +0.128 A 
ATOM      4  C   LIG A   1      -5.674   3.541 126.843  0.00  0.00    +0.046 A 
ATOM      5  C   LIG A   1      -7.177   3.733 126.774  0.00  0.00    +0.096 C 
ATOM      6  C   LIG A   1      -7.862   4.002 128.143  0.00  0.00    +0.172 C 
ATOM      7  C   LIG A   1      -6.816   4.209 129.257  0.00  0.00    +0.233 C 
ATOM      8  O   LIG A   1      -5.818   3.179 129.233  0.00  0.00    -0.481 OA
ATOM      9  C   LIG A   1      -5.085   3.237 128.076  0.00  0.00    +0.132 A 
ATOM     10  C   LIG A   1      -3.722   2.976 128.191  0.00  0.00    +0.091 A 
ENDROOT
BRANCH   5  11
ATOM     11  C   LIG A   1      -7.911   2.648 125.962  0.00  0.00    +0.046 A 
ATOM     12  C   LIG A   1      -8.038   1.302 126.389  0.00  0.00    +0.136 A 
ATOM     13  C   LIG A   1      -8.677   0.337 125.579  0.00  0.00    +0.039 A 
ATOM     14  C   LIG A   1      -8.769  -1.099 126.008  0.00  0.00    +0.078 C 
ATOM     15  C   LIG A   1      -7.909  -1.427 127.217  0.00  0.00    +0.164 C 
ATOM     16  C   LIG A   1      -7.999  -0.248 128.202  0.00  0.00    +0.232 C 
ATOM     17  O   LIG A   1      -7.497   0.968 127.609  0.00  0.00    -0.481 OA
ATOM     18  C   LIG A   1      -9.251   0.743 124.370  0.00  0.00    +0.127 A 
ATOM     19  C   LIG A   1      -9.171   2.061 123.947  0.00  0.00    +0.091 A 
ATOM     20  C   LIG A   1      -8.502   2.995 124.733  0.00  0.00    +0.128 A 
BRANCH  16  21
ATOM     21  C   LIG A   1      -7.217  -0.567 129.470  0.00  0.00    -0.001 A 
ATOM     22  C   LIG A   1      -5.841  -0.855 129.445  0.00  0.00    +0.011 A 
ATOM     23  C   LIG A   1      -5.156  -1.197 130.618  0.00  0.00    +0.049 A 
ATOM     24  C   LIG A   1      -5.854  -1.272 131.816  0.00  0.00    +0.158 A 
ATOM     25  C   LIG A   1      -7.218  -1.003 131.849  0.00  0.00    +0.159 A 
ATOM     26  C   LIG A   1      -7.901  -0.650 130.695  0.00  0.00    +0.056 A 
BRANCH  25  27
ATOM     27  O   LIG A   1      -7.904  -1.093 133.027  0.00  0.00    -0.503 OA
ATOM     28  H   LIG A   1      -8.421  -1.919 132.944  0.00  0.00    +0.292 HD
ENDBRANCH  25  27
BRANCH  24  29
ATOM     29  O   LIG A   1      -5.243  -1.614 132.991  0.00  0.00    -0.503 OA
ATOM     30  H   LIG A   1      -4.282  -1.555 132.855  0.00  0.00    +0.292 HD
ENDBRANCH  24  29
ENDBRANCH  16  21
BRANCH  15  31
ATOM     31  O   LIG A   1      -8.404  -2.663 127.748  0.00  0.00    -0.388 OA
ATOM     32  H   LIG A   1      -7.823  -2.917 128.489  0.00  0.00    +0.210 HD
ENDBRANCH  15  31
BRANCH  20  33
ATOM     33  O   LIG A   1      -8.413   4.286 124.288  0.00  0.00    -0.506 OA
ATOM     34  H   LIG A   1      -9.023   4.400 123.537  0.00  0.00    +0.292 HD
ENDBRANCH  20  33
BRANCH  18  35
ATOM     35  O   LIG A   1      -9.922  -0.104 123.533  0.00  0.00    -0.506 OA
ATOM     36  H   LIG A   1      -9.431  -0.224 122.704  0.00  0.00    +0.292 HD
ENDBRANCH  18  35
ENDBRANCH   5  11
BRANCH   7  37
ATOM     37  C   LIG A   1      -7.412   4.225 130.662  0.00  0.00    -0.001 A 
ATOM     38  C   LIG A   1      -7.712   5.446 131.296  0.00  0.00    +0.011 A 
ATOM     39  C   LIG A   1      -8.237   5.480 132.595  0.00  0.00    +0.049 A 
ATOM     40  C   LIG A   1      -8.462   4.281 133.262  0.00  0.00    +0.158 A 
ATOM     41  C   LIG A   1      -8.171   3.071 132.645  0.00  0.00    +0.159 A 
ATOM     42  C   LIG A   1      -7.643   3.029 131.361  0.00  0.00    +0.056 A 
BRANCH  41  43
ATOM     43  O   LIG A   1      -8.402   1.895 133.307  0.00  0.00    -0.503 OA
ATOM     44  H   LIG A   1      -8.985   1.391 132.707  0.00  0.00    +0.292 HD
ENDBRANCH  41  43
BRANCH  40  45
ATOM     45  O   LIG A   1      -8.967   4.247 134.535  0.00  0.00    -0.503 OA
ATOM     46  H   LIG A   1      -9.739   3.660 134.535  0.00  0.00    +0.292 HD
ENDBRANCH  40  45
ENDBRANCH   7  37
BRANCH   1  47
ATOM     47  O   LIG A   1      -1.577   2.857 127.228  0.00  0.00    -0.506 OA
ATOM     48  H   LIG A   1      -1.174   2.791 126.345  0.00  0.00    +0.292 HD
ENDBRANCH   1  47
BRANCH   3  49
ATOM     49  O   LIG A   1      -5.260   4.049 124.492  0.00  0.00    -0.506 OA
ATOM     50  H   LIG A   1      -6.193   3.806 124.372  0.00  0.00    +0.292 HD
ENDBRANCH   3  49
BRANCH   6  51
ATOM     51  O   LIG A   1      -8.673   5.196 128.036  0.00  0.00    -0.387 OA
ATOM     52  H   LIG A   1      -9.424   5.085 128.647  0.00  0.00    +0.210 HD
ENDBRANCH   6  51
TORSDOF 13
ENDMDL
MODEL 4
REMARK VINA RESULT:      -9.3      2.815      7.113
REMARK  Name = NuBBE_288
REMARK  13 active torsions:
REMARK  status: ('A' for Active; 'I' for Inactive)
REMARK    1  A    between atoms: O_1  and  C_2
REMARK    2  A    between atoms: C_4  and  O_5
REMARK    3  A    between atoms: C_7  and  C_25
REMARK    4  A    between atoms: C_9  and  O_24
REMARK    5  A    between atoms: C_11  and  C_16
REMARK    6  A    between atoms: C_19  and  O_23
REMARK    7  A    between atoms: C_20  and  O_21
REMARK    8  A    between atoms: C_29  and  O_42
REMARK    9  A    between atoms: C_31  and  C_34
REMARK   10  A    between atoms: C_37  and  O_41
REMARK   11  A    between atoms: C_38  and  O_39
REMARK   12  A    between atoms: C_43  and  O_47
REMARK   13  A    between atoms: C_45  and  O_46
REMARK                            x       y       z     vdW  Elec       q    Type
REMARK                         _______ _______ _______ _____ _____    ______ ____
ROOT
ATOM      1  C   LIG A   1      -8.010   1.305 129.556  0.00  0.00    +0.124 A 
ATOM      2  C   LIG A   1      -7.397   1.118 130.791  0.00  0.00    +0.091 A 
ATOM      3  C   LIG A   1      -7.288   2.198 131.672  0.00  0.00    +0.128 A 
ATOM      4  C   LIG A   1      -7.801   3.461 131.343  0.00  0.00    +0.046 A 
ATOM      5  C   LIG A   1      -7.687   4.673 132.248  0.00  0.00    +0.096 C 
ATOM      6  C   LIG A   1      -8.692   5.816 131.935  0.00  0.00    +0.172 C 
ATOM      7  C   LIG A   1      -9.726   5.374 130.879  0.00  0.00    +0.233 C 
ATOM      8  O   LIG A   1      -9.089   4.756 129.752  0.00  0.00    -0.481 OA
ATOM      9  C   LIG A   1      -8.472   3.589 130.120  0.00  0.00    +0.132 A 
ATOM     10  C   LIG A   1      -8.545   2.535 129.213  0.00  0.00    +0.091 A 
ENDROOT
BRANCH   5  11
ATOM     11  C   LIG A   1      -6.248   5.197 132.416  0.00  0.00    +0.046 A 
ATOM     12  C   LIG A   1      -5.279   5.170 131.381  0.00  0.00    +0.136 A 
ATOM     13  C   LIG A   1      -3.958   5.617 131.607  0.00  0.00    +0.039 A 
ATOM     14  C   LIG A   1      -2.918   5.543 130.526  0.00  0.00    +0.078 C 
ATOM     15  C   LIG A   1      -3.353   4.731 129.320  0.00  0.00    +0.164 C 
ATOM     16  C   LIG A   1      -4.834   5.045 129.041  0.00  0.00    +0.232 C 
ATOM     17  O   LIG A   1      -5.667   4.672 130.158  0.00  0.00    -0.481 OA
ATOM     18  C   LIG A   1      -3.632   6.157 132.855  0.00  0.00    +0.127 A 
ATOM     19  C   LIG A   1      -4.572   6.227 133.872  0.00  0.00    +0.091 A 
ATOM     20  C   LIG A   1      -5.858   5.746 133.652  0.00  0.00    +0.128 A 
BRANCH  16  21
ATOM     21  C   LIG A   1      -5.295   4.315 127.786  0.00  0.00    -0.001 A 
ATOM     22  C   LIG A   1      -5.335   2.911 127.712  0.00  0.00    +0.011 A 
ATOM     23  C   LIG A   1      -5.712   2.263 126.529  0.00  0.00    +0.049 A 
ATOM     24  C   LIG A   1      -6.030   3.021 125.410  0.00  0.00    +0.158 A 
ATOM     25  C   LIG A   1      -5.980   4.410 125.468  0.00  0.00    +0.159 A 
ATOM     26  C   LIG A   1      -5.622   5.060 126.639  0.00  0.00    +0.056 A 
BRANCH  25  27
ATOM     27  O   LIG A   1      -6.279   5.151 124.361  0.00  0.00    -0.503 OA
ATOM     28  H   LIG A   1      -7.145   5.556 124.566  0.00  0.00    +0.292 HD
ENDBRANCH  25  27
BRANCH  24  29
ATOM     29  O   LIG A   1      -6.392   2.446 124.223  0.00  0.00    -0.503 OA
ATOM     30  H   LIG A   1      -6.845   3.122 123.690  0.00  0.00    +0.292 HD
ENDBRANCH  24  29
ENDBRANCH  16  21
BRANCH  15  31
ATOM     31  O   LIG A   1      -2.475   5.089 128.245  0.00  0.00    -0.388 OA
ATOM     32  H   LIG A   1      -1.785   5.672 128.613  0.00  0.00    +0.210 HD
ENDBRANCH  15  31
BRANCH  20  33
ATOM     33  O   LIG A   1      -6.766   5.801 134.675  0.00  0.00    -0.506 OA
ATOM     34  H   LIG A   1      -7.031   4.892 134.906  0.00  0.00    +0.292 HD
ENDBRANCH  20  33
BRANCH  18  35
ATOM     35  O   LIG A   1      -2.394   6.650 133.163  0.00  0.00    -0.506 OA
ATOM     36  H   LIG A   1      -2.234   6.597 134.119  0.00  0.00    +0.292 HD
ENDBRANCH  18  35
ENDBRANCH   5  11
BRANCH   7  37
ATOM     37  C   LIG A   1     -10.581   6.518 130.342  0.00  0.00    -0.001 A 
ATOM     38  C   LIG A   1     -11.789   6.866 130.976  0.00  0.00    +0.011 A 
ATOM     39  C   LIG A   1     -12.598   7.898 130.482  0.00  0.00    +0.049 A 
ATOM     40  C   LIG A   1     -12.192   8.585 129.343  0.00  0.00    +0.158 A 
ATOM     41  C   LIG A   1     -11.002   8.251 128.709  0.00  0.00    +0.159 A 
ATOM     42  C   LIG A   1     -10.198   7.223 129.189  0.00  0.00    +0.056 A 
BRANCH  41  43
ATOM     43  O   LIG A   1     -10.608   8.936 127.592  0.00  0.00    -0.503 OA
ATOM     44  H   LIG A   1     -10.943   9.842 127.735  0.00  0.00    +0.292 HD
ENDBRANCH  41  43
BRANCH  40  45
ATOM     45  O   LIG A   1     -12.941   9.598 128.806  0.00  0.00    -0.503 OA
ATOM     46  H   LIG A   1     -13.585   9.205 128.197  0.00  0.00    +0.292 HD
ENDBRANCH  40  45
ENDBRANCH   7  37
BRANCH   1  47
ATOM     47  O   LIG A   1      -8.122   0.288 128.655  0.00  0.00    -0.506 OA
ATOM     48  H   LIG A   1      -8.036   0.659 127.761  0.00  0.00    +0.292 HD
ENDBRANCH   1  47
BRANCH   3  49
ATOM     49  O   LIG A   1      -6.684   1.917 132.868  0.00  0.00    -0.506 OA
ATOM     50  H   LIG A   1      -6.540   0.960 132.958  0.00  0.00    +0.292 HD
ENDBRANCH   3  49
BRANCH   6  51
ATOM     51  O   LIG A   1      -9.391   6.174 133.151  0.00  0.00    -0.387 OA
ATOM     52  H   LIG A   1     -10.334   6.259 132.923  0.00  0.00    +0.210 HD
ENDBRANCH   6  51
TORSDOF 13
ENDMDL
MODEL 5
REMARK VINA RESULT:      -9.2      2.468      6.553
REMARK  Name = NuBBE_288
REMARK  13 active torsions:
REMARK  status: ('A' for Active; 'I' for Inactive)
REMARK    1  A    between atoms: O_1  and  C_2
REMARK    2  A    between atoms: C_4  and  O_5
REMARK    3  A    between atoms: C_7  and  C_25
REMARK    4  A    between atoms: C_9  and  O_24
REMARK    5  A    between atoms: C_11  and  C_16
REMARK    6  A    between atoms: C_19  and  O_23
REMARK    7  A    between atoms: C_20  and  O_21
REMARK    8  A    between atoms: C_29  and  O_42
REMARK    9  A    between atoms: C_31  and  C_34
REMARK   10  A    between atoms: C_37  and  O_41
REMARK   11  A    between atoms: C_38  and  O_39
REMARK   12  A    between atoms: C_43  and  O_47
REMARK   13  A    between atoms: C_45  and  O_46
REMARK                            x       y       z     vdW  Elec       q    Type
REMARK                         _______ _______ _______ _____ _____    ______ ____
ROOT
ATOM      1  C   LIG A   1      -8.151   0.912 131.162  0.00  0.00    +0.124 A 
ATOM      2  C   LIG A   1      -7.066   1.339 131.922  0.00  0.00    +0.091 A 
ATOM      3  C   LIG A   1      -6.689   2.685 131.883  0.00  0.00    +0.128 A 
ATOM      4  C   LIG A   1      -7.393   3.615 131.105  0.00  0.00    +0.046 A 
ATOM      5  C   LIG A   1      -7.012   5.080 131.004  0.00  0.00    +0.096 C 
ATOM      6  C   LIG A   1      -8.146   6.014 130.496  0.00  0.00    +0.172 C 
ATOM      7  C   LIG A   1      -9.485   5.257 130.391  0.00  0.00    +0.233 C 
ATOM      8  O   LIG A   1      -9.327   4.010 129.701  0.00  0.00    -0.481 OA
ATOM      9  C   LIG A   1      -8.520   3.158 130.410  0.00  0.00    +0.132 A 
ATOM     10  C   LIG A   1      -8.878   1.813 130.403  0.00  0.00    +0.091 A 
ENDROOT
BRANCH   5  11
ATOM     11  C   LIG A   1      -5.681   5.332 130.269  0.00  0.00    +0.046 A 
ATOM     12  C   LIG A   1      -5.409   4.864 128.959  0.00  0.00    +0.136 A 
ATOM     13  C   LIG A   1      -4.151   5.081 128.353  0.00  0.00    +0.039 A 
ATOM     14  C   LIG A   1      -3.846   4.543 126.985  0.00  0.00    +0.078 C 
ATOM     15  C   LIG A   1      -4.889   3.568 126.469  0.00  0.00    +0.164 C 
ATOM     16  C   LIG A   1      -6.278   4.094 126.874  0.00  0.00    +0.232 C 
ATOM     17  O   LIG A   1      -6.408   4.175 128.309  0.00  0.00    -0.481 OA
ATOM     18  C   LIG A   1      -3.191   5.829 129.041  0.00  0.00    +0.127 A 
ATOM     19  C   LIG A   1      -3.445   6.328 130.309  0.00  0.00    +0.091 A 
ATOM     20  C   LIG A   1      -4.673   6.073 130.913  0.00  0.00    +0.128 A 
BRANCH  16  21
ATOM     21  C   LIG A   1      -7.365   3.190 126.307  0.00  0.00    -0.001 A 
ATOM     22  C   LIG A   1      -7.787   2.025 126.970  0.00  0.00    +0.011 A 
ATOM     23  C   LIG A   1      -8.751   1.182 126.402  0.00  0.00    +0.049 A 
ATOM     24  C   LIG A   1      -9.278   1.495 125.156  0.00  0.00    +0.158 A 
ATOM     25  C   LIG A   1      -8.857   2.638 124.485  0.00  0.00    +0.159 A 
ATOM     26  C   LIG A   1      -7.914   3.485 125.047  0.00  0.00    +0.056 A 
BRANCH  25  27
ATOM     27  O   LIG A   1      -9.366   2.934 123.253  0.00  0.00    -0.503 OA
ATOM     28  H   LIG A   1      -9.322   3.909 123.200  0.00  0.00    +0.292 HD
ENDBRANCH  25  27
BRANCH  24  29
ATOM     29  O   LIG A   1     -10.211   0.704 124.544  0.00  0.00    -0.503 OA
ATOM     30  H   LIG A   1     -10.673   0.199 125.235  0.00  0.00    +0.292 HD
ENDBRANCH  24  29
ENDBRANCH  16  21
BRANCH  15  31
ATOM     31  O   LIG A   1      -4.699   3.475 125.052  0.00  0.00    -0.388 OA
ATOM     32  H   LIG A   1      -4.847   2.546 124.796  0.00  0.00    +0.210 HD
ENDBRANCH  15  31
BRANCH  20  33
ATOM     33  O   LIG A   1      -4.898   6.553 132.175  0.00  0.00    -0.506 OA
ATOM     34  H   LIG A   1      -5.697   7.111 132.159  0.00  0.00    +0.292 HD
ENDBRANCH  20  33
BRANCH  18  35
ATOM     35  O   LIG A   1      -1.958   6.125 128.529  0.00  0.00    -0.506 OA
ATOM     36  H   LIG A   1      -2.043   6.580 127.676  0.00  0.00    +0.292 HD
ENDBRANCH  18  35
ENDBRANCH   5  11
BRANCH   7  37
ATOM     37  C   LIG A   1     -10.576   6.039 129.665  0.00  0.00    -0.001 A 
ATOM     38  C   LIG A   1     -11.915   5.966 130.095  0.00  0.00    +0.011 A 
ATOM     39  C   LIG A   1     -12.932   6.658 129.424  0.00  0.00    +0.049 A 
ATOM     40  C   LIG A   1     -12.604   7.428 128.314  0.00  0.00    +0.158 A 
ATOM     41  C   LIG A   1     -11.286   7.507 127.881  0.00  0.00    +0.159 A 
ATOM     42  C   LIG A   1     -10.273   6.818 128.536  0.00  0.00    +0.056 A 
BRANCH  41  43
ATOM     43  O   LIG A   1     -10.972   8.272 126.790  0.00  0.00    -0.503 OA
ATOM     44  H   LIG A   1     -11.769   8.228 126.227  0.00  0.00    +0.292 HD
ENDBRANCH  41  43
BRANCH  40  45
ATOM     45  O   LIG A   1     -13.552   8.122 127.611  0.00  0.00    -0.503 OA
ATOM     46  H   LIG A   1     -13.546   7.797 126.697  0.00  0.00    +0.292 HD
ENDBRANCH  40  45
ENDBRANCH   7  37
BRANCH   1  47
ATOM     47  O   LIG A   1      -8.544  -0.393 131.153  0.00  0.00    -0.506 OA
ATOM     48  H   LIG A   1      -9.252  -0.496 130.493  0.00  0.00    +0.292 HD
ENDBRANCH   1  47
BRANCH   3  49
ATOM     49  O   LIG A   1      -5.622   3.015 132.674  0.00  0.00    -0.506 OA
ATOM     50  H   LIG A   1      -4.913   2.357 132.578  0.00  0.00    +0.292 HD
ENDBRANCH   3  49
BRANCH   6  51
ATOM     51  O   LIG A   1      -8.301   7.113 131.425  0.00  0.00    -0.387 OA
ATOM     52  H   LIG A   1      -7.635   7.782 131.188  0.00  0.00    +0.210 HD
ENDBRANCH   6  51
TORSDOF 13
ENDMDL
MODEL 6
REMARK VINA RESULT:      -9.2      2.396      7.607
REMARK  Name = NuBBE_288
REMARK  13 active torsions:
REMARK  status: ('A' for Active; 'I' for Inactive)
REMARK    1  A    between atoms: O_1  and  C_2
REMARK    2  A    between atoms: C_4  and  O_5
REMARK    3  A    between atoms: C_7  and  C_25
REMARK    4  A    between atoms: C_9  and  O_24
REMARK    5  A    between atoms: C_11  and  C_16
REMARK    6  A    between atoms: C_19  and  O_23
REMARK    7  A    between atoms: C_20  and  O_21
REMARK    8  A    between atoms: C_29  and  O_42
REMARK    9  A    between atoms: C_31  and  C_34
REMARK   10  A    between atoms: C_37  and  O_41
REMARK   11  A    between atoms: C_38  and  O_39
REMARK   12  A    between atoms: C_43  and  O_47
REMARK   13  A    between atoms: C_45  and  O_46
REMARK                            x       y       z     vdW  Elec       q    Type
REMARK                         _______ _______ _______ _____ _____    ______ ____
ROOT
ATOM      1  C   LIG A   1     -10.705   5.117 129.954  0.00  0.00    +0.124 A 
ATOM      2  C   LIG A   1     -10.856   4.272 131.050  0.00  0.00    +0.091 A 
ATOM      3  C   LIG A   1      -9.742   3.589 131.547  0.00  0.00    +0.128 A 
ATOM      4  C   LIG A   1      -8.472   3.752 130.974  0.00  0.00    +0.046 A 
ATOM      5  C   LIG A   1      -7.236   3.017 131.455  0.00  0.00    +0.096 C 
ATOM      6  C   LIG A   1      -5.888   3.660 131.026  0.00  0.00    +0.172 C 
ATOM      7  C   LIG A   1      -6.114   5.033 130.360  0.00  0.00    +0.233 C 
ATOM      8  O   LIG A   1      -7.137   4.964 129.357  0.00  0.00    -0.481 OA
ATOM      9  C   LIG A   1      -8.351   4.665 129.918  0.00  0.00    +0.132 A 
ATOM     10  C   LIG A   1      -9.459   5.315 129.383  0.00  0.00    +0.091 A 
ENDROOT
BRANCH   5  11
ATOM     11  C   LIG A   1      -7.265   1.500 131.187  0.00  0.00    +0.046 A 
ATOM     12  C   LIG A   1      -7.064   0.927 129.905  0.00  0.00    +0.136 A 
ATOM     13  C   LIG A   1      -7.153  -0.469 129.708  0.00  0.00    +0.039 A 
ATOM     14  C   LIG A   1      -6.989  -1.072 128.342  0.00  0.00    +0.078 C 
ATOM     15  C   LIG A   1      -6.985  -0.046 127.223  0.00  0.00    +0.164 C 
ATOM     16  C   LIG A   1      -6.188   1.181 127.700  0.00  0.00    +0.232 C 
ATOM     17  O   LIG A   1      -6.801   1.783 128.860  0.00  0.00    -0.481 OA
ATOM     18  C   LIG A   1      -7.375  -1.295 130.814  0.00  0.00    +0.127 A 
ATOM     19  C   LIG A   1      -7.540  -0.761 132.084  0.00  0.00    +0.091 A 
ATOM     20  C   LIG A   1      -7.492   0.619 132.260  0.00  0.00    +0.128 A 
BRANCH  16  21
ATOM     21  C   LIG A   1      -6.085   2.206 126.579  0.00  0.00    -0.001 A 
ATOM     22  C   LIG A   1      -4.846   2.657 126.092  0.00  0.00    +0.011 A 
ATOM     23  C   LIG A   1      -4.777   3.640 125.096  0.00  0.00    +0.049 A 
ATOM     24  C   LIG A   1      -5.952   4.189 124.601  0.00  0.00    +0.158 A 
ATOM     25  C   LIG A   1      -7.184   3.761 125.086  0.00  0.00    +0.159 A 
ATOM     26  C   LIG A   1      -7.261   2.778 126.061  0.00  0.00    +0.056 A 
BRANCH  25  27
ATOM     27  O   LIG A   1      -8.337   4.314 124.607  0.00  0.00    -0.503 OA
ATOM     28  H   LIG A   1      -8.175   5.278 124.640  0.00  0.00    +0.292 HD
ENDBRANCH  25  27
BRANCH  24  29
ATOM     29  O   LIG A   1      -5.950   5.161 123.639  0.00  0.00    -0.503 OA
ATOM     30  H   LIG A   1      -6.786   5.653 123.710  0.00  0.00    +0.292 HD
ENDBRANCH  24  29
ENDBRANCH  16  21
BRANCH  15  31
ATOM     31  O   LIG A   1      -6.417  -0.692 126.077  0.00  0.00    -0.388 OA
ATOM     32  H   LIG A   1      -5.938  -1.481 126.392  0.00  0.00    +0.210 HD
ENDBRANCH  15  31
BRANCH  20  33
ATOM     33  O   LIG A   1      -7.680   1.128 133.516  0.00  0.00    -0.506 OA
ATOM     34  H   LIG A   1      -7.175   0.589 134.151  0.00  0.00    +0.292 HD
ENDBRANCH  20  33
BRANCH  18  35
ATOM     35  O   LIG A   1      -7.442  -2.658 130.736  0.00  0.00    -0.506 OA
ATOM     36  H   LIG A   1      -6.728  -3.064 131.252  0.00  0.00    +0.292 HD
ENDBRANCH  18  35
ENDBRANCH   5  11
BRANCH   7  37
ATOM     37  C   LIG A   1      -4.865   5.602 129.692  0.00  0.00    -0.001 A 
ATOM     38  C   LIG A   1      -4.515   6.955 129.866  0.00  0.00    +0.011 A 
ATOM     39  C   LIG A   1      -3.386   7.500 129.240  0.00  0.00    +0.049 A 
ATOM     40  C   LIG A   1      -2.603   6.682 128.433  0.00  0.00    +0.158 A 
ATOM     41  C   LIG A   1      -2.939   5.346 128.255  0.00  0.00    +0.159 A 
ATOM     42  C   LIG A   1      -4.061   4.800 128.865  0.00  0.00    +0.056 A 
BRANCH  41  43
ATOM     43  O   LIG A   1      -2.159   4.546 127.463  0.00  0.00    -0.503 OA
ATOM     44  H   LIG A   1      -2.538   4.651 126.568  0.00  0.00    +0.292 HD
ENDBRANCH  41  43
BRANCH  40  45
ATOM     45  O   LIG A   1      -1.492   7.155 127.788  0.00  0.00    -0.503 OA
ATOM     46  H   LIG A   1      -1.109   7.863 128.330  0.00  0.00    +0.292 HD
ENDBRANCH  40  45
ENDBRANCH   7  37
BRANCH   1  47
ATOM     47  O   LIG A   1     -11.765   5.789 129.421  0.00  0.00    -0.506 OA
ATOM     48  H   LIG A   1     -12.083   5.296 128.646  0.00  0.00    +0.292 HD
ENDBRANCH   1  47
BRANCH   3  49
ATOM     49  O   LIG A   1      -9.983   2.793 132.634  0.00  0.00    -0.506 OA
ATOM     50  H   LIG A   1     -10.757   3.117 133.125  0.00  0.00    +0.292 HD
ENDBRANCH   3  49
BRANCH   6  51
ATOM     51  O   LIG A   1      -5.060   3.841 132.199  0.00  0.00    -0.387 OA
ATOM     52  H   LIG A   1      -4.393   3.130 132.189  0.00  0.00    +0.210 HD
ENDBRANCH   6  51
TORSDOF 13
ENDMDL
MODEL 7
REMARK VINA RESULT:      -9.0      3.155      7.697
REMARK  Name = NuBBE_288
REMARK  13 active torsions:
REMARK  status: ('A' for Active; 'I' for Inactive)
REMARK    1  A    between atoms: O_1  and  C_2
REMARK    2  A    between atoms: C_4  and  O_5
REMARK    3  A    between atoms: C_7  and  C_25
REMARK    4  A    between atoms: C_9  and  O_24
REMARK    5  A    between atoms: C_11  and  C_16
REMARK    6  A    between atoms: C_19  and  O_23
REMARK    7  A    between atoms: C_20  and  O_21
REMARK    8  A    between atoms: C_29  and  O_42
REMARK    9  A    between atoms: C_31  and  C_34
REMARK   10  A    between atoms: C_37  and  O_41
REMARK   11  A    between atoms: C_38  and  O_39
REMARK   12  A    between atoms: C_43  and  O_47
REMARK   13  A    between atoms: C_45  and  O_46
REMARK                            x       y       z     vdW  Elec       q    Type
REMARK                         _______ _______ _______ _____ _____    ______ ____
ROOT
ATOM      1  C   LIG A   1      -9.656   2.583 131.276  0.00  0.00    +0.124 A 
ATOM      2  C   LIG A   1      -9.368   1.575 132.191  0.00  0.00    +0.091 A 
ATOM      3  C   LIG A   1      -8.052   1.120 132.316  0.00  0.00    +0.128 A 
ATOM      4  C   LIG A   1      -7.014   1.672 131.551  0.00  0.00    +0.046 A 
ATOM      5  C   LIG A   1      -5.575   1.200 131.627  0.00  0.00    +0.096 C 
ATOM      6  C   LIG A   1      -4.528   2.210 131.080  0.00  0.00    +0.172 C 
ATOM      7  C   LIG A   1      -5.183   3.568 130.756  0.00  0.00    +0.233 C 
ATOM      8  O   LIG A   1      -6.376   3.399 129.978  0.00  0.00    -0.481 OA
ATOM      9  C   LIG A   1      -7.336   2.732 130.694  0.00  0.00    +0.132 A 
ATOM     10  C   LIG A   1      -8.649   3.163 130.524  0.00  0.00    +0.091 A 
ENDROOT
BRANCH   5  11
ATOM     11  C   LIG A   1      -5.353  -0.222 131.074  0.00  0.00    +0.046 A 
ATOM     12  C   LIG A   1      -5.417  -0.544 129.695  0.00  0.00    +0.136 A 
ATOM     13  C   LIG A   1      -5.255  -1.876 129.250  0.00  0.00    +0.039 A 
ATOM     14  C   LIG A   1      -5.373  -2.226 127.794  0.00  0.00    +0.078 C 
ATOM     15  C   LIG A   1      -5.920  -1.096 126.940  0.00  0.00    +0.164 C 
ATOM     16  C   LIG A   1      -5.303   0.223 127.439  0.00  0.00    +0.232 C 
ATOM     17  O   LIG A   1      -5.664   0.482 128.812  0.00  0.00    -0.481 OA
ATOM     18  C   LIG A   1      -4.959  -2.870 130.186  0.00  0.00    +0.127 A 
ATOM     19  C   LIG A   1      -4.856  -2.573 131.537  0.00  0.00    +0.091 A 
ATOM     20  C   LIG A   1      -5.058  -1.266 131.970  0.00  0.00    +0.128 A 
BRANCH  16  21
ATOM     21  C   LIG A   1      -5.759   1.379 126.558  0.00  0.00    -0.001 A 
ATOM     22  C   LIG A   1      -4.852   2.309 126.020  0.00  0.00    +0.011 A 
ATOM     23  C   LIG A   1      -5.301   3.394 125.257  0.00  0.00    +0.049 A 
ATOM     24  C   LIG A   1      -6.663   3.561 125.049  0.00  0.00    +0.158 A 
ATOM     25  C   LIG A   1      -7.570   2.655 125.588  0.00  0.00    +0.159 A 
ATOM     26  C   LIG A   1      -7.133   1.570 126.333  0.00  0.00    +0.056 A 
BRANCH  25  27
ATOM     27  O   LIG A   1      -8.910   2.832 125.394  0.00  0.00    -0.503 OA
ATOM     28  H   LIG A   1      -9.016   2.835 124.421  0.00  0.00    +0.292 HD
ENDBRANCH  25  27
BRANCH  24  29
ATOM     29  O   LIG A   1      -7.163   4.608 124.324  0.00  0.00    -0.503 OA
ATOM     30  H   LIG A   1      -7.999   4.884 124.737  0.00  0.00    +0.292 HD
ENDBRANCH  24  29
ENDBRANCH  16  21
BRANCH  15  31
ATOM     31  O   LIG A   1      -5.587  -1.410 125.582  0.00  0.00    -0.388 OA
ATOM     32  H   LIG A   1      -4.817  -2.009 125.599  0.00  0.00    +0.210 HD
ENDBRANCH  15  31
BRANCH  20  33
ATOM     33  O   LIG A   1      -4.975  -0.996 133.309  0.00  0.00    -0.506 OA
ATOM     34  H   LIG A   1      -4.493  -0.158 133.429  0.00  0.00    +0.292 HD
ENDBRANCH  20  33
BRANCH  18  35
ATOM     35  O   LIG A   1      -4.748  -4.180 129.854  0.00  0.00    -0.506 OA
ATOM     36  H   LIG A   1      -4.680  -4.280 128.891  0.00  0.00    +0.292 HD
ENDBRANCH  18  35
ENDBRANCH   5  11
BRANCH   7  37
ATOM     37  C   LIG A   1      -4.272   4.518 129.984  0.00  0.00    -0.001 A 
ATOM     38  C   LIG A   1      -4.196   5.880 130.336  0.00  0.00    +0.011 A 
ATOM     39  C   LIG A   1      -3.384   6.771 129.622  0.00  0.00    +0.049 A 
ATOM     40  C   LIG A   1      -2.643   6.292 128.547  0.00  0.00    +0.158 A 
ATOM     41  C   LIG A   1      -2.709   4.952 128.191  0.00  0.00    +0.159 A 
ATOM     42  C   LIG A   1      -3.519   4.063 128.889  0.00  0.00    +0.056 A 
BRANCH  41  43
ATOM     43  O   LIG A   1      -1.972   4.489 127.135  0.00  0.00    -0.503 OA
ATOM     44  H   LIG A   1      -1.947   5.241 126.511  0.00  0.00    +0.292 HD
ENDBRANCH  41  43
BRANCH  40  45
ATOM     45  O   LIG A   1      -1.836   7.113 127.805  0.00  0.00    -0.503 OA
ATOM     46  H   LIG A   1      -2.113   8.029 127.963  0.00  0.00    +0.292 HD
ENDBRANCH  40  45
ENDBRANCH   7  37
BRANCH   1  47
ATOM     47  O   LIG A   1     -10.927   3.046 131.104  0.00  0.00    -0.506 OA
ATOM     48  H   LIG A   1     -11.041   3.290 130.169  0.00  0.00    +0.292 HD
ENDBRANCH   1  47
BRANCH   3  49
ATOM     49  O   LIG A   1      -7.861   0.138 133.250  0.00  0.00    -0.506 OA
ATOM     50  H   LIG A   1      -7.085   0.340 133.799  0.00  0.00    +0.292 HD
ENDBRANCH   3  49
BRANCH   6  51
ATOM     51  O   LIG A   1      -3.503   2.412 132.082  0.00  0.00    -0.387 OA
ATOM     52  H   LIG A   1      -3.914   2.911 132.811  0.00  0.00    +0.210 HD
ENDBRANCH   6  51
TORSDOF 13
ENDMDL
MODEL 8
REMARK VINA RESULT:      -9.0      3.811      6.799
REMARK  Name = NuBBE_288
REMARK  13 active torsions:
REMARK  status: ('A' for Active; 'I' for Inactive)
REMARK    1  A    between atoms: O_1  and  C_2
REMARK    2  A    between atoms: C_4  and  O_5
REMARK    3  A    between atoms: C_7  and  C_25
REMARK    4  A    between atoms: C_9  and  O_24
REMARK    5  A    between atoms: C_11  and  C_16
REMARK    6  A    between atoms: C_19  and  O_23
REMARK    7  A    between atoms: C_20  and  O_21
REMARK    8  A    between atoms: C_29  and  O_42
REMARK    9  A    between atoms: C_31  and  C_34
REMARK   10  A    between atoms: C_37  and  O_41
REMARK   11  A    between atoms: C_38  and  O_39
REMARK   12  A    between atoms: C_43  and  O_47
REMARK   13  A    between atoms: C_45  and  O_46
REMARK                            x       y       z     vdW  Elec       q    Type
REMARK                         _______ _______ _______ _____ _____    ______ ____
ROOT
ATOM      1  C   LIG A   1      -3.295   4.378 127.971  0.00  0.00    +0.124 A 
ATOM      2  C   LIG A   1      -3.205   3.254 127.156  0.00  0.00    +0.091 A 
ATOM      3  C   LIG A   1      -4.260   2.337 127.134  0.00  0.00    +0.128 A 
ATOM      4  C   LIG A   1      -5.415   2.538 127.905  0.00  0.00    +0.046 A 
ATOM      5  C   LIG A   1      -6.577   1.564 127.940  0.00  0.00    +0.096 C 
ATOM      6  C   LIG A   1      -7.914   2.165 128.458  0.00  0.00    +0.172 C 
ATOM      7  C   LIG A   1      -7.804   3.693 128.639  0.00  0.00    +0.233 C 
ATOM      8  O   LIG A   1      -6.620   4.048 129.366  0.00  0.00    -0.481 OA
ATOM      9  C   LIG A   1      -5.494   3.717 128.657  0.00  0.00    +0.132 A 
ATOM     10  C   LIG A   1      -4.432   4.614 128.725  0.00  0.00    +0.091 A 
ENDROOT
BRANCH   5  11
ATOM     11  C   LIG A   1      -6.247   0.219 128.616  0.00  0.00    +0.046 A 
ATOM     12  C   LIG A   1      -6.270   0.021 130.020  0.00  0.00    +0.136 A 
ATOM     13  C   LIG A   1      -5.907  -1.222 130.586  0.00  0.00    +0.039 A 
ATOM     14  C   LIG A   1      -5.884  -1.418 132.075  0.00  0.00    +0.078 C 
ATOM     15  C   LIG A   1      -6.025  -0.125 132.860  0.00  0.00    +0.164 C 
ATOM     16  C   LIG A   1      -7.064   0.758 132.145  0.00  0.00    +0.232 C 
ATOM     17  O   LIG A   1      -6.636   1.088 130.807  0.00  0.00    -0.481 OA
ATOM     18  C   LIG A   1      -5.590  -2.285 129.736  0.00  0.00    +0.127 A 
ATOM     19  C   LIG A   1      -5.594  -2.126 128.359  0.00  0.00    +0.091 A 
ATOM     20  C   LIG A   1      -5.913  -0.887 127.812  0.00  0.00    +0.128 A 
BRANCH  16  21
ATOM     21  C   LIG A   1      -7.301   2.034 132.942  0.00  0.00    -0.001 A 
ATOM     22  C   LIG A   1      -6.251   2.731 133.565  0.00  0.00    +0.011 A 
ATOM     23  C   LIG A   1      -6.502   3.872 134.336  0.00  0.00    +0.049 A 
ATOM     24  C   LIG A   1      -7.810   4.305 134.504  0.00  0.00    +0.158 A 
ATOM     25  C   LIG A   1      -8.858   3.615 133.905  0.00  0.00    +0.159 A 
ATOM     26  C   LIG A   1      -8.617   2.492 133.127  0.00  0.00    +0.056 A 
BRANCH  25  27
ATOM     27  O   LIG A   1     -10.145   4.036 134.084  0.00  0.00    -0.503 OA
ATOM     28  H   LIG A   1     -10.098   4.638 134.853  0.00  0.00    +0.292 HD
ENDBRANCH  25  27
BRANCH  24  29
ATOM     29  O   LIG A   1      -8.119   5.404 135.257  0.00  0.00    -0.503 OA
ATOM     30  H   LIG A   1      -7.549   6.136 134.965  0.00  0.00    +0.292 HD
ENDBRANCH  24  29
ENDBRANCH  16  21
BRANCH  15  31
ATOM     31  O   LIG A   1      -6.401  -0.494 134.193  0.00  0.00    -0.388 OA
ATOM     32  H   LIG A   1      -7.369  -0.613 134.203  0.00  0.00    +0.210 HD
ENDBRANCH  15  31
BRANCH  20  33
ATOM     33  O   LIG A   1      -5.889  -0.742 126.451  0.00  0.00    -0.506 OA
ATOM     34  H   LIG A   1      -4.971  -0.571 126.171  0.00  0.00    +0.292 HD
ENDBRANCH  20  33
BRANCH  18  35
ATOM     35  O   LIG A   1      -5.262  -3.535 130.183  0.00  0.00    -0.506 OA
ATOM     36  H   LIG A   1      -5.694  -3.718 131.032  0.00  0.00    +0.292 HD
ENDBRANCH  18  35
ENDBRANCH   5  11
BRANCH   7  37
ATOM     37  C   LIG A   1      -8.988   4.309 129.379  0.00  0.00    -0.001 A 
ATOM     38  C   LIG A   1      -9.889   3.493 130.090  0.00  0.00    +0.011 A 
ATOM     39  C   LIG A   1     -10.996   4.040 130.754  0.00  0.00    +0.049 A 
ATOM     40  C   LIG A   1     -11.200   5.414 130.703  0.00  0.00    +0.158 A 
ATOM     41  C   LIG A   1     -10.317   6.228 130.005  0.00  0.00    +0.159 A 
ATOM     42  C   LIG A   1      -9.222   5.693 129.337  0.00  0.00    +0.056 A 
BRANCH  41  43
ATOM     43  O   LIG A   1     -10.523   7.581 129.965  0.00  0.00    -0.503 OA
ATOM     44  H   LIG A   1     -10.422   7.812 129.021  0.00  0.00    +0.292 HD
ENDBRANCH  41  43
BRANCH  40  45
ATOM     45  O   LIG A   1     -12.266   6.009 131.324  0.00  0.00    -0.503 OA
ATOM     46  H   LIG A   1     -12.135   5.933 132.282  0.00  0.00    +0.292 HD
ENDBRANCH  40  45
ENDBRANCH   7  37
BRANCH   1  47
ATOM     47  O   LIG A   1      -2.283   5.290 128.040  0.00  0.00    -0.506 OA
ATOM     48  H   LIG A   1      -1.440   4.810 128.088  0.00  0.00    +0.292 HD
ENDBRANCH   1  47
BRANCH   3  49
ATOM     49  O   LIG A   1      -4.091   1.272 126.293  0.00  0.00    -0.506 OA
ATOM     50  H   LIG A   1      -3.992   0.450 126.803  0.00  0.00    +0.292 HD
ENDBRANCH   3  49
BRANCH   6  51
ATOM     51  O   LIG A   1      -8.959   1.882 127.497  0.00  0.00    -0.387 OA
ATOM     52  H   LIG A   1      -9.593   1.286 127.935  0.00  0.00    +0.210 HD
ENDBRANCH   6  51
TORSDOF 13
ENDMDL
MODEL 9
REMARK VINA RESULT:      -8.9      5.660     10.411
REMARK  Name = NuBBE_288
REMARK  13 active torsions:
REMARK  status: ('A' for Active; 'I' for Inactive)
REMARK    1  A    between atoms: O_1  and  C_2
REMARK    2  A    between atoms: C_4  and  O_5
REMARK    3  A    between atoms: C_7  and  C_25
REMARK    4  A    between atoms: C_9  and  O_24
REMARK    5  A    between atoms: C_11  and  C_16
REMARK    6  A    between atoms: C_19  and  O_23
REMARK    7  A    between atoms: C_20  and  O_21
REMARK    8  A    between atoms: C_29  and  O_42
REMARK    9  A    between atoms: C_31  and  C_34
REMARK   10  A    between atoms: C_37  and  O_41
REMARK   11  A    between atoms: C_38  and  O_39
REMARK   12  A    between atoms: C_43  and  O_47
REMARK   13  A    between atoms: C_45  and  O_46
REMARK                            x       y       z     vdW  Elec       q    Type
REMARK                         _______ _______ _______ _____ _____    ______ ____
ROOT
ATOM      1  C   LIG A   1      -8.031   2.941 133.763  0.00  0.00    +0.124 A 
ATOM      2  C   LIG A   1      -6.740   2.450 133.930  0.00  0.00    +0.091 A 
ATOM      3  C   LIG A   1      -5.784   3.241 134.575  0.00  0.00    +0.128 A 
ATOM      4  C   LIG A   1      -6.107   4.512 135.073  0.00  0.00    +0.046 A 
ATOM      5  C   LIG A   1      -5.105   5.422 135.757  0.00  0.00    +0.096 C 
ATOM      6  C   LIG A   1      -5.734   6.543 136.630  0.00  0.00    +0.172 C 
ATOM      7  C   LIG A   1      -7.259   6.356 136.762  0.00  0.00    +0.233 C 
ATOM      8  O   LIG A   1      -7.868   6.122 135.485  0.00  0.00    -0.481 OA
ATOM      9  C   LIG A   1      -7.435   4.939 134.946  0.00  0.00    +0.132 A 
ATOM     10  C   LIG A   1      -8.384   4.183 134.264  0.00  0.00    +0.091 A 
ENDROOT
BRANCH   5  11
ATOM     11  C   LIG A   1      -4.009   5.964 134.818  0.00  0.00    +0.046 A 
ATOM     12  C   LIG A   1      -4.214   6.214 133.437  0.00  0.00    +0.136 A 
ATOM     13  C   LIG A   1      -3.157   6.663 132.613  0.00  0.00    +0.039 A 
ATOM     14  C   LIG A   1      -3.360   6.880 131.141  0.00  0.00    +0.078 C 
ATOM     15  C   LIG A   1      -4.680   6.336 130.624  0.00  0.00    +0.164 C 
ATOM     16  C   LIG A   1      -5.765   6.632 131.674  0.00  0.00    +0.232 C 
ATOM     17  O   LIG A   1      -5.471   5.982 132.928  0.00  0.00    -0.481 OA
ATOM     18  C   LIG A   1      -1.913   6.928 133.194  0.00  0.00    +0.127 A 
ATOM     19  C   LIG A   1      -1.698   6.725 134.549  0.00  0.00    +0.091 A 
ATOM     20  C   LIG A   1      -2.734   6.243 135.344  0.00  0.00    +0.128 A 
BRANCH  16  21
ATOM     21  C   LIG A   1      -7.126   6.178 131.162  0.00  0.00    -0.001 A 
ATOM     22  C   LIG A   1      -8.221   7.055 131.076  0.00  0.00    +0.011 A 
ATOM     23  C   LIG A   1      -9.476   6.600 130.652  0.00  0.00    +0.049 A 
ATOM     24  C   LIG A   1      -9.641   5.259 130.334  0.00  0.00    +0.158 A 
ATOM     25  C   LIG A   1      -8.568   4.379 130.430  0.00  0.00    +0.159 A 
ATOM     26  C   LIG A   1      -7.318   4.824 130.835  0.00  0.00    +0.056 A 
BRANCH  25  27
ATOM     27  O   LIG A   1      -8.739   3.058 130.131  0.00  0.00    -0.503 OA
ATOM     28  H   LIG A   1      -8.593   3.006 129.166  0.00  0.00    +0.292 HD
ENDBRANCH  25  27
BRANCH  24  29
ATOM     29  O   LIG A   1     -10.845   4.753 129.928  0.00  0.00    -0.503 OA
ATOM     30  H   LIG A   1     -10.943   3.867 130.318  0.00  0.00    +0.292 HD
ENDBRANCH  24  29
ENDBRANCH  16  21
BRANCH  15  31
ATOM     31  O   LIG A   1      -4.915   6.965 129.358  0.00  0.00    -0.388 OA
ATOM     32  H   LIG A   1      -5.879   6.979 129.211  0.00  0.00    +0.210 HD
ENDBRANCH  15  31
BRANCH  20  33
ATOM     33  O   LIG A   1      -2.497   6.027 136.674  0.00  0.00    -0.506 OA
ATOM     34  H   LIG A   1      -2.998   5.240 136.957  0.00  0.00    +0.292 HD
ENDBRANCH  20  33
BRANCH  18  35
ATOM     35  O   LIG A   1      -0.839   7.399 132.492  0.00  0.00    -0.506 OA
ATOM     36  H   LIG A   1      -0.142   7.699 133.097  0.00  0.00    +0.292 HD
ENDBRANCH  18  35
ENDBRANCH   5  11
BRANCH   7  37
ATOM     37  C   LIG A   1      -7.971   7.551 137.389  0.00  0.00    -0.001 A 
ATOM     38  C   LIG A   1      -7.277   8.428 138.244  0.00  0.00    +0.011 A 
ATOM     39  C   LIG A   1      -7.922   9.516 138.848  0.00  0.00    +0.049 A 
ATOM     40  C   LIG A   1      -9.272   9.724 138.593  0.00  0.00    +0.158 A 
ATOM     41  C   LIG A   1      -9.967   8.866 137.750  0.00  0.00    +0.159 A 
ATOM     42  C   LIG A   1      -9.337   7.780 137.154  0.00  0.00    +0.056 A 
BRANCH  41  43
ATOM     43  O   LIG A   1     -11.296   9.082 137.500  0.00  0.00    -0.503 OA
ATOM     44  H   LIG A   1     -11.460   8.620 136.656  0.00  0.00    +0.292 HD
ENDBRANCH  41  43
BRANCH  40  45
ATOM     45  O   LIG A   1      -9.961  10.765 139.157  0.00  0.00    -0.503 OA
ATOM     46  H   LIG A   1     -10.868  10.466 139.329  0.00  0.00    +0.292 HD
ENDBRANCH  40  45
ENDBRANCH   7  37
BRANCH   1  47
ATOM     47  O   LIG A   1      -8.992   2.215 133.123  0.00  0.00    -0.506 OA
ATOM     48  H   LIG A   1      -9.023   2.499 132.193  0.00  0.00    +0.292 HD
ENDBRANCH   1  47
BRANCH   3  49
ATOM     49  O   LIG A   1      -4.548   2.670 134.707  0.00  0.00    -0.506 OA
ATOM     50  H   LIG A   1      -4.360   2.089 133.951  0.00  0.00    +0.292 HD
ENDBRANCH   3  49
BRANCH   6  51
ATOM     51  O   LIG A   1      -5.142   6.499 137.949  0.00  0.00    -0.387 OA
ATOM     52  H   LIG A   1      -4.176   6.538 137.829  0.00  0.00    +0.210 HD
ENDBRANCH   6  51
TORSDOF 13
ENDMDL
