MODEL 1
REMARK VINA RESULT:      -7.0      0.000      0.000
REMARK  Name = NuBBE_1435
REMARK  8 active torsions:
REMARK  status: ('A' for Active; 'I' for Inactive)
REMARK    1  A    between atoms: C_1  and  C_2
REMARK    2  A    between atoms: C_2  and  C_3
REMARK    3  A    between atoms: C_4  and  C_5
REMARK    4  A    between atoms: C_5  and  C_6
REMARK    5  A    between atoms: C_7  and  O_8
REMARK    6  A    between atoms: O_8  and  C_9
REMARK    7  A    between atoms: C_20  and  O_21
REMARK    8  A    between atoms: O_21  and  C_22
REMARK                            x       y       z     vdW  Elec       q    Type
REMARK                         _______ _______ _______ _____ _____    ______ ____
ROOT
ATOM      1  C   LIG A   1      -7.807   1.771 124.227  0.00  0.00    +0.024 A 
ATOM      2  C   LIG A   1      -8.391   2.473 125.306  0.00  0.00    +0.126 A 
ATOM      3  C   LIG A   1      -8.590   1.828 126.522  0.00  0.00    +0.046 A 
ATOM      4  C   LIG A   1      -8.173   0.508 126.686  0.00  0.00    +0.017 A 
ATOM      5  C   LIG A   1      -7.542  -0.198 125.638  0.00  0.00    +0.043 A 
ATOM      6  C   LIG A   1      -7.374   0.445 124.386  0.00  0.00    +0.085 A 
ATOM      7  N   LIG A   1      -6.819  -0.165 123.333  0.00  0.00    -0.211 NA
ATOM      8  C   LIG A   1      -6.367  -1.405 123.536  0.00  0.00    +0.231 A 
ATOM      9  O   LIG A   1      -5.754  -2.116 122.552  0.00  0.00    -0.445 OA
ATOM     10  C   LIG A   1      -5.372  -3.298 123.091  0.00  0.00    +0.198 A 
ATOM     11  C   LIG A   1      -5.737  -3.361 124.414  0.00  0.00    +0.055 A 
ATOM     12  C   LIG A   1      -6.423  -2.149 124.710  0.00  0.00    +0.082 A 
ATOM     13  C   LIG A   1      -7.075  -1.537 125.798  0.00  0.00    +0.142 A 
ENDROOT
BRANCH   2  14
ATOM     14  O   LIG A   1      -8.806   3.757 125.062  0.00  0.00    -0.495 OA
ATOM     15  C   LIG A   1      -8.116   4.790 125.759  0.00  0.00    +0.277 C 
ENDBRANCH   2  14
BRANCH  13  16
ATOM     16  O   LIG A   1      -7.233  -2.105 127.059  0.00  0.00    -0.494 OA
ATOM     17  C   LIG A   1      -8.276  -3.064 127.173  0.00  0.00    +0.277 C 
ENDBRANCH  13  16
BRANCH   1  18
ATOM     18  C   LIG A   1      -7.631   2.462 122.875  0.00  0.00    +0.068 C 
BRANCH  18  22
ATOM     19  C   LIG A   1      -4.636   4.714 121.698  0.00  0.00    +0.038 C 
ATOM     20  C   LIG A   1      -5.914   3.918 121.664  0.00  0.00    -0.079 C 
ATOM     21  C   LIG A   1      -6.613   3.912 120.329  0.00  0.00    +0.038 C 
ATOM     22  C   LIG A   1      -6.371   3.290 122.766  0.00  0.00    -0.023 C 
ENDBRANCH  18  22
ENDBRANCH   1  18
TORSDOF 4
ENDMDL
MODEL 2
REMARK VINA RESULT:      -6.9      2.001      2.255
REMARK  Name = NuBBE_1435
REMARK  8 active torsions:
REMARK  status: ('A' for Active; 'I' for Inactive)
REMARK    1  A    between atoms: C_1  and  C_2
REMARK    2  A    between atoms: C_2  and  C_3
REMARK    3  A    between atoms: C_4  and  C_5
REMARK    4  A    between atoms: C_5  and  C_6
REMARK    5  A    between atoms: C_7  and  O_8
REMARK    6  A    between atoms: O_8  and  C_9
REMARK    7  A    between atoms: C_20  and  O_21
REMARK    8  A    between atoms: O_21  and  C_22
REMARK                            x       y       z     vdW  Elec       q    Type
REMARK                         _______ _______ _______ _____ _____    ______ ____
ROOT
ATOM      1  C   LIG A   1      -7.015   2.060 124.155  0.00  0.00    +0.024 A 
ATOM      2  C   LIG A   1      -5.975   2.677 124.888  0.00  0.00    +0.126 A 
ATOM      3  C   LIG A   1      -5.282   1.948 125.849  0.00  0.00    +0.046 A 
ATOM      4  C   LIG A   1      -5.584   0.604 126.055  0.00  0.00    +0.017 A 
ATOM      5  C   LIG A   1      -6.584  -0.048 125.300  0.00  0.00    +0.043 A 
ATOM      6  C   LIG A   1      -7.319   0.703 124.348  0.00  0.00    +0.085 A 
ATOM      7  N   LIG A   1      -8.306   0.171 123.618  0.00  0.00    -0.211 NA
ATOM      8  C   LIG A   1      -8.530  -1.135 123.786  0.00  0.00    +0.231 A 
ATOM      9  O   LIG A   1      -9.484  -1.797 123.078  0.00  0.00    -0.445 OA
ATOM     10  C   LIG A   1      -9.419  -3.100 123.440  0.00  0.00    +0.198 A 
ATOM     11  C   LIG A   1      -8.435  -3.287 124.381  0.00  0.00    +0.055 A 
ATOM     12  C   LIG A   1      -7.871  -2.007 124.647  0.00  0.00    +0.082 A 
ATOM     13  C   LIG A   1      -6.883  -1.433 125.471  0.00  0.00    +0.142 A 
ENDROOT
BRANCH   2  14
ATOM     14  O   LIG A   1      -5.756   4.010 124.655  0.00  0.00    -0.495 OA
ATOM     15  C   LIG A   1      -5.700   4.853 125.803  0.00  0.00    +0.277 C 
ENDBRANCH   2  14
BRANCH  13  16
ATOM     16  O   LIG A   1      -6.106  -2.129 126.392  0.00  0.00    -0.494 OA
ATOM     17  C   LIG A   1      -6.750  -2.451 127.617  0.00  0.00    +0.277 C 
ENDBRANCH  13  16
BRANCH   1  18
ATOM     18  C   LIG A   1      -7.810   2.870 123.133  0.00  0.00    +0.068 C 
BRANCH  18  22
ATOM     19  C   LIG A   1      -6.532   4.229 119.677  0.00  0.00    +0.038 C 
ATOM     20  C   LIG A   1      -7.466   3.776 120.767  0.00  0.00    -0.079 C 
ATOM     21  C   LIG A   1      -8.929   3.865 120.416  0.00  0.00    +0.038 C 
ATOM     22  C   LIG A   1      -6.993   3.350 121.955  0.00  0.00    -0.023 C 
ENDBRANCH  18  22
ENDBRANCH   1  18
TORSDOF 4
ENDMDL
MODEL 3
REMARK VINA RESULT:      -6.7      4.605      6.581
REMARK  Name = NuBBE_1435
REMARK  8 active torsions:
REMARK  status: ('A' for Active; 'I' for Inactive)
REMARK    1  A    between atoms: C_1  and  C_2
REMARK    2  A    between atoms: C_2  and  C_3
REMARK    3  A    between atoms: C_4  and  C_5
REMARK    4  A    between atoms: C_5  and  C_6
REMARK    5  A    between atoms: C_7  and  O_8
REMARK    6  A    between atoms: O_8  and  C_9
REMARK    7  A    between atoms: C_20  and  O_21
REMARK    8  A    between atoms: O_21  and  C_22
REMARK                            x       y       z     vdW  Elec       q    Type
REMARK                         _______ _______ _______ _____ _____    ______ ____
ROOT
ATOM      1  C   LIG A   1      -6.600  -2.392 127.021  0.00  0.00    +0.024 A 
ATOM      2  C   LIG A   1      -7.938  -2.738 126.720  0.00  0.00    +0.126 A 
ATOM      3  C   LIG A   1      -8.783  -3.172 127.736  0.00  0.00    +0.046 A 
ATOM      4  C   LIG A   1      -8.323  -3.222 129.050  0.00  0.00    +0.017 A 
ATOM      5  C   LIG A   1      -7.007  -2.833 129.383  0.00  0.00    +0.043 A 
ATOM      6  C   LIG A   1      -6.132  -2.429 128.344  0.00  0.00    +0.085 A 
ATOM      7  N   LIG A   1      -4.859  -2.081 128.569  0.00  0.00    -0.211 NA
ATOM      8  C   LIG A   1      -4.464  -2.072 129.845  0.00  0.00    +0.231 A 
ATOM      9  O   LIG A   1      -3.205  -1.704 130.204  0.00  0.00    -0.445 OA
ATOM     10  C   LIG A   1      -3.144  -1.751 131.555  0.00  0.00    +0.198 A 
ATOM     11  C   LIG A   1      -4.352  -2.151 132.075  0.00  0.00    +0.055 A 
ATOM     12  C   LIG A   1      -5.213  -2.403 130.970  0.00  0.00    +0.082 A 
ATOM     13  C   LIG A   1      -6.529  -2.843 130.728  0.00  0.00    +0.142 A 
ENDROOT
BRANCH   2  14
ATOM     14  O   LIG A   1      -8.310  -2.696 125.401  0.00  0.00    -0.495 OA
ATOM     15  C   LIG A   1      -8.539  -3.952 124.768  0.00  0.00    +0.277 C 
ENDBRANCH   2  14
BRANCH  13  16
ATOM     16  O   LIG A   1      -7.442  -3.213 131.710  0.00  0.00    -0.494 OA
ATOM     17  C   LIG A   1      -7.812  -2.186 132.621  0.00  0.00    +0.277 C 
ENDBRANCH  13  16
BRANCH   1  18
ATOM     18  C   LIG A   1      -5.655  -1.961 125.901  0.00  0.00    +0.068 C 
BRANCH  18  22
ATOM     19  C   LIG A   1      -4.184  -4.563 123.353  0.00  0.00    +0.038 C 
ATOM     20  C   LIG A   1      -4.941  -3.381 123.898  0.00  0.00    -0.079 C 
ATOM     21  C   LIG A   1      -5.650  -2.556 122.856  0.00  0.00    +0.038 C 
ATOM     22  C   LIG A   1      -4.944  -3.108 125.218  0.00  0.00    -0.023 C 
ENDBRANCH  18  22
ENDBRANCH   1  18
TORSDOF 4
ENDMDL
MODEL 4
REMARK VINA RESULT:      -6.6      8.419     10.029
REMARK  Name = NuBBE_1435
REMARK  8 active torsions:
REMARK  status: ('A' for Active; 'I' for Inactive)
REMARK    1  A    between atoms: C_1  and  C_2
REMARK    2  A    between atoms: C_2  and  C_3
REMARK    3  A    between atoms: C_4  and  C_5
REMARK    4  A    between atoms: C_5  and  C_6
REMARK    5  A    between atoms: C_7  and  O_8
REMARK    6  A    between atoms: O_8  and  C_9
REMARK    7  A    between atoms: C_20  and  O_21
REMARK    8  A    between atoms: O_21  and  C_22
REMARK                            x       y       z     vdW  Elec       q    Type
REMARK                         _______ _______ _______ _____ _____    ______ ____
ROOT
ATOM      1  C   LIG A   1      -7.762   5.653 131.344  0.00  0.00    +0.024 A 
ATOM      2  C   LIG A   1      -7.777   5.335 132.721  0.00  0.00    +0.126 A 
ATOM      3  C   LIG A   1      -8.953   5.480 133.450  0.00  0.00    +0.046 A 
ATOM      4  C   LIG A   1     -10.120   5.893 132.812  0.00  0.00    +0.017 A 
ATOM      5  C   LIG A   1     -10.143   6.167 131.427  0.00  0.00    +0.043 A 
ATOM      6  C   LIG A   1      -8.937   6.059 130.690  0.00  0.00    +0.085 A 
ATOM      7  N   LIG A   1      -8.864   6.336 129.383  0.00  0.00    -0.211 NA
ATOM      8  C   LIG A   1     -10.011   6.664 128.782  0.00  0.00    +0.231 A 
ATOM      9  O   LIG A   1     -10.072   6.935 127.451  0.00  0.00    -0.445 OA
ATOM     10  C   LIG A   1     -11.370   7.175 127.150  0.00  0.00    +0.198 A 
ATOM     11  C   LIG A   1     -12.150   7.067 128.277  0.00  0.00    +0.055 A 
ATOM     12  C   LIG A   1     -11.273   6.773 129.359  0.00  0.00    +0.082 A 
ATOM     13  C   LIG A   1     -11.337   6.556 130.749  0.00  0.00    +0.142 A 
ENDROOT
BRANCH   2  14
ATOM     14  O   LIG A   1      -6.583   4.968 133.288  0.00  0.00    -0.495 OA
ATOM     15  C   LIG A   1      -6.109   5.787 134.352  0.00  0.00    +0.277 C 
ENDBRANCH   2  14
BRANCH  13  16
ATOM     16  O   LIG A   1     -12.498   6.609 131.513  0.00  0.00    -0.494 OA
ATOM     17  C   LIG A   1     -13.057   7.904 131.689  0.00  0.00    +0.277 C 
ENDBRANCH  13  16
BRANCH   1  18
ATOM     18  C   LIG A   1      -6.461   5.542 130.550  0.00  0.00    +0.068 C 
BRANCH  18  22
ATOM     19  C   LIG A   1      -3.410   7.909 131.270  0.00  0.00    +0.038 C 
ATOM     20  C   LIG A   1      -4.232   6.655 131.123  0.00  0.00    -0.079 C 
ATOM     21  C   LIG A   1      -3.488   5.379 131.420  0.00  0.00    +0.038 C 
ATOM     22  C   LIG A   1      -5.523   6.713 130.738  0.00  0.00    -0.023 C 
ENDBRANCH  18  22
ENDBRANCH   1  18
TORSDOF 4
ENDMDL
MODEL 5
REMARK VINA RESULT:      -6.6      3.061      6.667
REMARK  Name = NuBBE_1435
REMARK  8 active torsions:
REMARK  status: ('A' for Active; 'I' for Inactive)
REMARK    1  A    between atoms: C_1  and  C_2
REMARK    2  A    between atoms: C_2  and  C_3
REMARK    3  A    between atoms: C_4  and  C_5
REMARK    4  A    between atoms: C_5  and  C_6
REMARK    5  A    between atoms: C_7  and  O_8
REMARK    6  A    between atoms: O_8  and  C_9
REMARK    7  A    between atoms: C_20  and  O_21
REMARK    8  A    between atoms: O_21  and  C_22
REMARK                            x       y       z     vdW  Elec       q    Type
REMARK                         _______ _______ _______ _____ _____    ______ ____
ROOT
ATOM      1  C   LIG A   1      -7.756  -1.680 128.683  0.00  0.00    +0.024 A 
ATOM      2  C   LIG A   1      -7.854  -3.047 129.027  0.00  0.00    +0.126 A 
ATOM      3  C   LIG A   1      -8.441  -3.942 128.139  0.00  0.00    +0.046 A 
ATOM      4  C   LIG A   1      -8.889  -3.497 126.897  0.00  0.00    +0.017 A 
ATOM      5  C   LIG A   1      -8.755  -2.146 126.509  0.00  0.00    +0.043 A 
ATOM      6  C   LIG A   1      -8.194  -1.225 127.429  0.00  0.00    +0.085 A 
ATOM      7  N   LIG A   1      -8.065   0.079 127.154  0.00  0.00    -0.211 NA
ATOM      8  C   LIG A   1      -8.439   0.467 125.932  0.00  0.00    +0.231 A 
ATOM      9  O   LIG A   1      -8.326   1.759 125.523  0.00  0.00    -0.445 OA
ATOM     10  C   LIG A   1      -8.734   1.808 124.234  0.00  0.00    +0.198 A 
ATOM     11  C   LIG A   1      -9.117   0.559 123.805  0.00  0.00    +0.055 A 
ATOM     12  C   LIG A   1      -8.968  -0.321 124.914  0.00  0.00    +0.082 A 
ATOM     13  C   LIG A   1      -9.175  -1.678 125.228  0.00  0.00    +0.142 A 
ENDROOT
BRANCH   2  14
ATOM     14  O   LIG A   1      -7.423  -3.406 130.278  0.00  0.00    -0.495 OA
ATOM     15  C   LIG A   1      -6.218  -4.164 130.340  0.00  0.00    +0.277 C 
ENDBRANCH   2  14
BRANCH  13  16
ATOM     16  O   LIG A   1      -9.684  -2.632 124.353  0.00  0.00    -0.494 OA
ATOM     17  C   LIG A   1      -8.845  -2.967 123.255  0.00  0.00    +0.277 C 
ENDBRANCH  13  16
BRANCH   1  18
ATOM     18  C   LIG A   1      -7.155  -0.686 129.675  0.00  0.00    +0.068 C 
BRANCH  18  22
ATOM     19  C   LIG A   1      -9.618   1.342 131.966  0.00  0.00    +0.038 C 
ATOM     20  C   LIG A   1      -8.664   1.012 130.849  0.00  0.00    -0.079 C 
ATOM     21  C   LIG A   1      -8.403   2.146 129.892  0.00  0.00    +0.038 C 
ATOM     22  C   LIG A   1      -8.121  -0.217 130.740  0.00  0.00    -0.023 C 
ENDBRANCH  18  22
ENDBRANCH   1  18
TORSDOF 4
ENDMDL
MODEL 6
REMARK VINA RESULT:      -6.5      2.824      4.107
REMARK  Name = NuBBE_1435
REMARK  8 active torsions:
REMARK  status: ('A' for Active; 'I' for Inactive)
REMARK    1  A    between atoms: C_1  and  C_2
REMARK    2  A    between atoms: C_2  and  C_3
REMARK    3  A    between atoms: C_4  and  C_5
REMARK    4  A    between atoms: C_5  and  C_6
REMARK    5  A    between atoms: C_7  and  O_8
REMARK    6  A    between atoms: O_8  and  C_9
REMARK    7  A    between atoms: C_20  and  O_21
REMARK    8  A    between atoms: O_21  and  C_22
REMARK                            x       y       z     vdW  Elec       q    Type
REMARK                         _______ _______ _______ _____ _____    ______ ____
ROOT
ATOM      1  C   LIG A   1      -6.454   1.792 125.695  0.00  0.00    +0.024 A 
ATOM      2  C   LIG A   1      -6.622   2.526 124.498  0.00  0.00    +0.126 A 
ATOM      3  C   LIG A   1      -7.358   1.980 123.452  0.00  0.00    +0.046 A 
ATOM      4  C   LIG A   1      -7.964   0.735 123.603  0.00  0.00    +0.017 A 
ATOM      5  C   LIG A   1      -7.854   0.006 124.807  0.00  0.00    +0.043 A 
ATOM      6  C   LIG A   1      -7.071   0.542 125.859  0.00  0.00    +0.085 A 
ATOM      7  N   LIG A   1      -6.885  -0.102 127.018  0.00  0.00    -0.211 NA
ATOM      8  C   LIG A   1      -7.532  -1.261 127.163  0.00  0.00    +0.231 A 
ATOM      9  O   LIG A   1      -7.450  -1.992 128.307  0.00  0.00    -0.445 OA
ATOM     10  C   LIG A   1      -8.255  -3.069 128.153  0.00  0.00    +0.198 A 
ATOM     11  C   LIG A   1      -8.854  -3.046 126.916  0.00  0.00    +0.055 A 
ATOM     12  C   LIG A   1      -8.362  -1.893 126.241  0.00  0.00    +0.082 A 
ATOM     13  C   LIG A   1      -8.498  -1.254 124.993  0.00  0.00    +0.142 A 
ENDROOT
BRANCH   2  14
ATOM     14  O   LIG A   1      -5.969   3.729 124.409  0.00  0.00    -0.495 OA
ATOM     15  C   LIG A   1      -5.652   4.181 123.095  0.00  0.00    +0.277 C 
ENDBRANCH   2  14
BRANCH  13  16
ATOM     16  O   LIG A   1      -9.283  -1.714 123.941  0.00  0.00    -0.494 OA
ATOM     17  C   LIG A   1      -8.808  -2.884 123.287  0.00  0.00    +0.277 C 
ENDBRANCH  13  16
BRANCH   1  18
ATOM     18  C   LIG A   1      -5.606   2.367 126.828  0.00  0.00    +0.068 C 
BRANCH  18  22
ATOM     19  C   LIG A   1      -1.742   2.978 126.476  0.00  0.00    +0.038 C 
ATOM     20  C   LIG A   1      -3.203   3.236 126.734  0.00  0.00    -0.079 C 
ATOM     21  C   LIG A   1      -3.527   4.645 127.157  0.00  0.00    +0.038 C 
ATOM     22  C   LIG A   1      -4.115   2.252 126.602  0.00  0.00    -0.023 C 
ENDBRANCH  18  22
ENDBRANCH   1  18
TORSDOF 4
ENDMDL
MODEL 7
REMARK VINA RESULT:      -6.2      2.931      6.325
REMARK  Name = NuBBE_1435
REMARK  8 active torsions:
REMARK  status: ('A' for Active; 'I' for Inactive)
REMARK    1  A    between atoms: C_1  and  C_2
REMARK    2  A    between atoms: C_2  and  C_3
REMARK    3  A    between atoms: C_4  and  C_5
REMARK    4  A    between atoms: C_5  and  C_6
REMARK    5  A    between atoms: C_7  and  O_8
REMARK    6  A    between atoms: O_8  and  C_9
REMARK    7  A    between atoms: C_20  and  O_21
REMARK    8  A    between atoms: O_21  and  C_22
REMARK                            x       y       z     vdW  Elec       q    Type
REMARK                         _______ _______ _______ _____ _____    ______ ____
ROOT
ATOM      1  C   LIG A   1      -7.607  -1.009 128.390  0.00  0.00    +0.024 A 
ATOM      2  C   LIG A   1      -7.691  -0.043 129.419  0.00  0.00    +0.126 A 
ATOM      3  C   LIG A   1      -8.112   1.248 129.121  0.00  0.00    +0.046 A 
ATOM      4  C   LIG A   1      -8.492   1.574 127.820  0.00  0.00    +0.017 A 
ATOM      5  C   LIG A   1      -8.465   0.613 126.786  0.00  0.00    +0.043 A 
ATOM      6  C   LIG A   1      -7.998  -0.693 127.079  0.00  0.00    +0.085 A 
ATOM      7  N   LIG A   1      -7.907  -1.650 126.148  0.00  0.00    -0.211 NA
ATOM      8  C   LIG A   1      -8.341  -1.332 124.926  0.00  0.00    +0.231 A 
ATOM      9  O   LIG A   1      -8.331  -2.230 123.904  0.00  0.00    -0.445 OA
ATOM     10  C   LIG A   1      -8.879  -1.619 122.829  0.00  0.00    +0.198 A 
ATOM     11  C   LIG A   1      -9.240  -0.330 123.143  0.00  0.00    +0.055 A 
ATOM     12  C   LIG A   1      -8.859  -0.114 124.497  0.00  0.00    +0.082 A 
ATOM     13  C   LIG A   1      -8.885   0.917 125.456  0.00  0.00    +0.142 A 
ENDROOT
BRANCH   2  14
ATOM     14  O   LIG A   1      -7.269  -0.426 130.666  0.00  0.00    -0.495 OA
ATOM     15  C   LIG A   1      -8.267  -0.486 131.682  0.00  0.00    +0.277 C 
ENDBRANCH   2  14
BRANCH  13  16
ATOM     16  O   LIG A   1      -9.369   2.203 125.234  0.00  0.00    -0.494 OA
ATOM     17  C   LIG A   1      -8.526   3.050 124.464  0.00  0.00    +0.277 C 
ENDBRANCH  13  16
BRANCH   1  18
ATOM     18  C   LIG A   1      -7.098  -2.415 128.703  0.00  0.00    +0.068 C 
BRANCH  18  22
ATOM     19  C   LIG A   1      -3.349  -3.398 129.337  0.00  0.00    +0.038 C 
ATOM     20  C   LIG A   1      -4.850  -3.376 129.451  0.00  0.00    -0.079 C 
ATOM     21  C   LIG A   1      -5.419  -4.357 130.443  0.00  0.00    +0.038 C 
ATOM     22  C   LIG A   1      -5.592  -2.542 128.694  0.00  0.00    -0.023 C 
ENDBRANCH  18  22
ENDBRANCH   1  18
TORSDOF 4
ENDMDL
MODEL 8
REMARK VINA RESULT:      -6.2      6.017      9.009
REMARK  Name = NuBBE_1435
REMARK  8 active torsions:
REMARK  status: ('A' for Active; 'I' for Inactive)
REMARK    1  A    between atoms: C_1  and  C_2
REMARK    2  A    between atoms: C_2  and  C_3
REMARK    3  A    between atoms: C_4  and  C_5
REMARK    4  A    between atoms: C_5  and  C_6
REMARK    5  A    between atoms: C_7  and  O_8
REMARK    6  A    between atoms: O_8  and  C_9
REMARK    7  A    between atoms: C_20  and  O_21
REMARK    8  A    between atoms: O_21  and  C_22
REMARK                            x       y       z     vdW  Elec       q    Type
REMARK                         _______ _______ _______ _____ _____    ______ ____
ROOT
ATOM      1  C   LIG A   1      -8.304   4.636 130.422  0.00  0.00    +0.024 A 
ATOM      2  C   LIG A   1      -8.336   4.471 131.825  0.00  0.00    +0.126 A 
ATOM      3  C   LIG A   1      -9.191   5.255 132.593  0.00  0.00    +0.046 A 
ATOM      4  C   LIG A   1     -10.043   6.167 131.973  0.00  0.00    +0.017 A 
ATOM      5  C   LIG A   1     -10.065   6.314 130.569  0.00  0.00    +0.043 A 
ATOM      6  C   LIG A   1      -9.167   5.545 129.788  0.00  0.00    +0.085 A 
ATOM      7  N   LIG A   1      -9.099   5.651 128.456  0.00  0.00    -0.211 NA
ATOM      8  C   LIG A   1      -9.973   6.481 127.882  0.00  0.00    +0.231 A 
ATOM      9  O   LIG A   1     -10.025   6.650 126.533  0.00  0.00    -0.445 OA
ATOM     10  C   LIG A   1     -11.041   7.505 126.275  0.00  0.00    +0.198 A 
ATOM     11  C   LIG A   1     -11.646   7.897 127.446  0.00  0.00    +0.055 A 
ATOM     12  C   LIG A   1     -10.935   7.269 128.507  0.00  0.00    +0.082 A 
ATOM     13  C   LIG A   1     -10.957   7.216 129.914  0.00  0.00    +0.142 A 
ENDROOT
BRANCH   2  14
ATOM     14  O   LIG A   1      -7.446   3.580 132.367  0.00  0.00    -0.495 OA
ATOM     15  C   LIG A   1      -7.995   2.571 133.210  0.00  0.00    +0.277 C 
ENDBRANCH   2  14
BRANCH  13  16
ATOM     16  O   LIG A   1     -11.841   7.918 130.727  0.00  0.00    -0.494 OA
ATOM     17  C   LIG A   1     -13.151   7.373 130.821  0.00  0.00    +0.277 C 
ENDBRANCH  13  16
BRANCH   1  18
ATOM     18  C   LIG A   1      -7.332   3.811 129.579  0.00  0.00    +0.068 C 
BRANCH  18  22
ATOM     19  C   LIG A   1      -4.021   5.292 128.071  0.00  0.00    +0.038 C 
ATOM     20  C   LIG A   1      -5.351   4.591 128.164  0.00  0.00    -0.079 C 
ATOM     21  C   LIG A   1      -5.872   4.060 126.854  0.00  0.00    +0.038 C 
ATOM     22  C   LIG A   1      -5.999   4.484 129.341  0.00  0.00    -0.023 C 
ENDBRANCH  18  22
ENDBRANCH   1  18
TORSDOF 4
ENDMDL
MODEL 9
REMARK VINA RESULT:      -6.0      6.173      8.522
REMARK  Name = NuBBE_1435
REMARK  8 active torsions:
REMARK  status: ('A' for Active; 'I' for Inactive)
REMARK    1  A    between atoms: C_1  and  C_2
REMARK    2  A    between atoms: C_2  and  C_3
REMARK    3  A    between atoms: C_4  and  C_5
REMARK    4  A    between atoms: C_5  and  C_6
REMARK    5  A    between atoms: C_7  and  O_8
REMARK    6  A    between atoms: O_8  and  C_9
REMARK    7  A    between atoms: C_20  and  O_21
REMARK    8  A    between atoms: O_21  and  C_22
REMARK                            x       y       z     vdW  Elec       q    Type
REMARK                         _______ _______ _______ _____ _____    ______ ____
ROOT
ATOM      1  C   LIG A   1      -4.652   6.510 130.248  0.00  0.00    +0.024 A 
ATOM      2  C   LIG A   1      -3.416   6.900 130.812  0.00  0.00    +0.126 A 
ATOM      3  C   LIG A   1      -2.263   6.185 130.506  0.00  0.00    +0.046 A 
ATOM      4  C   LIG A   1      -2.321   5.118 129.613  0.00  0.00    +0.017 A 
ATOM      5  C   LIG A   1      -3.535   4.742 128.997  0.00  0.00    +0.043 A 
ATOM      6  C   LIG A   1      -4.719   5.443 129.338  0.00  0.00    +0.085 A 
ATOM      7  N   LIG A   1      -5.915   5.126 128.827  0.00  0.00    -0.211 NA
ATOM      8  C   LIG A   1      -5.932   4.145 127.922  0.00  0.00    +0.231 A 
ATOM      9  O   LIG A   1      -7.081   3.755 127.308  0.00  0.00    -0.445 OA
ATOM     10  C   LIG A   1      -6.752   2.789 126.419  0.00  0.00    +0.198 A 
ATOM     11  C   LIG A   1      -5.400   2.545 126.456  0.00  0.00    +0.055 A 
ATOM     12  C   LIG A   1      -4.855   3.395 127.460  0.00  0.00    +0.082 A 
ATOM     13  C   LIG A   1      -3.609   3.675 128.051  0.00  0.00    +0.142 A 
ENDROOT
BRANCH   2  14
ATOM     14  O   LIG A   1      -3.441   7.937 131.708  0.00  0.00    -0.495 OA
ATOM     15  C   LIG A   1      -2.613   7.799 132.860  0.00  0.00    +0.277 C 
ENDBRANCH   2  14
BRANCH  13  16
ATOM     16  O   LIG A   1      -2.410   3.047 127.727  0.00  0.00    -0.494 OA
ATOM     17  C   LIG A   1      -1.903   3.328 126.430  0.00  0.00    +0.277 C 
ENDBRANCH  13  16
BRANCH   1  18
ATOM     18  C   LIG A   1      -5.930   7.262 130.618  0.00  0.00    +0.068 C 
BRANCH  18  22
ATOM     19  C   LIG A   1      -8.805   5.758 132.831  0.00  0.00    +0.038 C 
ATOM     20  C   LIG A   1      -8.105   6.470 131.704  0.00  0.00    -0.079 C 
ATOM     21  C   LIG A   1      -9.021   7.009 130.637  0.00  0.00    +0.038 C 
ATOM     22  C   LIG A   1      -6.761   6.580 131.681  0.00  0.00    -0.023 C 
ENDBRANCH  18  22
ENDBRANCH   1  18
TORSDOF 4
ENDMDL
