MODEL 1
REMARK VINA RESULT:      -8.1      0.000      0.000
REMARK  Name = NuBBE_2481
REMARK  8 active torsions:
REMARK  status: ('A' for Active; 'I' for Inactive)
REMARK    1  A    between atoms: C_1  and  C_2
REMARK    2  A    between atoms: C_1  and  C_4
REMARK    3  A    between atoms: C_4  and  O_5
REMARK    4  A    between atoms: O_5  and  C_6
REMARK    5  A    between atoms: C_14  and  C_19
REMARK    6  A    between atoms: C_16  and  C_18
REMARK    7  A    between atoms: C_23  and  O_25
REMARK    8  A    between atoms: O_25  and  C_26
REMARK                            x       y       z     vdW  Elec       q    Type
REMARK                         _______ _______ _______ _____ _____    ______ ____
ROOT
ATOM      1  C   LIG A   1     -10.929   7.272 128.736  0.00  0.00    +0.153 C 
ATOM      2  C   LIG A   1      -9.715   7.316 129.633  0.00  0.00    +0.023 C 
ATOM      3  C   LIG A   1      -9.693   6.750 130.842  0.00  0.00    +0.000 C 
ATOM      4  C   LIG A   1     -10.828   6.068 131.389  0.00  0.00    +0.128 C 
ATOM      5  C   LIG A   1     -11.967   5.875 130.731  0.00  0.00    +0.095 C 
ATOM      6  C   LIG A   1     -12.091   6.382 129.334  0.00  0.00    +0.195 C 
ATOM      7  O   LIG A   1     -13.098   6.077 128.699  0.00  0.00    -0.289 OA
ATOM      8  O   LIG A   1     -10.556   5.543 132.642  0.00  0.00    -0.483 OA
ATOM      9  C   LIG A   1      -9.105   5.518 132.758  0.00  0.00    +0.211 C 
ATOM     10  C   LIG A   1      -8.588   6.646 131.835  0.00  0.00    +0.065 C 
ATOM     11  C   LIG A   1      -7.193   6.503 131.242  0.00  0.00    +0.016 C 
ENDROOT
BRANCH   9  12
ATOM     12  C   LIG A   1      -8.586   4.099 132.552  0.00  0.00    +0.000 A 
ATOM     13  C   LIG A   1      -7.844   3.428 133.537  0.00  0.00    +0.057 A 
ATOM     14  C   LIG A   1      -7.404   2.147 133.280  0.00  0.00    +0.170 A 
ATOM     15  C   LIG A   1      -7.649   1.503 132.088  0.00  0.00    +0.207 A 
ATOM     16  C   LIG A   1      -8.361   2.127 131.078  0.00  0.00    +0.166 A 
ATOM     17  C   LIG A   1      -8.825   3.433 131.324  0.00  0.00    +0.057 A 
ATOM     18  O   LIG A   1      -7.110   0.252 132.086  0.00  0.00    -0.449 OA
ATOM     19  C   LIG A   1      -6.498   0.194 133.387  0.00  0.00    +0.467 C 
ATOM     20  O   LIG A   1      -6.693   1.389 134.160  0.00  0.00    -0.453 OA
BRANCH  16  21
ATOM     21  O   LIG A   1      -8.678   1.631 129.846  0.00  0.00    -0.491 OA
ATOM     22  C   LIG A   1      -8.350   2.442 128.723  0.00  0.00    +0.277 C 
ENDBRANCH  16  21
ENDBRANCH   9  12
BRANCH   1  23
ATOM     23  O   LIG A   1     -10.500   6.832 127.437  0.00  0.00    -0.364 OA
ATOM     24  C   LIG A   1     -10.932   7.634 126.343  0.00  0.00    +0.195 C 
ENDBRANCH   1  23
BRANCH   1  25
ATOM     25  C   LIG A   1     -11.547   8.699 128.561  0.00  0.00    +0.074 C 
BRANCH  25  26
ATOM     26  C   LIG A   1     -12.678   9.060 129.505  0.00  0.00    -0.031 C 
ATOM     27  C   LIG A   1     -13.117  10.307 129.736  0.00  0.00    +0.004 C 
ENDBRANCH  25  26
ENDBRANCH   1  25
TORSDOF 5
ENDMDL
MODEL 2
REMARK VINA RESULT:      -8.0      0.651      2.155
REMARK  Name = NuBBE_2481
REMARK  8 active torsions:
REMARK  status: ('A' for Active; 'I' for Inactive)
REMARK    1  A    between atoms: C_1  and  C_2
REMARK    2  A    between atoms: C_1  and  C_4
REMARK    3  A    between atoms: C_4  and  O_5
REMARK    4  A    between atoms: O_5  and  C_6
REMARK    5  A    between atoms: C_14  and  C_19
REMARK    6  A    between atoms: C_16  and  C_18
REMARK    7  A    between atoms: C_23  and  O_25
REMARK    8  A    between atoms: O_25  and  C_26
REMARK                            x       y       z     vdW  Elec       q    Type
REMARK                         _______ _______ _______ _____ _____    ______ ____
ROOT
ATOM      1  C   LIG A   1     -10.939   7.291 128.722  0.00  0.00    +0.153 C 
ATOM      2  C   LIG A   1      -9.706   7.311 129.594  0.00  0.00    +0.023 C 
ATOM      3  C   LIG A   1      -9.662   6.724 130.792  0.00  0.00    +0.000 C 
ATOM      4  C   LIG A   1     -10.789   6.039 131.350  0.00  0.00    +0.128 C 
ATOM      5  C   LIG A   1     -11.944   5.865 130.713  0.00  0.00    +0.095 C 
ATOM      6  C   LIG A   1     -12.094   6.398 129.329  0.00  0.00    +0.195 C 
ATOM      7  O   LIG A   1     -13.116   6.111 128.710  0.00  0.00    -0.289 OA
ATOM      8  O   LIG A   1     -10.495   5.489 132.587  0.00  0.00    -0.483 OA
ATOM      9  C   LIG A   1      -9.041   5.453 132.672  0.00  0.00    +0.211 C 
ATOM     10  C   LIG A   1      -8.537   6.594 131.759  0.00  0.00    +0.065 C 
ATOM     11  C   LIG A   1      -7.155   6.454 131.133  0.00  0.00    +0.016 C 
ENDROOT
BRANCH   9  12
ATOM     12  C   LIG A   1      -8.536   4.035 132.429  0.00  0.00    +0.000 A 
ATOM     13  C   LIG A   1      -8.823   3.336 131.246  0.00  0.00    +0.057 A 
ATOM     14  C   LIG A   1      -8.335   2.055 131.097  0.00  0.00    +0.170 A 
ATOM     15  C   LIG A   1      -7.590   1.427 132.068  0.00  0.00    +0.207 A 
ATOM     16  C   LIG A   1      -7.294   2.065 133.260  0.00  0.00    +0.166 A 
ATOM     17  C   LIG A   1      -7.777   3.377 133.429  0.00  0.00    +0.057 A 
ATOM     18  O   LIG A   1      -7.231   0.172 131.676  0.00  0.00    -0.449 OA
ATOM     19  C   LIG A   1      -7.839   0.085 130.375  0.00  0.00    +0.467 C 
ATOM     20  O   LIG A   1      -8.530   1.285 129.991  0.00  0.00    -0.453 OA
BRANCH  16  21
ATOM     21  O   LIG A   1      -6.579   1.580 134.317  0.00  0.00    -0.491 OA
ATOM     22  C   LIG A   1      -5.631   2.460 134.911  0.00  0.00    +0.277 C 
ENDBRANCH  16  21
ENDBRANCH   9  12
BRANCH   1  23
ATOM     23  O   LIG A   1     -10.540   6.873 127.406  0.00  0.00    -0.364 OA
ATOM     24  C   LIG A   1     -10.996   7.694 126.336  0.00  0.00    +0.195 C 
ENDBRANCH   1  23
BRANCH   1  25
ATOM     25  C   LIG A   1     -11.551   8.725 128.586  0.00  0.00    +0.074 C 
BRANCH  25  26
ATOM     26  C   LIG A   1     -12.625   9.094 129.592  0.00  0.00    -0.031 C 
ATOM     27  C   LIG A   1     -13.143  10.321 129.747  0.00  0.00    +0.004 C 
ENDBRANCH  25  26
ENDBRANCH   1  25
TORSDOF 5
ENDMDL
MODEL 3
REMARK VINA RESULT:      -7.7      4.890      9.133
REMARK  Name = NuBBE_2481
REMARK  8 active torsions:
REMARK  status: ('A' for Active; 'I' for Inactive)
REMARK    1  A    between atoms: C_1  and  C_2
REMARK    2  A    between atoms: C_1  and  C_4
REMARK    3  A    between atoms: C_4  and  O_5
REMARK    4  A    between atoms: O_5  and  C_6
REMARK    5  A    between atoms: C_14  and  C_19
REMARK    6  A    between atoms: C_16  and  C_18
REMARK    7  A    between atoms: C_23  and  O_25
REMARK    8  A    between atoms: O_25  and  C_26
REMARK                            x       y       z     vdW  Elec       q    Type
REMARK                         _______ _______ _______ _____ _____    ______ ____
ROOT
ATOM      1  C   LIG A   1      -7.467  -2.200 124.843  0.00  0.00    +0.153 C 
ATOM      2  C   LIG A   1      -7.443  -2.683 126.274  0.00  0.00    +0.023 C 
ATOM      3  C   LIG A   1      -6.721  -2.084 127.224  0.00  0.00    +0.000 C 
ATOM      4  C   LIG A   1      -5.900  -0.941 126.955  0.00  0.00    +0.128 C 
ATOM      5  C   LIG A   1      -5.833  -0.335 125.773  0.00  0.00    +0.095 C 
ATOM      6  C   LIG A   1      -6.661  -0.853 124.647  0.00  0.00    +0.195 C 
ATOM      7  O   LIG A   1      -6.687  -0.202 123.605  0.00  0.00    -0.289 OA
ATOM      8  O   LIG A   1      -5.271  -0.481 128.100  0.00  0.00    -0.483 OA
ATOM      9  C   LIG A   1      -5.996  -1.068 129.218  0.00  0.00    +0.211 C 
ATOM     10  C   LIG A   1      -6.612  -2.380 128.679  0.00  0.00    +0.065 C 
ATOM     11  C   LIG A   1      -7.887  -2.895 129.334  0.00  0.00    +0.016 C 
ENDROOT
BRANCH   9  12
ATOM     12  C   LIG A   1      -6.913  -0.028 129.853  0.00  0.00    +0.000 A 
ATOM     13  C   LIG A   1      -7.710   0.831 129.080  0.00  0.00    +0.057 A 
ATOM     14  C   LIG A   1      -8.513   1.749 129.723  0.00  0.00    +0.170 A 
ATOM     15  C   LIG A   1      -8.554   1.869 131.094  0.00  0.00    +0.207 A 
ATOM     16  C   LIG A   1      -7.774   1.059 131.900  0.00  0.00    +0.166 A 
ATOM     17  C   LIG A   1      -6.953   0.109 131.263  0.00  0.00    +0.057 A 
ATOM     18  O   LIG A   1      -9.422   2.847 131.475  0.00  0.00    -0.449 OA
ATOM     19  C   LIG A   1      -9.903   3.325 130.206  0.00  0.00    +0.467 C 
ATOM     20  O   LIG A   1      -9.341   2.622 129.086  0.00  0.00    -0.453 OA
BRANCH  16  21
ATOM     21  O   LIG A   1      -7.695   1.058 133.263  0.00  0.00    -0.491 OA
ATOM     22  C   LIG A   1      -6.549   1.673 133.841  0.00  0.00    +0.277 C 
ENDBRANCH  16  21
ENDBRANCH   9  12
BRANCH   1  23
ATOM     23  O   LIG A   1      -8.842  -2.093 124.439  0.00  0.00    -0.364 OA
ATOM     24  C   LIG A   1      -9.277  -3.055 123.483  0.00  0.00    +0.195 C 
ENDBRANCH   1  23
BRANCH   1  25
ATOM     25  C   LIG A   1      -6.783  -3.236 123.891  0.00  0.00    +0.074 C 
BRANCH  25  26
ATOM     26  C   LIG A   1      -5.270  -3.322 123.968  0.00  0.00    -0.031 C 
ATOM     27  C   LIG A   1      -4.550  -4.427 123.728  0.00  0.00    +0.004 C 
ENDBRANCH  25  26
ENDBRANCH   1  25
TORSDOF 5
ENDMDL
MODEL 4
REMARK VINA RESULT:      -7.6      4.950      8.987
REMARK  Name = NuBBE_2481
REMARK  8 active torsions:
REMARK  status: ('A' for Active; 'I' for Inactive)
REMARK    1  A    between atoms: C_1  and  C_2
REMARK    2  A    between atoms: C_1  and  C_4
REMARK    3  A    between atoms: C_4  and  O_5
REMARK    4  A    between atoms: O_5  and  C_6
REMARK    5  A    between atoms: C_14  and  C_19
REMARK    6  A    between atoms: C_16  and  C_18
REMARK    7  A    between atoms: C_23  and  O_25
REMARK    8  A    between atoms: O_25  and  C_26
REMARK                            x       y       z     vdW  Elec       q    Type
REMARK                         _______ _______ _______ _____ _____    ______ ____
ROOT
ATOM      1  C   LIG A   1      -7.407  -2.335 124.908  0.00  0.00    +0.153 C 
ATOM      2  C   LIG A   1      -7.469  -2.754 126.358  0.00  0.00    +0.023 C 
ATOM      3  C   LIG A   1      -6.763  -2.146 127.314  0.00  0.00    +0.000 C 
ATOM      4  C   LIG A   1      -5.880  -1.053 127.035  0.00  0.00    +0.128 C 
ATOM      5  C   LIG A   1      -5.732  -0.505 125.832  0.00  0.00    +0.095 C 
ATOM      6  C   LIG A   1      -6.532  -1.036 124.692  0.00  0.00    +0.195 C 
ATOM      7  O   LIG A   1      -6.482  -0.431 123.623  0.00  0.00    -0.289 OA
ATOM      8  O   LIG A   1      -5.281  -0.570 128.187  0.00  0.00    -0.483 OA
ATOM      9  C   LIG A   1      -6.082  -1.073 129.294  0.00  0.00    +0.211 C 
ATOM     10  C   LIG A   1      -6.733  -2.380 128.784  0.00  0.00    +0.065 C 
ATOM     11  C   LIG A   1      -8.058  -2.808 129.401  0.00  0.00    +0.016 C 
ENDROOT
BRANCH   9  12
ATOM     12  C   LIG A   1      -6.977   0.033 129.841  0.00  0.00    +0.000 A 
ATOM     13  C   LIG A   1      -7.302   0.122 131.203  0.00  0.00    +0.057 A 
ATOM     14  C   LIG A   1      -8.121   1.149 131.625  0.00  0.00    +0.170 A 
ATOM     15  C   LIG A   1      -8.646   2.083 130.761  0.00  0.00    +0.207 A 
ATOM     16  C   LIG A   1      -8.370   2.030 129.406  0.00  0.00    +0.166 A 
ATOM     17  C   LIG A   1      -7.530   0.993 128.956  0.00  0.00    +0.057 A 
ATOM     18  O   LIG A   1      -9.419   2.987 131.426  0.00  0.00    -0.449 OA
ATOM     19  C   LIG A   1      -9.328   2.510 132.781  0.00  0.00    +0.467 C 
ATOM     20  O   LIG A   1      -8.492   1.351 132.919  0.00  0.00    -0.453 OA
BRANCH  16  21
ATOM     21  O   LIG A   1      -8.816   2.869 128.425  0.00  0.00    -0.491 OA
ATOM     22  C   LIG A   1      -8.048   4.043 128.186  0.00  0.00    +0.277 C 
ENDBRANCH  16  21
ENDBRANCH   9  12
BRANCH   1  23
ATOM     23  O   LIG A   1      -8.756  -2.186 124.436  0.00  0.00    -0.364 OA
ATOM     24  C   LIG A   1      -9.122  -3.028 123.348  0.00  0.00    +0.195 C 
ENDBRANCH   1  23
BRANCH   1  25
ATOM     25  C   LIG A   1      -6.730  -3.443 124.035  0.00  0.00    +0.074 C 
BRANCH  25  26
ATOM     26  C   LIG A   1      -5.230  -3.601 124.196  0.00  0.00    -0.031 C 
ATOM     27  C   LIG A   1      -4.503  -4.603 123.681  0.00  0.00    +0.004 C 
ENDBRANCH  25  26
ENDBRANCH   1  25
TORSDOF 5
ENDMDL
MODEL 5
REMARK VINA RESULT:      -7.3      3.201      5.556
REMARK  Name = NuBBE_2481
REMARK  8 active torsions:
REMARK  status: ('A' for Active; 'I' for Inactive)
REMARK    1  A    between atoms: C_1  and  C_2
REMARK    2  A    between atoms: C_1  and  C_4
REMARK    3  A    between atoms: C_4  and  O_5
REMARK    4  A    between atoms: O_5  and  C_6
REMARK    5  A    between atoms: C_14  and  C_19
REMARK    6  A    between atoms: C_16  and  C_18
REMARK    7  A    between atoms: C_23  and  O_25
REMARK    8  A    between atoms: O_25  and  C_26
REMARK                            x       y       z     vdW  Elec       q    Type
REMARK                         _______ _______ _______ _____ _____    ______ ____
ROOT
ATOM      1  C   LIG A   1      -9.283   5.528 129.611  0.00  0.00    +0.153 C 
ATOM      2  C   LIG A   1      -8.045   4.788 129.162  0.00  0.00    +0.023 C 
ATOM      3  C   LIG A   1      -7.867   3.483 129.382  0.00  0.00    +0.000 C 
ATOM      4  C   LIG A   1      -8.834   2.686 130.077  0.00  0.00    +0.128 C 
ATOM      5  C   LIG A   1     -10.009   3.142 130.499  0.00  0.00    +0.095 C 
ATOM      6  C   LIG A   1     -10.369   4.565 130.237  0.00  0.00    +0.195 C 
ATOM      7  O   LIG A   1     -11.509   4.930 130.514  0.00  0.00    -0.289 OA
ATOM      8  O   LIG A   1      -8.441   1.359 130.159  0.00  0.00    -0.483 OA
ATOM      9  C   LIG A   1      -7.400   1.188 129.154  0.00  0.00    +0.211 C 
ATOM     10  C   LIG A   1      -6.754   2.582 128.975  0.00  0.00    +0.065 C 
ATOM     11  C   LIG A   1      -6.113   2.907 127.632  0.00  0.00    +0.016 C 
ENDROOT
BRANCH   9  12
ATOM     12  C   LIG A   1      -7.963   0.473 127.931  0.00  0.00    +0.000 A 
ATOM     13  C   LIG A   1      -7.699  -0.882 127.676  0.00  0.00    +0.057 A 
ATOM     14  C   LIG A   1      -8.239  -1.463 126.548  0.00  0.00    +0.170 A 
ATOM     15  C   LIG A   1      -9.015  -0.763 125.652  0.00  0.00    +0.207 A 
ATOM     16  C   LIG A   1      -9.290   0.579 125.848  0.00  0.00    +0.166 A 
ATOM     17  C   LIG A   1      -8.753   1.188 126.998  0.00  0.00    +0.057 A 
ATOM     18  O   LIG A   1      -9.424  -1.563 124.627  0.00  0.00    -0.449 OA
ATOM     19  C   LIG A   1      -8.813  -2.819 124.974  0.00  0.00    +0.467 C 
ATOM     20  O   LIG A   1      -8.070  -2.769 126.202  0.00  0.00    -0.453 OA
BRANCH  16  21
ATOM     21  O   LIG A   1     -10.030   1.409 125.055  0.00  0.00    -0.491 OA
ATOM     22  C   LIG A   1      -9.367   1.992 123.939  0.00  0.00    +0.277 C 
ENDBRANCH  16  21
ENDBRANCH   9  12
BRANCH   1  23
ATOM     23  O   LIG A   1      -9.778   6.277 128.489  0.00  0.00    -0.364 OA
ATOM     24  C   LIG A   1     -10.238   7.592 128.784  0.00  0.00    +0.195 C 
ENDBRANCH   1  23
BRANCH   1  25
ATOM     25  C   LIG A   1      -8.940   6.557 130.740  0.00  0.00    +0.074 C 
BRANCH  25  26
ATOM     26  C   LIG A   1      -8.223   6.003 131.957  0.00  0.00    -0.031 C 
ATOM     27  C   LIG A   1      -8.755   5.907 133.184  0.00  0.00    +0.004 C 
ENDBRANCH  25  26
ENDBRANCH   1  25
TORSDOF 5
ENDMDL
MODEL 6
REMARK VINA RESULT:      -7.2      4.608      8.847
REMARK  Name = NuBBE_2481
REMARK  8 active torsions:
REMARK  status: ('A' for Active; 'I' for Inactive)
REMARK    1  A    between atoms: C_1  and  C_2
REMARK    2  A    between atoms: C_1  and  C_4
REMARK    3  A    between atoms: C_4  and  O_5
REMARK    4  A    between atoms: O_5  and  C_6
REMARK    5  A    between atoms: C_14  and  C_19
REMARK    6  A    between atoms: C_16  and  C_18
REMARK    7  A    between atoms: C_23  and  O_25
REMARK    8  A    between atoms: O_25  and  C_26
REMARK                            x       y       z     vdW  Elec       q    Type
REMARK                         _______ _______ _______ _____ _____    ______ ____
ROOT
ATOM      1  C   LIG A   1      -6.058  -1.872 125.313  0.00  0.00    +0.153 C 
ATOM      2  C   LIG A   1      -5.576  -0.448 125.455  0.00  0.00    +0.023 C 
ATOM      3  C   LIG A   1      -6.408   0.596 125.468  0.00  0.00    +0.000 C 
ATOM      4  C   LIG A   1      -7.826   0.445 125.333  0.00  0.00    +0.128 C 
ATOM      5  C   LIG A   1      -8.445  -0.729 125.253  0.00  0.00    +0.095 C 
ATOM      6  C   LIG A   1      -7.636  -1.979 125.317  0.00  0.00    +0.195 C 
ATOM      7  O   LIG A   1      -8.235  -3.050 125.376  0.00  0.00    -0.289 OA
ATOM      8  O   LIG A   1      -8.481   1.665 125.403  0.00  0.00    -0.483 OA
ATOM      9  C   LIG A   1      -7.532   2.593 126.001  0.00  0.00    +0.211 C 
ATOM     10  C   LIG A   1      -6.128   2.047 125.649  0.00  0.00    +0.065 C 
ATOM     11  C   LIG A   1      -4.976   2.374 126.590  0.00  0.00    +0.016 C 
ENDROOT
BRANCH   9  12
ATOM     12  C   LIG A   1      -7.884   2.835 127.464  0.00  0.00    +0.000 A 
ATOM     13  C   LIG A   1      -8.175   1.779 128.343  0.00  0.00    +0.057 A 
ATOM     14  C   LIG A   1      -8.489   2.073 129.653  0.00  0.00    +0.170 A 
ATOM     15  C   LIG A   1      -8.545   3.363 130.132  0.00  0.00    +0.207 A 
ATOM     16  C   LIG A   1      -8.284   4.439 129.303  0.00  0.00    +0.166 A 
ATOM     17  C   LIG A   1      -7.954   4.160 127.963  0.00  0.00    +0.057 A 
ATOM     18  O   LIG A   1      -8.876   3.381 131.454  0.00  0.00    -0.449 OA
ATOM     19  C   LIG A   1      -9.031   1.979 131.737  0.00  0.00    +0.467 C 
ATOM     20  O   LIG A   1      -8.772   1.139 130.602  0.00  0.00    -0.453 OA
BRANCH  16  21
ATOM     21  O   LIG A   1      -8.305   5.767 129.620  0.00  0.00    -0.491 OA
ATOM     22  C   LIG A   1      -9.584   6.382 129.730  0.00  0.00    +0.277 C 
ENDBRANCH  16  21
ENDBRANCH   9  12
BRANCH   1  23
ATOM     23  O   LIG A   1      -5.442  -2.651 126.351  0.00  0.00    -0.364 OA
ATOM     24  C   LIG A   1      -5.602  -2.147 127.674  0.00  0.00    +0.195 C 
ENDBRANCH   1  23
BRANCH   1  25
ATOM     25  C   LIG A   1      -5.603  -2.481 123.945  0.00  0.00    +0.074 C 
BRANCH  25  26
ATOM     26  C   LIG A   1      -5.186  -3.940 123.966  0.00  0.00    -0.031 C 
ATOM     27  C   LIG A   1      -3.995  -4.404 123.563  0.00  0.00    +0.004 C 
ENDBRANCH  25  26
ENDBRANCH   1  25
TORSDOF 5
ENDMDL
MODEL 7
REMARK VINA RESULT:      -7.1      4.889      7.378
REMARK  Name = NuBBE_2481
REMARK  8 active torsions:
REMARK  status: ('A' for Active; 'I' for Inactive)
REMARK    1  A    between atoms: C_1  and  C_2
REMARK    2  A    between atoms: C_1  and  C_4
REMARK    3  A    between atoms: C_4  and  O_5
REMARK    4  A    between atoms: O_5  and  C_6
REMARK    5  A    between atoms: C_14  and  C_19
REMARK    6  A    between atoms: C_16  and  C_18
REMARK    7  A    between atoms: C_23  and  O_25
REMARK    8  A    between atoms: O_25  and  C_26
REMARK                            x       y       z     vdW  Elec       q    Type
REMARK                         _______ _______ _______ _____ _____    ______ ____
ROOT
ATOM      1  C   LIG A   1      -6.870   2.316 124.620  0.00  0.00    +0.153 C 
ATOM      2  C   LIG A   1      -5.440   2.488 125.077  0.00  0.00    +0.023 C 
ATOM      3  C   LIG A   1      -5.007   3.595 125.685  0.00  0.00    +0.000 C 
ATOM      4  C   LIG A   1      -5.865   4.713 125.940  0.00  0.00    +0.128 C 
ATOM      5  C   LIG A   1      -7.166   4.731 125.664  0.00  0.00    +0.095 C 
ATOM      6  C   LIG A   1      -7.794   3.521 125.062  0.00  0.00    +0.195 C 
ATOM      7  O   LIG A   1      -9.016   3.508 124.939  0.00  0.00    -0.289 OA
ATOM      8  O   LIG A   1      -5.199   5.730 126.605  0.00  0.00    -0.483 OA
ATOM      9  C   LIG A   1      -3.999   5.122 127.164  0.00  0.00    +0.211 C 
ATOM     10  C   LIG A   1      -3.667   3.922 126.246  0.00  0.00    +0.065 C 
ATOM     11  C   LIG A   1      -2.910   2.746 126.849  0.00  0.00    +0.016 C 
ENDROOT
BRANCH   9  12
ATOM     12  C   LIG A   1      -4.179   4.881 128.658  0.00  0.00    +0.000 A 
ATOM     13  C   LIG A   1      -5.395   4.430 129.197  0.00  0.00    +0.057 A 
ATOM     14  C   LIG A   1      -5.486   4.237 130.559  0.00  0.00    +0.170 A 
ATOM     15  C   LIG A   1      -4.438   4.483 131.416  0.00  0.00    +0.207 A 
ATOM     16  C   LIG A   1      -3.224   4.946 130.938  0.00  0.00    +0.166 A 
ATOM     17  C   LIG A   1      -3.108   5.142 129.548  0.00  0.00    +0.057 A 
ATOM     18  O   LIG A   1      -4.784   4.214 132.706  0.00  0.00    -0.449 OA
ATOM     19  C   LIG A   1      -6.152   3.791 132.560  0.00  0.00    +0.467 C 
ATOM     20  O   LIG A   1      -6.602   3.787 131.196  0.00  0.00    -0.453 OA
BRANCH  16  21
ATOM     21  O   LIG A   1      -2.099   5.243 131.652  0.00  0.00    -0.491 OA
ATOM     22  C   LIG A   1      -1.446   6.470 131.343  0.00  0.00    +0.277 C 
ENDBRANCH  16  21
ENDBRANCH   9  12
BRANCH   1  23
ATOM     23  O   LIG A   1      -7.336   1.046 125.105  0.00  0.00    -0.364 OA
ATOM     24  C   LIG A   1      -7.415   0.009 124.132  0.00  0.00    +0.195 C 
ENDBRANCH   1  23
BRANCH   1  25
ATOM     25  C   LIG A   1      -6.956   2.276 123.058  0.00  0.00    +0.074 C 
BRANCH  25  26
ATOM     26  C   LIG A   1      -6.370   3.467 122.323  0.00  0.00    -0.031 C 
ATOM     27  C   LIG A   1      -5.699   3.400 121.165  0.00  0.00    +0.004 C 
ENDBRANCH  25  26
ENDBRANCH   1  25
TORSDOF 5
ENDMDL
MODEL 8
REMARK VINA RESULT:      -7.1      3.141      5.680
REMARK  Name = NuBBE_2481
REMARK  8 active torsions:
REMARK  status: ('A' for Active; 'I' for Inactive)
REMARK    1  A    between atoms: C_1  and  C_2
REMARK    2  A    between atoms: C_1  and  C_4
REMARK    3  A    between atoms: C_4  and  O_5
REMARK    4  A    between atoms: O_5  and  C_6
REMARK    5  A    between atoms: C_14  and  C_19
REMARK    6  A    between atoms: C_16  and  C_18
REMARK    7  A    between atoms: C_23  and  O_25
REMARK    8  A    between atoms: O_25  and  C_26
REMARK                            x       y       z     vdW  Elec       q    Type
REMARK                         _______ _______ _______ _____ _____    ______ ____
ROOT
ATOM      1  C   LIG A   1      -9.327   5.792 129.910  0.00  0.00    +0.153 C 
ATOM      2  C   LIG A   1      -8.080   5.023 129.544  0.00  0.00    +0.023 C 
ATOM      3  C   LIG A   1      -7.991   3.696 129.665  0.00  0.00    +0.000 C 
ATOM      4  C   LIG A   1      -9.072   2.900 130.165  0.00  0.00    +0.128 C 
ATOM      5  C   LIG A   1     -10.268   3.386 130.485  0.00  0.00    +0.095 C 
ATOM      6  C   LIG A   1     -10.526   4.844 130.312  0.00  0.00    +0.195 C 
ATOM      7  O   LIG A   1     -11.673   5.249 130.485  0.00  0.00    -0.289 OA
ATOM      8  O   LIG A   1      -8.755   1.551 130.172  0.00  0.00    -0.483 OA
ATOM      9  C   LIG A   1      -7.608   1.406 129.286  0.00  0.00    +0.211 C 
ATOM     10  C   LIG A   1      -6.880   2.770 129.311  0.00  0.00    +0.065 C 
ATOM     11  C   LIG A   1      -6.065   3.171 128.089  0.00  0.00    +0.016 C 
ENDROOT
BRANCH   9  12
ATOM     12  C   LIG A   1      -8.050   0.830 127.945  0.00  0.00    +0.000 A 
ATOM     13  C   LIG A   1      -8.760   1.593 127.006  0.00  0.00    +0.057 A 
ATOM     14  C   LIG A   1      -9.129   1.004 125.815  0.00  0.00    +0.170 A 
ATOM     15  C   LIG A   1      -8.843  -0.308 125.515  0.00  0.00    +0.207 A 
ATOM     16  C   LIG A   1      -8.161  -1.109 126.414  0.00  0.00    +0.166 A 
ATOM     17  C   LIG A   1      -7.768  -0.524 127.634  0.00  0.00    +0.057 A 
ATOM     18  O   LIG A   1      -9.316  -0.645 124.282  0.00  0.00    -0.449 OA
ATOM     19  C   LIG A   1      -9.932   0.585 123.858  0.00  0.00    +0.467 C 
ATOM     20  O   LIG A   1      -9.804   1.644 124.820  0.00  0.00    -0.453 OA
BRANCH  16  21
ATOM     21  O   LIG A   1      -7.809  -2.421 126.272  0.00  0.00    -0.491 OA
ATOM     22  C   LIG A   1      -8.845  -3.384 126.430  0.00  0.00    +0.277 C 
ENDBRANCH  16  21
ENDBRANCH   9  12
BRANCH   1  23
ATOM     23  O   LIG A   1      -9.646   6.661 128.810  0.00  0.00    -0.364 OA
ATOM     24  C   LIG A   1     -10.148   7.945 129.166  0.00  0.00    +0.195 C 
ENDBRANCH   1  23
BRANCH   1  25
ATOM     25  C   LIG A   1      -9.077   6.701 131.159  0.00  0.00    +0.074 C 
BRANCH  25  26
ATOM     26  C   LIG A   1      -8.197   6.116 132.248  0.00  0.00    -0.031 C 
ATOM     27  C   LIG A   1      -8.631   5.710 133.450  0.00  0.00    +0.004 C 
ENDBRANCH  25  26
ENDBRANCH   1  25
TORSDOF 5
ENDMDL
MODEL 9
REMARK VINA RESULT:      -7.1      5.340      7.716
REMARK  Name = NuBBE_2481
REMARK  8 active torsions:
REMARK  status: ('A' for Active; 'I' for Inactive)
REMARK    1  A    between atoms: C_1  and  C_2
REMARK    2  A    between atoms: C_1  and  C_4
REMARK    3  A    between atoms: C_4  and  O_5
REMARK    4  A    between atoms: O_5  and  C_6
REMARK    5  A    between atoms: C_14  and  C_19
REMARK    6  A    between atoms: C_16  and  C_18
REMARK    7  A    between atoms: C_23  and  O_25
REMARK    8  A    between atoms: O_25  and  C_26
REMARK                            x       y       z     vdW  Elec       q    Type
REMARK                         _______ _______ _______ _____ _____    ______ ____
ROOT
ATOM      1  C   LIG A   1      -8.549   2.160 123.804  0.00  0.00    +0.153 C 
ATOM      2  C   LIG A   1      -7.759   0.873 123.827  0.00  0.00    +0.023 C 
ATOM      3  C   LIG A   1      -6.713   0.686 124.636  0.00  0.00    +0.000 C 
ATOM      4  C   LIG A   1      -6.251   1.699 125.537  0.00  0.00    +0.128 C 
ATOM      5  C   LIG A   1      -6.849   2.876 125.703  0.00  0.00    +0.095 C 
ATOM      6  C   LIG A   1      -8.082   3.177 124.921  0.00  0.00    +0.195 C 
ATOM      7  O   LIG A   1      -8.692   4.211 125.185  0.00  0.00    -0.289 OA
ATOM      8  O   LIG A   1      -5.173   1.263 126.291  0.00  0.00    -0.483 OA
ATOM      9  C   LIG A   1      -5.175  -0.189 126.187  0.00  0.00    +0.211 C 
ATOM     10  C   LIG A   1      -5.855  -0.515 124.837  0.00  0.00    +0.065 C 
ATOM     11  C   LIG A   1      -6.569  -1.853 124.698  0.00  0.00    +0.016 C 
ENDROOT
BRANCH   9  12
ATOM     12  C   LIG A   1      -5.734  -0.807 127.463  0.00  0.00    +0.000 A 
ATOM     13  C   LIG A   1      -5.306  -2.058 127.933  0.00  0.00    +0.057 A 
ATOM     14  C   LIG A   1      -5.859  -2.556 129.094  0.00  0.00    +0.170 A 
ATOM     15  C   LIG A   1      -6.827  -1.883 129.804  0.00  0.00    +0.207 A 
ATOM     16  C   LIG A   1      -7.296  -0.654 129.374  0.00  0.00    +0.166 A 
ATOM     17  C   LIG A   1      -6.739  -0.125 128.194  0.00  0.00    +0.057 A 
ATOM     18  O   LIG A   1      -7.205  -2.586 130.908  0.00  0.00    -0.449 OA
ATOM     19  C   LIG A   1      -6.385  -3.764 130.801  0.00  0.00    +0.467 C 
ATOM     20  O   LIG A   1      -5.514  -3.747 129.659  0.00  0.00    -0.453 OA
BRANCH  16  21
ATOM     21  O   LIG A   1      -8.250   0.130 129.956  0.00  0.00    -0.491 OA
ATOM     22  C   LIG A   1      -8.320   1.485 129.524  0.00  0.00    +0.277 C 
ENDBRANCH  16  21
ENDBRANCH   9  12
BRANCH   1  23
ATOM     23  O   LIG A   1      -9.942   1.822 123.903  0.00  0.00    -0.364 OA
ATOM     24  C   LIG A   1     -10.418   0.892 122.935  0.00  0.00    +0.195 C 
ENDBRANCH   1  23
BRANCH   1  25
ATOM     25  C   LIG A   1      -8.350   2.913 122.446  0.00  0.00    +0.074 C 
BRANCH  25  26
ATOM     26  C   LIG A   1      -6.916   3.115 121.995  0.00  0.00    -0.031 C 
ATOM     27  C   LIG A   1      -6.543   3.798 120.902  0.00  0.00    +0.004 C 
ENDBRANCH  25  26
ENDBRANCH   1  25
TORSDOF 5
ENDMDL
