MODEL 1
REMARK VINA RESULT:      -6.8      0.000      0.000
REMARK  Name = NuBBE_1621
REMARK  7 active torsions:
REMARK  status: ('A' for Active; 'I' for Inactive)
REMARK    1  A    between atoms: O_1  and  C_2
REMARK    2  A    between atoms: O_1  and  C_7
REMARK    3  A    between atoms: C_2  and  C_3
REMARK    4  A    between atoms: C_4  and  C_5
REMARK    5  A    between atoms: C_4  and  C_6
REMARK    6  A    between atoms: C_10  and  O_16
REMARK    7  A    between atoms: O_16  and  C_17
REMARK                            x       y       z     vdW  Elec       q    Type
REMARK                         _______ _______ _______ _____ _____    ______ ____
ROOT
ATOM      1  C   LIG A   1      -7.072   1.072 125.473  0.00  0.00    +0.207 A 
ATOM      2  C   LIG A   1      -7.794   1.542 124.370  0.00  0.00    +0.188 A 
ATOM      3  C   LIG A   1      -7.416   2.675 123.642  0.00  0.00    +0.064 A 
ATOM      4  C   LIG A   1      -6.258   3.406 124.027  0.00  0.00    +0.142 A 
ATOM      5  C   LIG A   1      -5.517   2.975 125.159  0.00  0.00    +0.066 A 
ATOM      6  C   LIG A   1      -5.932   1.812 125.808  0.00  0.00    +0.183 A 
ATOM      7  O   LIG A   1      -5.076   1.519 126.830  0.00  0.00    -0.459 OA
ATOM      8  C   LIG A   1      -4.166   2.507 126.909  0.00  0.00    +0.196 A 
ATOM      9  C   LIG A   1      -4.393   3.430 125.919  0.00  0.00    +0.053 A 
ATOM     10  C   LIG A   1      -8.213   3.040 122.484  0.00  0.00    +0.022 A 
ATOM     11  C   LIG A   1      -9.316   2.341 122.153  0.00  0.00    +0.093 A 
ATOM     12  C   LIG A   1      -9.777   1.182 122.940  0.00  0.00    +0.337 A 
ATOM     13  O   LIG A   1     -10.810   0.589 122.639  0.00  0.00    -0.245 OA
ATOM     14  O   LIG A   1      -8.979   0.830 124.014  0.00  0.00    -0.418 OA
ENDROOT
BRANCH   4  15
ATOM     15  O   LIG A   1      -5.990   4.554 123.291  0.00  0.00    -0.494 OA
ATOM     16  C   LIG A   1      -4.938   4.437 122.341  0.00  0.00    +0.277 C 
ENDBRANCH   4  15
BRANCH   1  17
ATOM     17  O   LIG A   1      -7.534  -0.052 126.134  0.00  0.00    -0.481 OA
BRANCH  17  18
ATOM     18  C   LIG A   1      -6.968  -1.280 125.671  0.00  0.00    +0.257 C 
BRANCH  18  19
ATOM     19  C   LIG A   1      -8.071  -2.157 125.180  0.00  0.00    +0.012 C 
ATOM     20  C   LIG A   1      -8.322  -2.494 123.903  0.00  0.00    -0.076 C 
ATOM     21  C   LIG A   1      -7.560  -1.967 122.719  0.00  0.00    +0.038 C 
ATOM     22  C   LIG A   1      -9.450  -3.428 123.572  0.00  0.00    +0.038 C 
ENDBRANCH  18  19
ENDBRANCH  17  18
ENDBRANCH   1  17
TORSDOF 4
ENDMDL
MODEL 2
REMARK VINA RESULT:      -6.8      2.656      4.009
REMARK  Name = NuBBE_1621
REMARK  7 active torsions:
REMARK  status: ('A' for Active; 'I' for Inactive)
REMARK    1  A    between atoms: O_1  and  C_2
REMARK    2  A    between atoms: O_1  and  C_7
REMARK    3  A    between atoms: C_2  and  C_3
REMARK    4  A    between atoms: C_4  and  C_5
REMARK    5  A    between atoms: C_4  and  C_6
REMARK    6  A    between atoms: C_10  and  O_16
REMARK    7  A    between atoms: O_16  and  C_17
REMARK                            x       y       z     vdW  Elec       q    Type
REMARK                         _______ _______ _______ _____ _____    ______ ____
ROOT
ATOM      1  C   LIG A   1      -9.021  -1.775 125.770  0.00  0.00    +0.207 A 
ATOM      2  C   LIG A   1      -9.069  -0.514 125.162  0.00  0.00    +0.188 A 
ATOM      3  C   LIG A   1      -8.510   0.629 125.742  0.00  0.00    +0.064 A 
ATOM      4  C   LIG A   1      -7.868   0.536 127.008  0.00  0.00    +0.142 A 
ATOM      5  C   LIG A   1      -7.825  -0.721 127.667  0.00  0.00    +0.066 A 
ATOM      6  C   LIG A   1      -8.367  -1.823 127.007  0.00  0.00    +0.183 A 
ATOM      7  O   LIG A   1      -8.187  -2.949 127.758  0.00  0.00    -0.459 OA
ATOM      8  C   LIG A   1      -7.616  -2.588 128.921  0.00  0.00    +0.196 A 
ATOM      9  C   LIG A   1      -7.381  -1.237 128.926  0.00  0.00    +0.053 A 
ATOM     10  C   LIG A   1      -8.576   1.875 124.996  0.00  0.00    +0.022 A 
ATOM     11  C   LIG A   1      -9.206   1.938 123.808  0.00  0.00    +0.093 A 
ATOM     12  C   LIG A   1      -9.863   0.764 123.203  0.00  0.00    +0.337 A 
ATOM     13  O   LIG A   1     -10.467   0.861 122.137  0.00  0.00    -0.245 OA
ATOM     14  O   LIG A   1      -9.752  -0.418 123.913  0.00  0.00    -0.418 OA
ENDROOT
BRANCH   4  15
ATOM     15  O   LIG A   1      -7.397   1.730 127.541  0.00  0.00    -0.494 OA
ATOM     16  C   LIG A   1      -8.196   2.296 128.571  0.00  0.00    +0.277 C 
ENDBRANCH   4  15
BRANCH   1  17
ATOM     17  O   LIG A   1      -9.614  -2.843 125.121  0.00  0.00    -0.481 OA
BRANCH  17  18
ATOM     18  C   LIG A   1      -8.961  -3.232 123.912  0.00  0.00    +0.257 C 
BRANCH  18  19
ATOM     19  C   LIG A   1      -7.551  -3.604 124.231  0.00  0.00    +0.012 C 
ATOM     20  C   LIG A   1      -6.438  -2.993 123.788  0.00  0.00    -0.076 C 
ATOM     21  C   LIG A   1      -6.427  -1.851 122.810  0.00  0.00    +0.038 C 
ATOM     22  C   LIG A   1      -5.085  -3.463 124.237  0.00  0.00    +0.038 C 
ENDBRANCH  18  19
ENDBRANCH  17  18
ENDBRANCH   1  17
TORSDOF 4
ENDMDL
MODEL 3
REMARK VINA RESULT:      -6.7      1.855      4.873
REMARK  Name = NuBBE_1621
REMARK  7 active torsions:
REMARK  status: ('A' for Active; 'I' for Inactive)
REMARK    1  A    between atoms: O_1  and  C_2
REMARK    2  A    between atoms: O_1  and  C_7
REMARK    3  A    between atoms: C_2  and  C_3
REMARK    4  A    between atoms: C_4  and  C_5
REMARK    5  A    between atoms: C_4  and  C_6
REMARK    6  A    between atoms: C_10  and  O_16
REMARK    7  A    between atoms: O_16  and  C_17
REMARK                            x       y       z     vdW  Elec       q    Type
REMARK                         _______ _______ _______ _____ _____    ______ ____
ROOT
ATOM      1  C   LIG A   1      -6.595   2.570 124.244  0.00  0.00    +0.207 A 
ATOM      2  C   LIG A   1      -7.238   1.333 124.376  0.00  0.00    +0.188 A 
ATOM      3  C   LIG A   1      -6.861   0.380 125.328  0.00  0.00    +0.064 A 
ATOM      4  C   LIG A   1      -5.774   0.650 126.204  0.00  0.00    +0.142 A 
ATOM      5  C   LIG A   1      -5.080   1.882 126.080  0.00  0.00    +0.066 A 
ATOM      6  C   LIG A   1      -5.540   2.799 125.137  0.00  0.00    +0.183 A 
ATOM      7  O   LIG A   1      -4.795   3.942 125.196  0.00  0.00    -0.459 OA
ATOM      8  C   LIG A   1      -3.815   3.754 126.098  0.00  0.00    +0.196 A 
ATOM      9  C   LIG A   1      -3.933   2.509 126.663  0.00  0.00    +0.053 A 
ATOM     10  C   LIG A   1      -7.634  -0.849 125.407  0.00  0.00    +0.022 A 
ATOM     11  C   LIG A   1      -8.647  -1.086 124.552  0.00  0.00    +0.093 A 
ATOM     12  C   LIG A   1      -9.024  -0.129 123.495  0.00  0.00    +0.337 A 
ATOM     13  O   LIG A   1      -9.925  -0.391 122.702  0.00  0.00    -0.245 OA
ATOM     14  O   LIG A   1      -8.300   1.049 123.465  0.00  0.00    -0.418 OA
ENDROOT
BRANCH   4  15
ATOM     15  O   LIG A   1      -5.425  -0.376 127.076  0.00  0.00    -0.494 OA
ATOM     16  C   LIG A   1      -5.745  -0.149 128.443  0.00  0.00    +0.277 C 
ENDBRANCH   4  15
BRANCH   1  17
ATOM     17  O   LIG A   1      -7.035   3.441 123.264  0.00  0.00    -0.481 OA
BRANCH  17  18
ATOM     18  C   LIG A   1      -6.141   3.580 122.158  0.00  0.00    +0.257 C 
BRANCH  18  19
ATOM     19  C   LIG A   1      -6.947   3.730 120.911  0.00  0.00    +0.012 C 
ATOM     20  C   LIG A   1      -6.611   4.433 119.816  0.00  0.00    -0.076 C 
ATOM     21  C   LIG A   1      -5.370   5.273 119.692  0.00  0.00    +0.038 C 
ATOM     22  C   LIG A   1      -7.515   4.450 118.618  0.00  0.00    +0.038 C 
ENDBRANCH  18  19
ENDBRANCH  17  18
ENDBRANCH   1  17
TORSDOF 4
ENDMDL
MODEL 4
REMARK VINA RESULT:      -6.7      2.378      5.030
REMARK  Name = NuBBE_1621
REMARK  7 active torsions:
REMARK  status: ('A' for Active; 'I' for Inactive)
REMARK    1  A    between atoms: O_1  and  C_2
REMARK    2  A    between atoms: O_1  and  C_7
REMARK    3  A    between atoms: C_2  and  C_3
REMARK    4  A    between atoms: C_4  and  C_5
REMARK    5  A    between atoms: C_4  and  C_6
REMARK    6  A    between atoms: C_10  and  O_16
REMARK    7  A    between atoms: O_16  and  C_17
REMARK                            x       y       z     vdW  Elec       q    Type
REMARK                         _______ _______ _______ _____ _____    ______ ____
ROOT
ATOM      1  C   LIG A   1      -9.162  -1.298 125.539  0.00  0.00    +0.207 A 
ATOM      2  C   LIG A   1      -8.487  -1.268 126.766  0.00  0.00    +0.188 A 
ATOM      3  C   LIG A   1      -7.970  -0.092 127.318  0.00  0.00    +0.064 A 
ATOM      4  C   LIG A   1      -8.112   1.138 126.619  0.00  0.00    +0.142 A 
ATOM      5  C   LIG A   1      -8.766   1.142 125.359  0.00  0.00    +0.066 A 
ATOM      6  C   LIG A   1      -9.293  -0.062 124.893  0.00  0.00    +0.183 A 
ATOM      7  O   LIG A   1      -9.931   0.139 123.703  0.00  0.00    -0.459 OA
ATOM      8  C   LIG A   1      -9.760   1.425 123.350  0.00  0.00    +0.196 A 
ATOM      9  C   LIG A   1      -9.046   2.084 124.319  0.00  0.00    +0.053 A 
ATOM     10  C   LIG A   1      -7.333  -0.173 128.622  0.00  0.00    +0.022 A 
ATOM     11  C   LIG A   1      -7.195  -1.355 129.253  0.00  0.00    +0.093 A 
ATOM     12  C   LIG A   1      -7.671  -2.621 128.665  0.00  0.00    +0.337 A 
ATOM     13  O   LIG A   1      -7.494  -3.690 129.245  0.00  0.00    -0.245 OA
ATOM     14  O   LIG A   1      -8.309  -2.512 127.442  0.00  0.00    -0.418 OA
ENDROOT
BRANCH   4  15
ATOM     15  O   LIG A   1      -7.514   2.246 127.208  0.00  0.00    -0.494 OA
ATOM     16  C   LIG A   1      -6.292   2.667 126.614  0.00  0.00    +0.277 C 
ENDBRANCH   4  15
BRANCH   1  17
ATOM     17  O   LIG A   1      -9.628  -2.513 125.071  0.00  0.00    -0.481 OA
BRANCH  17  18
ATOM     18  C   LIG A   1      -9.046  -2.928 123.835  0.00  0.00    +0.257 C 
BRANCH  18  19
ATOM     19  C   LIG A   1      -7.658  -3.410 124.099  0.00  0.00    +0.012 C 
ATOM     20  C   LIG A   1      -6.514  -2.815 123.720  0.00  0.00    -0.076 C 
ATOM     21  C   LIG A   1      -6.441  -1.572 122.876  0.00  0.00    +0.038 C 
ATOM     22  C   LIG A   1      -5.188  -3.405 124.104  0.00  0.00    +0.038 C 
ENDBRANCH  18  19
ENDBRANCH  17  18
ENDBRANCH   1  17
TORSDOF 4
ENDMDL
MODEL 5
REMARK VINA RESULT:      -6.5      2.136      5.494
REMARK  Name = NuBBE_1621
REMARK  7 active torsions:
REMARK  status: ('A' for Active; 'I' for Inactive)
REMARK    1  A    between atoms: O_1  and  C_2
REMARK    2  A    between atoms: O_1  and  C_7
REMARK    3  A    between atoms: C_2  and  C_3
REMARK    4  A    between atoms: C_4  and  C_5
REMARK    5  A    between atoms: C_4  and  C_6
REMARK    6  A    between atoms: C_10  and  O_16
REMARK    7  A    between atoms: O_16  and  C_17
REMARK                            x       y       z     vdW  Elec       q    Type
REMARK                         _______ _______ _______ _____ _____    ______ ____
ROOT
ATOM      1  C   LIG A   1      -6.269   4.205 125.312  0.00  0.00    +0.207 A 
ATOM      2  C   LIG A   1      -6.038   4.003 123.946  0.00  0.00    +0.188 A 
ATOM      3  C   LIG A   1      -6.536   2.898 123.247  0.00  0.00    +0.064 A 
ATOM      4  C   LIG A   1      -7.303   1.917 123.933  0.00  0.00    +0.142 A 
ATOM      5  C   LIG A   1      -7.534   2.074 125.325  0.00  0.00    +0.066 A 
ATOM      6  C   LIG A   1      -7.041   3.222 125.944  0.00  0.00    +0.183 A 
ATOM      7  O   LIG A   1      -7.403   3.233 127.261  0.00  0.00    -0.459 OA
ATOM      8  C   LIG A   1      -8.047   2.082 127.526  0.00  0.00    +0.196 A 
ATOM      9  C   LIG A   1      -8.147   1.330 126.383  0.00  0.00    +0.053 A 
ATOM     10  C   LIG A   1      -6.276   2.820 121.819  0.00  0.00    +0.022 A 
ATOM     11  C   LIG A   1      -5.530   3.753 121.199  0.00  0.00    +0.093 A 
ATOM     12  C   LIG A   1      -4.936   4.894 121.922  0.00  0.00    +0.337 A 
ATOM     13  O   LIG A   1      -4.224   5.707 121.337  0.00  0.00    -0.245 OA
ATOM     14  O   LIG A   1      -5.230   4.968 123.271  0.00  0.00    -0.418 OA
ENDROOT
BRANCH   4  15
ATOM     15  O   LIG A   1      -7.705   0.821 123.179  0.00  0.00    -0.494 OA
ATOM     16  C   LIG A   1      -6.963  -0.373 123.395  0.00  0.00    +0.277 C 
ENDBRANCH   4  15
BRANCH   1  17
ATOM     17  O   LIG A   1      -5.724   5.323 125.916  0.00  0.00    -0.481 OA
BRANCH  17  18
ATOM     18  C   LIG A   1      -5.026   5.053 127.132  0.00  0.00    +0.257 C 
BRANCH  18  19
ATOM     19  C   LIG A   1      -3.655   4.568 126.797  0.00  0.00    +0.012 C 
ATOM     20  C   LIG A   1      -3.163   3.335 127.009  0.00  0.00    -0.076 C 
ATOM     21  C   LIG A   1      -3.908   2.232 127.708  0.00  0.00    +0.038 C 
ATOM     22  C   LIG A   1      -1.769   2.989 126.573  0.00  0.00    +0.038 C 
ENDBRANCH  18  19
ENDBRANCH  17  18
ENDBRANCH   1  17
TORSDOF 4
ENDMDL
MODEL 6
REMARK VINA RESULT:      -6.4      1.757      5.806
REMARK  Name = NuBBE_1621
REMARK  7 active torsions:
REMARK  status: ('A' for Active; 'I' for Inactive)
REMARK    1  A    between atoms: O_1  and  C_2
REMARK    2  A    between atoms: O_1  and  C_7
REMARK    3  A    between atoms: C_2  and  C_3
REMARK    4  A    between atoms: C_4  and  C_5
REMARK    5  A    between atoms: C_4  and  C_6
REMARK    6  A    between atoms: C_10  and  O_16
REMARK    7  A    between atoms: O_16  and  C_17
REMARK                            x       y       z     vdW  Elec       q    Type
REMARK                         _______ _______ _______ _____ _____    ______ ____
ROOT
ATOM      1  C   LIG A   1      -7.895   1.892 124.019  0.00  0.00    +0.207 A 
ATOM      2  C   LIG A   1      -6.842   2.261 124.864  0.00  0.00    +0.188 A 
ATOM      3  C   LIG A   1      -5.982   1.330 125.456  0.00  0.00    +0.064 A 
ATOM      4  C   LIG A   1      -6.172  -0.059 125.213  0.00  0.00    +0.142 A 
ATOM      5  C   LIG A   1      -7.248  -0.471 124.384  0.00  0.00    +0.066 A 
ATOM      6  C   LIG A   1      -8.037   0.517 123.796  0.00  0.00    +0.183 A 
ATOM      7  O   LIG A   1      -8.979  -0.057 122.992  0.00  0.00    -0.459 OA
ATOM      8  C   LIG A   1      -8.871  -1.392 123.110  0.00  0.00    +0.196 A 
ATOM      9  C   LIG A   1      -7.837  -1.704 123.956  0.00  0.00    +0.053 A 
ATOM     10  C   LIG A   1      -4.892   1.831 126.275  0.00  0.00    +0.022 A 
ATOM     11  C   LIG A   1      -4.747   3.151 126.503  0.00  0.00    +0.093 A 
ATOM     12  C   LIG A   1      -5.677   4.152 125.947  0.00  0.00    +0.337 A 
ATOM     13  O   LIG A   1      -5.544   5.345 126.206  0.00  0.00    -0.245 OA
ATOM     14  O   LIG A   1      -6.683   3.653 125.139  0.00  0.00    -0.418 OA
ENDROOT
BRANCH   4  15
ATOM     15  O   LIG A   1      -5.315  -0.918 125.890  0.00  0.00    -0.494 OA
ATOM     16  C   LIG A   1      -5.891  -1.615 126.988  0.00  0.00    +0.277 C 
ENDBRANCH   4  15
BRANCH   1  17
ATOM     17  O   LIG A   1      -8.698   2.888 123.491  0.00  0.00    -0.481 OA
BRANCH  17  18
ATOM     18  C   LIG A   1      -8.584   3.045 122.076  0.00  0.00    +0.257 C 
BRANCH  18  19
ATOM     19  C   LIG A   1      -7.185   3.453 121.753  0.00  0.00    +0.012 C 
ATOM     20  C   LIG A   1      -6.751   3.998 120.603  0.00  0.00    -0.076 C 
ATOM     21  C   LIG A   1      -7.611   4.221 119.390  0.00  0.00    +0.038 C 
ATOM     22  C   LIG A   1      -5.312   4.396 120.448  0.00  0.00    +0.038 C 
ENDBRANCH  18  19
ENDBRANCH  17  18
ENDBRANCH   1  17
TORSDOF 4
ENDMDL
MODEL 7
REMARK VINA RESULT:      -6.3      1.811      3.231
REMARK  Name = NuBBE_1621
REMARK  7 active torsions:
REMARK  status: ('A' for Active; 'I' for Inactive)
REMARK    1  A    between atoms: O_1  and  C_2
REMARK    2  A    between atoms: O_1  and  C_7
REMARK    3  A    between atoms: C_2  and  C_3
REMARK    4  A    between atoms: C_4  and  C_5
REMARK    5  A    between atoms: C_4  and  C_6
REMARK    6  A    between atoms: C_10  and  O_16
REMARK    7  A    between atoms: O_16  and  C_17
REMARK                            x       y       z     vdW  Elec       q    Type
REMARK                         _______ _______ _______ _____ _____    ______ ____
ROOT
ATOM      1  C   LIG A   1      -7.781   1.845 124.423  0.00  0.00    +0.207 A 
ATOM      2  C   LIG A   1      -6.927   2.745 123.776  0.00  0.00    +0.188 A 
ATOM      3  C   LIG A   1      -6.226   3.748 124.454  0.00  0.00    +0.064 A 
ATOM      4  C   LIG A   1      -6.380   3.888 125.861  0.00  0.00    +0.142 A 
ATOM      5  C   LIG A   1      -7.261   3.011 126.547  0.00  0.00    +0.066 A 
ATOM      6  C   LIG A   1      -7.892   2.009 125.810  0.00  0.00    +0.183 A 
ATOM      7  O   LIG A   1      -8.650   1.231 126.636  0.00  0.00    -0.459 OA
ATOM      8  C   LIG A   1      -8.589   1.753 127.874  0.00  0.00    +0.196 A 
ATOM      9  C   LIG A   1      -7.763   2.849 127.878  0.00  0.00    +0.053 A 
ATOM     10  C   LIG A   1      -5.327   4.593 123.686  0.00  0.00    +0.022 A 
ATOM     11  C   LIG A   1      -5.215   4.451 122.351  0.00  0.00    +0.093 A 
ATOM     12  C   LIG A   1      -5.991   3.446 121.599  0.00  0.00    +0.337 A 
ATOM     13  O   LIG A   1      -5.900   3.368 120.376  0.00  0.00    -0.245 OA
ATOM     14  O   LIG A   1      -6.809   2.629 122.358  0.00  0.00    -0.418 OA
ENDROOT
BRANCH   4  15
ATOM     15  O   LIG A   1      -5.698   4.949 126.446  0.00  0.00    -0.494 OA
ATOM     16  C   LIG A   1      -4.574   4.588 127.239  0.00  0.00    +0.277 C 
ENDBRANCH   4  15
BRANCH   1  17
ATOM     17  O   LIG A   1      -8.439   0.895 123.663  0.00  0.00    -0.481 OA
BRANCH  17  18
ATOM     18  C   LIG A   1      -7.774  -0.367 123.596  0.00  0.00    +0.257 C 
BRANCH  18  19
ATOM     19  C   LIG A   1      -8.791  -1.429 123.346  0.00  0.00    +0.012 C 
ATOM     20  C   LIG A   1      -8.698  -2.728 123.681  0.00  0.00    -0.076 C 
ATOM     21  C   LIG A   1      -7.486  -3.359 124.309  0.00  0.00    +0.038 C 
ATOM     22  C   LIG A   1      -9.833  -3.668 123.398  0.00  0.00    +0.038 C 
ENDBRANCH  18  19
ENDBRANCH  17  18
ENDBRANCH   1  17
TORSDOF 4
ENDMDL
MODEL 8
REMARK VINA RESULT:      -6.3      3.543      6.663
REMARK  Name = NuBBE_1621
REMARK  7 active torsions:
REMARK  status: ('A' for Active; 'I' for Inactive)
REMARK    1  A    between atoms: O_1  and  C_2
REMARK    2  A    between atoms: O_1  and  C_7
REMARK    3  A    between atoms: C_2  and  C_3
REMARK    4  A    between atoms: C_4  and  C_5
REMARK    5  A    between atoms: C_4  and  C_6
REMARK    6  A    between atoms: C_10  and  O_16
REMARK    7  A    between atoms: O_16  and  C_17
REMARK                            x       y       z     vdW  Elec       q    Type
REMARK                         _______ _______ _______ _____ _____    ______ ____
ROOT
ATOM      1  C   LIG A   1      -7.897   0.157 127.103  0.00  0.00    +0.207 A 
ATOM      2  C   LIG A   1      -8.149  -1.182 127.426  0.00  0.00    +0.188 A 
ATOM      3  C   LIG A   1      -8.716  -2.087 126.522  0.00  0.00    +0.064 A 
ATOM      4  C   LIG A   1      -9.072  -1.650 125.216  0.00  0.00    +0.142 A 
ATOM      5  C   LIG A   1      -8.857  -0.292 124.863  0.00  0.00    +0.066 A 
ATOM      6  C   LIG A   1      -8.249   0.540 125.802  0.00  0.00    +0.183 A 
ATOM      7  O   LIG A   1      -8.070   1.786 125.275  0.00  0.00    -0.459 OA
ATOM      8  C   LIG A   1      -8.622   1.802 124.048  0.00  0.00    +0.196 A 
ATOM      9  C   LIG A   1      -9.127   0.563 123.747  0.00  0.00    +0.053 A 
ATOM     10  C   LIG A   1      -8.885  -3.465 126.951  0.00  0.00    +0.022 A 
ATOM     11  C   LIG A   1      -8.557  -3.847 128.201  0.00  0.00    +0.093 A 
ATOM     12  C   LIG A   1      -8.019  -2.901 129.196  0.00  0.00    +0.337 A 
ATOM     13  O   LIG A   1      -7.768  -3.269 130.341  0.00  0.00    -0.245 OA
ATOM     14  O   LIG A   1      -7.831  -1.604 128.752  0.00  0.00    -0.418 OA
ENDROOT
BRANCH   4  15
ATOM     15  O   LIG A   1      -9.688  -2.596 124.405  0.00  0.00    -0.494 OA
ATOM     16  C   LIG A   1      -8.941  -3.000 123.264  0.00  0.00    +0.277 C 
ENDBRANCH   4  15
BRANCH   1  17
ATOM     17  O   LIG A   1      -7.343   0.976 128.070  0.00  0.00    -0.481 OA
BRANCH  17  18
ATOM     18  C   LIG A   1      -8.237   1.962 128.586  0.00  0.00    +0.257 C 
BRANCH  18  19
ATOM     19  C   LIG A   1      -8.464   1.688 130.036  0.00  0.00    +0.012 C 
ATOM     20  C   LIG A   1      -9.359   2.289 130.839  0.00  0.00    -0.076 C 
ATOM     21  C   LIG A   1     -10.251   3.424 130.417  0.00  0.00    +0.038 C 
ATOM     22  C   LIG A   1      -9.496   1.867 132.272  0.00  0.00    +0.038 C 
ENDBRANCH  18  19
ENDBRANCH  17  18
ENDBRANCH   1  17
TORSDOF 4
ENDMDL
MODEL 9
REMARK VINA RESULT:      -6.3      2.459      5.917
REMARK  Name = NuBBE_1621
REMARK  7 active torsions:
REMARK  status: ('A' for Active; 'I' for Inactive)
REMARK    1  A    between atoms: O_1  and  C_2
REMARK    2  A    between atoms: O_1  and  C_7
REMARK    3  A    between atoms: C_2  and  C_3
REMARK    4  A    between atoms: C_4  and  C_5
REMARK    5  A    between atoms: C_4  and  C_6
REMARK    6  A    between atoms: C_10  and  O_16
REMARK    7  A    between atoms: O_16  and  C_17
REMARK                            x       y       z     vdW  Elec       q    Type
REMARK                         _______ _______ _______ _____ _____    ______ ____
ROOT
ATOM      1  C   LIG A   1      -9.420  -0.058 125.540  0.00  0.00    +0.207 A 
ATOM      2  C   LIG A   1      -8.783   0.386 126.705  0.00  0.00    +0.188 A 
ATOM      3  C   LIG A   1      -7.878  -0.403 127.423  0.00  0.00    +0.064 A 
ATOM      4  C   LIG A   1      -7.584  -1.721 126.977  0.00  0.00    +0.142 A 
ATOM      5  C   LIG A   1      -8.232  -2.215 125.815  0.00  0.00    +0.066 A 
ATOM      6  C   LIG A   1      -9.090  -1.355 125.129  0.00  0.00    +0.183 A 
ATOM      7  O   LIG A   1      -9.576  -1.974 124.014  0.00  0.00    -0.459 OA
ATOM      8  C   LIG A   1      -9.118  -3.239 124.007  0.00  0.00    +0.196 A 
ATOM      9  C   LIG A   1      -8.301  -3.446 125.089  0.00  0.00    +0.053 A 
ATOM     10  C   LIG A   1      -7.239   0.182 128.590  0.00  0.00    +0.022 A 
ATOM     11  C   LIG A   1      -7.551   1.426 129.000  0.00  0.00    +0.093 A 
ATOM     12  C   LIG A   1      -8.550   2.257 128.303  0.00  0.00    +0.337 A 
ATOM     13  O   LIG A   1      -8.846   3.372 128.725  0.00  0.00    -0.245 OA
ATOM     14  O   LIG A   1      -9.116   1.693 127.173  0.00  0.00    -0.418 OA
ENDROOT
BRANCH   4  15
ATOM     15  O   LIG A   1      -6.724  -2.458 127.783  0.00  0.00    -0.494 OA
ATOM     16  C   LIG A   1      -5.354  -2.425 127.402  0.00  0.00    +0.277 C 
ENDBRANCH   4  15
BRANCH   1  17
ATOM     17  O   LIG A   1     -10.308   0.793 124.908  0.00  0.00    -0.481 OA
BRANCH  17  18
ATOM     18  C   LIG A   1      -9.936   1.147 123.575  0.00  0.00    +0.257 C 
BRANCH  18  19
ATOM     19  C   LIG A   1      -8.982   2.293 123.635  0.00  0.00    +0.012 C 
ATOM     20  C   LIG A   1      -7.648   2.240 123.472  0.00  0.00    -0.076 C 
ATOM     21  C   LIG A   1      -6.867   0.971 123.273  0.00  0.00    +0.038 C 
ATOM     22  C   LIG A   1      -6.828   3.495 123.518  0.00  0.00    +0.038 C 
ENDBRANCH  18  19
ENDBRANCH  17  18
ENDBRANCH   1  17
TORSDOF 4
ENDMDL
