MODEL 1
REMARK VINA RESULT:      -8.7      0.000      0.000
REMARK  Name = NuBBE_1420
REMARK  2 active torsions:
REMARK  status: ('A' for Active; 'I' for Inactive)
REMARK    1  A    between atoms: C_5  and  C_9
REMARK    2  A    between atoms: C_20  and  C_22
REMARK                            x       y       z     vdW  Elec       q    Type
REMARK                         _______ _______ _______ _____ _____    ______ ____
ROOT
ATOM      1  C   LIG A   1      -8.808   6.417 130.985  0.00  0.00    +0.056 C 
ATOM      2  C   LIG A   1     -10.158   6.194 131.611  0.00  0.00    +0.056 C 
ATOM      3  C   LIG A   1     -11.025   5.702 130.462  0.00  0.00    +0.154 C 
ATOM      4  O   LIG A   1     -10.125   5.070 129.530  0.00  0.00    -0.371 OA
ATOM      5  C   LIG A   1      -8.767   5.323 129.929  0.00  0.00    +0.167 C 
ATOM      6  C   LIG A   1      -9.849   5.125 132.649  0.00  0.00    +0.167 C 
ATOM      7  O   LIG A   1      -8.488   5.324 133.060  0.00  0.00    -0.371 OA
ATOM      8  C   LIG A   1      -7.859   6.265 132.163  0.00  0.00    +0.154 C 
ENDROOT
BRANCH   3   9
ATOM      9  C   LIG A   1     -11.803   6.826 129.792  0.00  0.00    -0.015 A 
ATOM     10  C   LIG A   1     -12.084   7.999 130.519  0.00  0.00    +0.055 A 
ATOM     11  C   LIG A   1     -12.783   9.009 129.893  0.00  0.00    +0.167 A 
ATOM     12  C   LIG A   1     -13.221   8.894 128.596  0.00  0.00    +0.166 A 
ATOM     13  C   LIG A   1     -12.987   7.759 127.854  0.00  0.00    +0.050 A 
ATOM     14  C   LIG A   1     -12.274   6.719 128.462  0.00  0.00    +0.010 A 
ATOM     15  O   LIG A   1     -13.887  10.001 128.173  0.00  0.00    -0.453 OA
ATOM     16  C   LIG A   1     -13.812  10.830 129.350  0.00  0.00    +0.466 C 
ATOM     17  O   LIG A   1     -13.118  10.204 130.450  0.00  0.00    -0.453 OA
ENDBRANCH   3   9
BRANCH   8  18
ATOM     18  C   LIG A   1      -6.439   5.879 131.810  0.00  0.00    -0.015 A 
ATOM     19  C   LIG A   1      -5.628   6.785 131.102  0.00  0.00    +0.055 A 
ATOM     20  C   LIG A   1      -4.332   6.413 130.807  0.00  0.00    +0.167 A 
ATOM     21  C   LIG A   1      -3.820   5.198 131.191  0.00  0.00    +0.166 A 
ATOM     22  C   LIG A   1      -4.575   4.285 131.892  0.00  0.00    +0.050 A 
ATOM     23  C   LIG A   1      -5.893   4.635 132.205  0.00  0.00    +0.010 A 
ATOM     24  O   LIG A   1      -2.527   5.033 130.805  0.00  0.00    -0.453 OA
ATOM     25  C   LIG A   1      -2.282   6.288 130.137  0.00  0.00    +0.466 C 
ATOM     26  O   LIG A   1      -3.425   7.169 130.131  0.00  0.00    -0.453 OA
ENDBRANCH   8  18
TORSDOF 2
ENDMDL
MODEL 2
REMARK VINA RESULT:      -8.2      6.235      9.204
REMARK  Name = NuBBE_1420
REMARK  2 active torsions:
REMARK  status: ('A' for Active; 'I' for Inactive)
REMARK    1  A    between atoms: C_5  and  C_9
REMARK    2  A    between atoms: C_20  and  C_22
REMARK                            x       y       z     vdW  Elec       q    Type
REMARK                         _______ _______ _______ _____ _____    ______ ____
ROOT
ATOM      1  C   LIG A   1      -8.471   0.235 130.567  0.00  0.00    +0.056 C 
ATOM      2  C   LIG A   1      -7.897  -1.132 130.815  0.00  0.00    +0.056 C 
ATOM      3  C   LIG A   1      -6.848  -1.299 129.726  0.00  0.00    +0.154 C 
ATOM      4  O   LIG A   1      -6.413   0.033 129.390  0.00  0.00    -0.371 OA
ATOM      5  C   LIG A   1      -7.261   0.994 130.042  0.00  0.00    +0.167 C 
ATOM      6  C   LIG A   1      -7.315  -0.980 132.211  0.00  0.00    +0.167 C 
ATOM      7  O   LIG A   1      -8.119  -0.008 132.896  0.00  0.00    -0.371 OA
ATOM      8  C   LIG A   1      -8.986   0.640 131.939  0.00  0.00    +0.154 C 
ENDROOT
BRANCH   3   9
ATOM      9  C   LIG A   1      -7.385  -2.023 128.500  0.00  0.00    -0.015 A 
ATOM     10  C   LIG A   1      -6.958  -1.621 127.220  0.00  0.00    +0.055 A 
ATOM     11  C   LIG A   1      -7.449  -2.294 126.120  0.00  0.00    +0.167 A 
ATOM     12  C   LIG A   1      -8.347  -3.327 126.242  0.00  0.00    +0.166 A 
ATOM     13  C   LIG A   1      -8.806  -3.741 127.472  0.00  0.00    +0.050 A 
ATOM     14  C   LIG A   1      -8.321  -3.080 128.606  0.00  0.00    +0.010 A 
ATOM     15  O   LIG A   1      -8.701  -3.851 125.040  0.00  0.00    -0.453 OA
ATOM     16  C   LIG A   1      -7.917  -3.036 124.146  0.00  0.00    +0.466 C 
ATOM     17  O   LIG A   1      -7.124  -2.038 124.825  0.00  0.00    -0.453 OA
ENDBRANCH   3   9
BRANCH   8  18
ATOM     18  C   LIG A   1      -9.112   2.129 132.176  0.00  0.00    -0.015 A 
ATOM     19  C   LIG A   1      -9.811   2.924 131.249  0.00  0.00    +0.055 A 
ATOM     20  C   LIG A   1      -9.922   4.277 131.498  0.00  0.00    +0.167 A 
ATOM     21  C   LIG A   1      -9.380   4.856 132.619  0.00  0.00    +0.166 A 
ATOM     22  C   LIG A   1      -8.696   4.116 133.556  0.00  0.00    +0.050 A 
ATOM     23  C   LIG A   1      -8.566   2.741 133.330  0.00  0.00    +0.010 A 
ATOM     24  O   LIG A   1      -9.607   6.196 132.675  0.00  0.00    -0.453 OA
ATOM     25  C   LIG A   1     -10.359   6.392 131.459  0.00  0.00    +0.466 C 
ATOM     26  O   LIG A   1     -10.560   5.179 130.704  0.00  0.00    -0.453 OA
ENDBRANCH   8  18
TORSDOF 2
ENDMDL
MODEL 3
REMARK VINA RESULT:      -8.0      8.363      9.648
REMARK  Name = NuBBE_1420
REMARK  2 active torsions:
REMARK  status: ('A' for Active; 'I' for Inactive)
REMARK    1  A    between atoms: C_5  and  C_9
REMARK    2  A    between atoms: C_20  and  C_22
REMARK                            x       y       z     vdW  Elec       q    Type
REMARK                         _______ _______ _______ _____ _____    ______ ____
ROOT
ATOM      1  C   LIG A   1      -7.463  -1.798 127.704  0.00  0.00    +0.056 C 
ATOM      2  C   LIG A   1      -8.554  -2.126 126.722  0.00  0.00    +0.056 C 
ATOM      3  C   LIG A   1      -7.911  -1.901 125.362  0.00  0.00    +0.154 C 
ATOM      4  O   LIG A   1      -6.499  -2.117 125.552  0.00  0.00    -0.371 OA
ATOM      5  C   LIG A   1      -6.219  -2.253 126.956  0.00  0.00    +0.167 C 
ATOM      6  C   LIG A   1      -8.830  -3.588 127.036  0.00  0.00    +0.167 C 
ATOM      7  O   LIG A   1      -8.541  -3.778 128.429  0.00  0.00    -0.371 OA
ATOM      8  C   LIG A   1      -7.857  -2.608 128.929  0.00  0.00    +0.154 C 
ENDROOT
BRANCH   3   9
ATOM      9  C   LIG A   1      -8.179  -0.508 124.810  0.00  0.00    -0.015 A 
ATOM     10  C   LIG A   1      -7.249   0.075 123.927  0.00  0.00    +0.055 A 
ATOM     11  C   LIG A   1      -7.512   1.334 123.430  0.00  0.00    +0.167 A 
ATOM     12  C   LIG A   1      -8.641   2.033 123.784  0.00  0.00    +0.166 A 
ATOM     13  C   LIG A   1      -9.566   1.512 124.659  0.00  0.00    +0.050 A 
ATOM     14  C   LIG A   1      -9.329   0.233 125.175  0.00  0.00    +0.010 A 
ATOM     15  O   LIG A   1      -8.708   3.250 123.183  0.00  0.00    -0.453 OA
ATOM     16  C   LIG A   1      -7.495   3.235 122.402  0.00  0.00    +0.466 C 
ATOM     17  O   LIG A   1      -6.727   2.023 122.560  0.00  0.00    -0.453 OA
ENDBRANCH   3   9
BRANCH   8  18
ATOM     18  C   LIG A   1      -6.727  -2.950 129.876  0.00  0.00    -0.015 A 
ATOM     19  C   LIG A   1      -6.095  -1.924 130.603  0.00  0.00    +0.055 A 
ATOM     20  C   LIG A   1      -5.077  -2.267 131.470  0.00  0.00    +0.167 A 
ATOM     21  C   LIG A   1      -4.678  -3.569 131.643  0.00  0.00    +0.166 A 
ATOM     22  C   LIG A   1      -5.274  -4.604 130.959  0.00  0.00    +0.050 A 
ATOM     23  C   LIG A   1      -6.308  -4.287 130.072  0.00  0.00    +0.010 A 
ATOM     24  O   LIG A   1      -3.666  -3.688 132.544  0.00  0.00    -0.453 OA
ATOM     25  C   LIG A   1      -3.477  -2.309 132.921  0.00  0.00    +0.466 C 
ATOM     26  O   LIG A   1      -4.366  -1.399 132.241  0.00  0.00    -0.453 OA
ENDBRANCH   8  18
TORSDOF 2
ENDMDL
MODEL 4
REMARK VINA RESULT:      -7.9      6.419      9.586
REMARK  Name = NuBBE_1420
REMARK  2 active torsions:
REMARK  status: ('A' for Active; 'I' for Inactive)
REMARK    1  A    between atoms: C_5  and  C_9
REMARK    2  A    between atoms: C_20  and  C_22
REMARK                            x       y       z     vdW  Elec       q    Type
REMARK                         _______ _______ _______ _____ _____    ______ ____
ROOT
ATOM      1  C   LIG A   1      -6.070   2.995 126.128  0.00  0.00    +0.056 C 
ATOM      2  C   LIG A   1      -5.261   4.168 125.649  0.00  0.00    +0.056 C 
ATOM      3  C   LIG A   1      -3.879   3.932 126.236  0.00  0.00    +0.154 C 
ATOM      4  O   LIG A   1      -3.758   2.506 126.401  0.00  0.00    -0.371 OA
ATOM      5  C   LIG A   1      -5.031   1.885 126.152  0.00  0.00    +0.167 C 
ATOM      6  C   LIG A   1      -5.325   3.998 124.139  0.00  0.00    +0.167 C 
ATOM      7  O   LIG A   1      -6.575   3.357 123.843  0.00  0.00    -0.371 OA
ATOM      8  C   LIG A   1      -7.162   2.884 125.075  0.00  0.00    +0.154 C 
ENDROOT
BRANCH   3   9
ATOM      9  C   LIG A   1      -3.673   4.653 127.561  0.00  0.00    -0.015 A 
ATOM     10  C   LIG A   1      -3.982   6.024 127.656  0.00  0.00    +0.055 A 
ATOM     11  C   LIG A   1      -3.796   6.659 128.866  0.00  0.00    +0.167 A 
ATOM     12  C   LIG A   1      -3.308   5.997 129.966  0.00  0.00    +0.166 A 
ATOM     13  C   LIG A   1      -2.973   4.663 129.914  0.00  0.00    +0.050 A 
ATOM     14  C   LIG A   1      -3.157   3.990 128.701  0.00  0.00    +0.010 A 
ATOM     15  O   LIG A   1      -3.203   6.805 131.054  0.00  0.00    -0.453 OA
ATOM     16  C   LIG A   1      -3.689   8.051 130.515  0.00  0.00    +0.466 C 
ATOM     17  O   LIG A   1      -4.062   7.967 129.122  0.00  0.00    -0.453 OA
ENDBRANCH   3   9
BRANCH   8  18
ATOM     18  C   LIG A   1      -7.797   1.518 124.934  0.00  0.00    -0.015 A 
ATOM     19  C   LIG A   1      -7.485   0.717 123.821  0.00  0.00    +0.055 A 
ATOM     20  C   LIG A   1      -8.067  -0.531 123.726  0.00  0.00    +0.167 A 
ATOM     21  C   LIG A   1      -8.927  -1.006 124.686  0.00  0.00    +0.166 A 
ATOM     22  C   LIG A   1      -9.253  -0.260 125.796  0.00  0.00    +0.050 A 
ATOM     23  C   LIG A   1      -8.679   1.010 125.918  0.00  0.00    +0.010 A 
ATOM     24  O   LIG A   1      -9.383  -2.255 124.404  0.00  0.00    -0.453 OA
ATOM     25  C   LIG A   1      -8.707  -2.514 123.156  0.00  0.00    +0.466 C 
ATOM     26  O   LIG A   1      -7.872  -1.422 122.717  0.00  0.00    -0.453 OA
ENDBRANCH   8  18
TORSDOF 2
ENDMDL
MODEL 5
REMARK VINA RESULT:      -7.8      6.318      8.626
REMARK  Name = NuBBE_1420
REMARK  2 active torsions:
REMARK  status: ('A' for Active; 'I' for Inactive)
REMARK    1  A    between atoms: C_5  and  C_9
REMARK    2  A    between atoms: C_20  and  C_22
REMARK                            x       y       z     vdW  Elec       q    Type
REMARK                         _______ _______ _______ _____ _____    ______ ____
ROOT
ATOM      1  C   LIG A   1      -6.095   2.499 125.840  0.00  0.00    +0.056 C 
ATOM      2  C   LIG A   1      -7.162   2.470 124.781  0.00  0.00    +0.056 C 
ATOM      3  C   LIG A   1      -8.401   1.979 125.513  0.00  0.00    +0.154 C 
ATOM      4  O   LIG A   1      -8.226   2.368 126.890  0.00  0.00    -0.371 OA
ATOM      5  C   LIG A   1      -6.892   2.871 127.080  0.00  0.00    +0.167 C 
ATOM      6  C   LIG A   1      -7.232   3.932 124.366  0.00  0.00    +0.167 C 
ATOM      7  O   LIG A   1      -5.922   4.485 124.563  0.00  0.00    -0.371 OA
ATOM      8  C   LIG A   1      -5.124   3.545 125.313  0.00  0.00    +0.154 C 
ENDROOT
BRANCH   3   9
ATOM      9  C   LIG A   1      -8.595   0.474 125.393  0.00  0.00    -0.015 A 
ATOM     10  C   LIG A   1      -9.059  -0.066 124.178  0.00  0.00    +0.055 A 
ATOM     11  C   LIG A   1      -9.222  -1.432 124.084  0.00  0.00    +0.167 A 
ATOM     12  C   LIG A   1      -8.961  -2.269 125.142  0.00  0.00    +0.166 A 
ATOM     13  C   LIG A   1      -8.525  -1.784 126.354  0.00  0.00    +0.050 A 
ATOM     14  C   LIG A   1      -8.344  -0.401 126.476  0.00  0.00    +0.010 A 
ATOM     15  O   LIG A   1      -9.185  -3.575 124.839  0.00  0.00    -0.453 OA
ATOM     16  C   LIG A   1      -9.611  -3.466 123.466  0.00  0.00    +0.466 C 
ATOM     17  O   LIG A   1      -9.644  -2.106 122.981  0.00  0.00    -0.453 OA
ENDBRANCH   3   9
BRANCH   8  18
ATOM     18  C   LIG A   1      -4.257   4.214 126.358  0.00  0.00    -0.015 A 
ATOM     19  C   LIG A   1      -4.665   5.438 126.919  0.00  0.00    +0.055 A 
ATOM     20  C   LIG A   1      -3.862   6.018 127.881  0.00  0.00    +0.167 A 
ATOM     21  C   LIG A   1      -2.694   5.432 128.302  0.00  0.00    +0.166 A 
ATOM     22  C   LIG A   1      -2.262   4.231 127.787  0.00  0.00    +0.050 A 
ATOM     23  C   LIG A   1      -3.055   3.619 126.810  0.00  0.00    +0.010 A 
ATOM     24  O   LIG A   1      -2.059   6.163 129.256  0.00  0.00    -0.453 OA
ATOM     25  C   LIG A   1      -2.965   7.278 129.389  0.00  0.00    +0.466 C 
ATOM     26  O   LIG A   1      -4.111   7.195 128.516  0.00  0.00    -0.453 OA
ENDBRANCH   8  18
TORSDOF 2
ENDMDL
MODEL 6
REMARK VINA RESULT:      -7.7      8.656     11.929
REMARK  Name = NuBBE_1420
REMARK  2 active torsions:
REMARK  status: ('A' for Active; 'I' for Inactive)
REMARK    1  A    between atoms: C_5  and  C_9
REMARK    2  A    between atoms: C_20  and  C_22
REMARK                            x       y       z     vdW  Elec       q    Type
REMARK                         _______ _______ _______ _____ _____    ______ ____
ROOT
ATOM      1  C   LIG A   1      -7.101  -2.478 127.948  0.00  0.00    +0.056 C 
ATOM      2  C   LIG A   1      -7.635  -3.581 128.820  0.00  0.00    +0.056 C 
ATOM      3  C   LIG A   1      -7.647  -2.979 130.217  0.00  0.00    +0.154 C 
ATOM      4  O   LIG A   1      -7.786  -1.556 130.033  0.00  0.00    -0.371 OA
ATOM      5  C   LIG A   1      -7.652  -1.238 128.636  0.00  0.00    +0.167 C 
ATOM      6  C   LIG A   1      -9.021  -3.802 128.234  0.00  0.00    +0.167 C 
ATOM      7  O   LIG A   1      -8.942  -3.473 126.839  0.00  0.00    -0.371 OA
ATOM      8  C   LIG A   1      -7.681  -2.816 126.583  0.00  0.00    +0.154 C 
ENDROOT
BRANCH   3   9
ATOM      9  C   LIG A   1      -6.388  -3.306 131.008  0.00  0.00    -0.015 A 
ATOM     10  C   LIG A   1      -5.771  -2.296 131.771  0.00  0.00    +0.055 A 
ATOM     11  C   LIG A   1      -4.636  -2.612 132.487  0.00  0.00    +0.167 A 
ATOM     12  C   LIG A   1      -4.090  -3.872 132.463  0.00  0.00    +0.166 A 
ATOM     13  C   LIG A   1      -4.647  -4.885 131.716  0.00  0.00    +0.050 A 
ATOM     14  C   LIG A   1      -5.804  -4.595 130.983  0.00  0.00    +0.010 A 
ATOM     15  O   LIG A   1      -2.977  -3.971 133.237  0.00  0.00    -0.453 OA
ATOM     16  C   LIG A   1      -2.889  -2.629 133.758  0.00  0.00    +0.466 C 
ATOM     17  O   LIG A   1      -3.937  -1.758 133.281  0.00  0.00    -0.453 OA
ENDBRANCH   3   9
BRANCH   8  18
ATOM     18  C   LIG A   1      -7.811  -1.652 125.624  0.00  0.00    -0.015 A 
ATOM     19  C   LIG A   1      -9.062  -1.033 125.447  0.00  0.00    +0.055 A 
ATOM     20  C   LIG A   1      -9.147   0.035 124.577  0.00  0.00    +0.167 A 
ATOM     21  C   LIG A   1      -8.051   0.506 123.896  0.00  0.00    +0.166 A 
ATOM     22  C   LIG A   1      -6.808  -0.063 124.046  0.00  0.00    +0.050 A 
ATOM     23  C   LIG A   1      -6.691  -1.149 124.920  0.00  0.00    +0.010 A 
ATOM     24  O   LIG A   1      -8.351   1.565 123.097  0.00  0.00    -0.453 OA
ATOM     25  C   LIG A   1      -9.763   1.708 123.357  0.00  0.00    +0.466 C 
ATOM     26  O   LIG A   1     -10.277   0.738 124.293  0.00  0.00    -0.453 OA
ENDBRANCH   8  18
TORSDOF 2
ENDMDL
MODEL 7
REMARK VINA RESULT:      -7.5      9.443     12.218
REMARK  Name = NuBBE_1420
REMARK  2 active torsions:
REMARK  status: ('A' for Active; 'I' for Inactive)
REMARK    1  A    between atoms: C_5  and  C_9
REMARK    2  A    between atoms: C_20  and  C_22
REMARK                            x       y       z     vdW  Elec       q    Type
REMARK                         _______ _______ _______ _____ _____    ______ ____
ROOT
ATOM      1  C   LIG A   1      -7.123  -3.008 130.687  0.00  0.00    +0.056 C 
ATOM      2  C   LIG A   1      -6.379  -2.315 131.795  0.00  0.00    +0.056 C 
ATOM      3  C   LIG A   1      -5.626  -3.435 132.495  0.00  0.00    +0.154 C 
ATOM      4  O   LIG A   1      -5.417  -4.454 131.498  0.00  0.00    -0.371 OA
ATOM      5  C   LIG A   1      -6.161  -4.125 130.312  0.00  0.00    +0.167 C 
ATOM      6  C   LIG A   1      -5.482  -1.360 131.022  0.00  0.00    +0.167 C 
ATOM      7  O   LIG A   1      -6.177  -1.021 129.812  0.00  0.00    -0.371 OA
ATOM      8  C   LIG A   1      -7.314  -1.899 129.663  0.00  0.00    +0.154 C 
ENDROOT
BRANCH   3   9
ATOM      9  C   LIG A   1      -6.383  -3.992 133.693  0.00  0.00    -0.015 A 
ATOM     10  C   LIG A   1      -7.261  -3.152 134.405  0.00  0.00    +0.055 A 
ATOM     11  C   LIG A   1      -7.943  -3.676 135.483  0.00  0.00    +0.167 A 
ATOM     12  C   LIG A   1      -7.778  -4.979 135.883  0.00  0.00    +0.166 A 
ATOM     13  C   LIG A   1      -6.916  -5.830 135.230  0.00  0.00    +0.050 A 
ATOM     14  C   LIG A   1      -6.214  -5.328 134.128  0.00  0.00    +0.010 A 
ATOM     15  O   LIG A   1      -8.543  -5.292 136.962  0.00  0.00    -0.453 OA
ATOM     16  C   LIG A   1      -9.216  -4.038 137.191  0.00  0.00    +0.466 C 
ATOM     17  O   LIG A   1      -8.834  -3.003 136.259  0.00  0.00    -0.453 OA
ENDBRANCH   3   9
BRANCH   8  18
ATOM     18  C   LIG A   1      -7.515  -2.359 128.235  0.00  0.00    -0.015 A 
ATOM     19  C   LIG A   1      -6.587  -1.983 127.246  0.00  0.00    +0.055 A 
ATOM     20  C   LIG A   1      -6.789  -2.429 125.955  0.00  0.00    +0.167 A 
ATOM     21  C   LIG A   1      -7.855  -3.226 125.620  0.00  0.00    +0.166 A 
ATOM     22  C   LIG A   1      -8.781  -3.625 126.556  0.00  0.00    +0.050 A 
ATOM     23  C   LIG A   1      -8.604  -3.188 127.873  0.00  0.00    +0.010 A 
ATOM     24  O   LIG A   1      -7.864  -3.556 124.301  0.00  0.00    -0.453 OA
ATOM     25  C   LIG A   1      -6.676  -2.876 123.845  0.00  0.00    +0.466 C 
ATOM     26  O   LIG A   1      -5.989  -2.154 124.888  0.00  0.00    -0.453 OA
ENDBRANCH   8  18
TORSDOF 2
ENDMDL
MODEL 8
REMARK VINA RESULT:      -7.5      3.834      5.020
REMARK  Name = NuBBE_1420
REMARK  2 active torsions:
REMARK  status: ('A' for Active; 'I' for Inactive)
REMARK    1  A    between atoms: C_5  and  C_9
REMARK    2  A    between atoms: C_20  and  C_22
REMARK                            x       y       z     vdW  Elec       q    Type
REMARK                         _______ _______ _______ _____ _____    ______ ____
ROOT
ATOM      1  C   LIG A   1      -8.386   3.554 130.938  0.00  0.00    +0.056 C 
ATOM      2  C   LIG A   1      -7.874   4.968 130.967  0.00  0.00    +0.056 C 
ATOM      3  C   LIG A   1      -8.758   5.663 131.990  0.00  0.00    +0.154 C 
ATOM      4  O   LIG A   1      -9.199   4.634 132.896  0.00  0.00    -0.371 OA
ATOM      5  C   LIG A   1      -8.818   3.346 132.381  0.00  0.00    +0.167 C 
ATOM      6  C   LIG A   1      -6.438   4.772 131.428  0.00  0.00    +0.167 C 
ATOM      7  O   LIG A   1      -6.019   3.483 130.955  0.00  0.00    -0.371 OA
ATOM      8  C   LIG A   1      -7.173   2.765 130.468  0.00  0.00    +0.154 C 
ENDROOT
BRANCH   3   9
ATOM      9  C   LIG A   1      -9.944   6.374 131.353  0.00  0.00    -0.015 A 
ATOM     10  C   LIG A   1      -9.758   7.091 130.156  0.00  0.00    +0.055 A 
ATOM     11  C   LIG A   1     -10.845   7.722 129.589  0.00  0.00    +0.167 A 
ATOM     12  C   LIG A   1     -12.091   7.681 130.167  0.00  0.00    +0.166 A 
ATOM     13  C   LIG A   1     -12.316   7.010 131.348  0.00  0.00    +0.050 A 
ATOM     14  C   LIG A   1     -11.232   6.354 131.943  0.00  0.00    +0.010 A 
ATOM     15  O   LIG A   1     -13.020   8.365 129.449  0.00  0.00    -0.453 OA
ATOM     16  C   LIG A   1     -12.218   8.835 128.346  0.00  0.00    +0.466 C 
ATOM     17  O   LIG A   1     -10.833   8.436 128.433  0.00  0.00    -0.453 OA
ENDBRANCH   3   9
BRANCH   8  18
ATOM     18  C   LIG A   1      -7.159   1.301 130.853  0.00  0.00    -0.015 A 
ATOM     19  C   LIG A   1      -6.213   0.837 131.784  0.00  0.00    +0.055 A 
ATOM     20  C   LIG A   1      -6.232  -0.500 132.128  0.00  0.00    +0.167 A 
ATOM     21  C   LIG A   1      -7.147  -1.373 131.594  0.00  0.00    +0.166 A 
ATOM     22  C   LIG A   1      -8.096  -0.961 130.686  0.00  0.00    +0.050 A 
ATOM     23  C   LIG A   1      -8.100   0.389 130.318  0.00  0.00    +0.010 A 
ATOM     24  O   LIG A   1      -6.997  -2.639 132.067  0.00  0.00    -0.453 OA
ATOM     25  C   LIG A   1      -5.882  -2.460 132.966  0.00  0.00    +0.466 C 
ATOM     26  O   LIG A   1      -5.388  -1.105 133.007  0.00  0.00    -0.453 OA
ENDBRANCH   8  18
TORSDOF 2
ENDMDL
MODEL 9
REMARK VINA RESULT:      -7.5      3.275      8.622
REMARK  Name = NuBBE_1420
REMARK  2 active torsions:
REMARK  status: ('A' for Active; 'I' for Inactive)
REMARK    1  A    between atoms: C_5  and  C_9
REMARK    2  A    between atoms: C_20  and  C_22
REMARK                            x       y       z     vdW  Elec       q    Type
REMARK                         _______ _______ _______ _____ _____    ______ ____
ROOT
ATOM      1  C   LIG A   1      -8.236   4.856 131.718  0.00  0.00    +0.056 C 
ATOM      2  C   LIG A   1      -6.739   4.708 131.716  0.00  0.00    +0.056 C 
ATOM      3  C   LIG A   1      -6.505   3.294 131.209  0.00  0.00    +0.154 C 
ATOM      4  O   LIG A   1      -7.644   2.975 130.386  0.00  0.00    -0.371 OA
ATOM      5  C   LIG A   1      -8.638   4.005 130.523  0.00  0.00    +0.167 C 
ATOM      6  C   LIG A   1      -6.319   5.790 130.733  0.00  0.00    +0.167 C 
ATOM      7  O   LIG A   1      -7.300   6.835 130.817  0.00  0.00    -0.371 OA
ATOM      8  C   LIG A   1      -8.428   6.358 131.583  0.00  0.00    +0.154 C 
ENDROOT
BRANCH   3   9
ATOM      9  C   LIG A   1      -6.349   2.285 132.338  0.00  0.00    -0.015 A 
ATOM     10  C   LIG A   1      -6.687   0.937 132.109  0.00  0.00    +0.055 A 
ATOM     11  C   LIG A   1      -6.532   0.035 133.141  0.00  0.00    +0.167 A 
ATOM     12  C   LIG A   1      -6.075   0.419 134.379  0.00  0.00    +0.166 A 
ATOM     13  C   LIG A   1      -5.753   1.729 134.653  0.00  0.00    +0.050 A 
ATOM     14  C   LIG A   1      -5.894   2.665 133.623  0.00  0.00    +0.010 A 
ATOM     15  O   LIG A   1      -5.995  -0.622 135.249  0.00  0.00    -0.453 OA
ATOM     16  C   LIG A   1      -6.447  -1.708 134.415  0.00  0.00    +0.466 C 
ATOM     17  O   LIG A   1      -6.796  -1.297 133.076  0.00  0.00    -0.453 OA
ENDBRANCH   3   9
BRANCH   8  18
ATOM     18  C   LIG A   1      -9.756   6.796 131.004  0.00  0.00    -0.015 A 
ATOM     19  C   LIG A   1      -9.787   7.494 129.783  0.00  0.00    +0.055 A 
ATOM     20  C   LIG A   1     -11.013   7.868 129.272  0.00  0.00    +0.167 A 
ATOM     21  C   LIG A   1     -12.189   7.571 129.915  0.00  0.00    +0.166 A 
ATOM     22  C   LIG A   1     -12.207   6.883 131.107  0.00  0.00    +0.050 A 
ATOM     23  C   LIG A   1     -10.978   6.491 131.650  0.00  0.00    +0.010 A 
ATOM     24  O   LIG A   1     -13.280   8.024 129.242  0.00  0.00    -0.453 OA
ATOM     25  C   LIG A   1     -12.654   8.639 128.097  0.00  0.00    +0.466 C 
ATOM     26  O   LIG A   1     -11.214   8.547 128.110  0.00  0.00    -0.453 OA
ENDBRANCH   8  18
TORSDOF 2
ENDMDL
