MODEL 1
REMARK VINA RESULT:      -7.9      0.000      0.000
REMARK  Name = NuBBE_1323
REMARK  6 active torsions:
REMARK  status: ('A' for Active; 'I' for Inactive)
REMARK    1  A    between atoms: C_2  and  C_3
REMARK    2  A    between atoms: C_2  and  C_14
REMARK    3  A    between atoms: C_3  and  C_4
REMARK    4  A    between atoms: C_4  and  C_5
REMARK    5  A    between atoms: C_15  and  O_23
REMARK    6  A    between atoms: O_23  and  C_24
REMARK                            x       y       z     vdW  Elec       q    Type
REMARK                         _______ _______ _______ _____ _____    ______ ____
ROOT
ATOM      1  O   LIG A   1      -8.993   3.045 125.294  0.00  0.00    -0.292 OA
ATOM      2  C   LIG A   1      -8.691   2.276 124.386  0.00  0.00    +0.167 C 
ENDROOT
BRANCH   2   3
ATOM      3  C   LIG A   1      -8.107   2.834 123.118  0.00  0.00    +0.060 A 
ATOM      4  C   LIG A   1      -6.754   3.241 123.019  0.00  0.00    +0.141 A 
ATOM      5  C   LIG A   1      -6.307   3.814 121.801  0.00  0.00    +0.062 A 
ATOM      6  C   LIG A   1      -7.226   3.953 120.762  0.00  0.00    +0.138 A 
ATOM      7  C   LIG A   1      -8.554   3.543 120.820  0.00  0.00    +0.048 A 
ATOM      8  C   LIG A   1      -8.980   2.970 122.023  0.00  0.00    +0.019 A 
ATOM      9  O   LIG A   1      -6.645   4.533 119.677  0.00  0.00    -0.463 OA
ATOM     10  C   LIG A   1      -5.348   4.762 119.994  0.00  0.00    +0.196 A 
ATOM     11  C   LIG A   1      -5.084   4.324 121.270  0.00  0.00    +0.053 A 
BRANCH   4  12
ATOM     12  O   LIG A   1      -5.930   2.937 124.088  0.00  0.00    -0.494 OA
ATOM     13  C   LIG A   1      -5.470   4.033 124.866  0.00  0.00    +0.277 C 
ENDBRANCH   4  12
ENDBRANCH   2   3
BRANCH   2  14
ATOM     14  C   LIG A   1      -8.839   0.762 124.510  0.00  0.00    +0.084 C 
BRANCH  14  15
ATOM     15  C   LIG A   1      -8.443   0.035 123.229  0.00  0.00    +0.043 C 
BRANCH  15  16
ATOM     16  C   LIG A   1      -7.717  -1.262 123.516  0.00  0.00    -0.043 A 
ATOM     17  C   LIG A   1      -8.416  -2.363 124.062  0.00  0.00    +0.007 A 
ATOM     18  C   LIG A   1      -7.764  -3.572 124.334  0.00  0.00    +0.050 A 
ATOM     19  C   LIG A   1      -6.421  -3.656 124.040  0.00  0.00    +0.166 A 
ATOM     20  O   LIG A   1      -5.632  -4.748 124.230  0.00  0.00    -0.453 OA
ATOM     21  C   LIG A   1      -4.374  -4.264 123.715  0.00  0.00    +0.466 C 
ATOM     22  O   LIG A   1      -4.420  -2.886 123.290  0.00  0.00    -0.453 OA
ATOM     23  C   LIG A   1      -5.731  -2.595 123.503  0.00  0.00    +0.167 A 
ATOM     24  C   LIG A   1      -6.347  -1.390 123.230  0.00  0.00    +0.053 A 
ENDBRANCH  15  16
ENDBRANCH  14  15
ENDBRANCH   2  14
TORSDOF 5
ENDMDL
MODEL 2
REMARK VINA RESULT:      -7.6      1.926      6.987
REMARK  Name = NuBBE_1323
REMARK  6 active torsions:
REMARK  status: ('A' for Active; 'I' for Inactive)
REMARK    1  A    between atoms: C_2  and  C_3
REMARK    2  A    between atoms: C_2  and  C_14
REMARK    3  A    between atoms: C_3  and  C_4
REMARK    4  A    between atoms: C_4  and  C_5
REMARK    5  A    between atoms: C_15  and  O_23
REMARK    6  A    between atoms: O_23  and  C_24
REMARK                            x       y       z     vdW  Elec       q    Type
REMARK                         _______ _______ _______ _____ _____    ______ ____
ROOT
ATOM      1  O   LIG A   1     -10.339  -0.292 122.500  0.00  0.00    -0.292 OA
ATOM      2  C   LIG A   1      -9.372   0.308 122.962  0.00  0.00    +0.167 C 
ENDROOT
BRANCH   2   3
ATOM      3  C   LIG A   1      -8.302  -0.469 123.675  0.00  0.00    +0.060 A 
ATOM      4  C   LIG A   1      -8.249  -0.573 125.086  0.00  0.00    +0.141 A 
ATOM      5  C   LIG A   1      -7.166  -1.276 125.674  0.00  0.00    +0.062 A 
ATOM      6  C   LIG A   1      -6.204  -1.827 124.830  0.00  0.00    +0.138 A 
ATOM      7  C   LIG A   1      -6.239  -1.763 123.441  0.00  0.00    +0.048 A 
ATOM      8  C   LIG A   1      -7.317  -1.076 122.873  0.00  0.00    +0.019 A 
ATOM      9  O   LIG A   1      -5.229  -2.448 125.549  0.00  0.00    -0.463 OA
ATOM     10  C   LIG A   1      -5.556  -2.319 126.857  0.00  0.00    +0.196 A 
ATOM     11  C   LIG A   1      -6.739  -1.631 126.989  0.00  0.00    +0.053 A 
BRANCH   4  12
ATOM     12  O   LIG A   1      -9.332  -0.077 125.790  0.00  0.00    -0.494 OA
ATOM     13  C   LIG A   1      -9.134   1.151 126.477  0.00  0.00    +0.277 C 
ENDBRANCH   4  12
ENDBRANCH   2   3
BRANCH   2  14
ATOM     14  C   LIG A   1      -9.188   1.814 122.798  0.00  0.00    +0.084 C 
BRANCH  14  15
ATOM     15  C   LIG A   1      -7.836   2.291 123.321  0.00  0.00    +0.043 C 
BRANCH  15  16
ATOM     16  C   LIG A   1      -7.103   3.137 122.301  0.00  0.00    -0.043 A 
ATOM     17  C   LIG A   1      -5.808   3.629 122.584  0.00  0.00    +0.007 A 
ATOM     18  C   LIG A   1      -5.113   4.412 121.654  0.00  0.00    +0.050 A 
ATOM     19  C   LIG A   1      -5.729   4.678 120.451  0.00  0.00    +0.166 A 
ATOM     20  O   LIG A   1      -5.203   5.411 119.434  0.00  0.00    -0.453 OA
ATOM     21  C   LIG A   1      -6.258   5.309 118.455  0.00  0.00    +0.466 C 
ATOM     22  O   LIG A   1      -7.409   4.577 118.926  0.00  0.00    -0.453 OA
ATOM     23  C   LIG A   1      -6.985   4.201 120.163  0.00  0.00    +0.167 A 
ATOM     24  C   LIG A   1      -7.695   3.431 121.061  0.00  0.00    +0.053 A 
ENDBRANCH  15  16
ENDBRANCH  14  15
ENDBRANCH   2  14
TORSDOF 5
ENDMDL
MODEL 3
REMARK VINA RESULT:      -7.5      2.454      2.808
REMARK  Name = NuBBE_1323
REMARK  6 active torsions:
REMARK  status: ('A' for Active; 'I' for Inactive)
REMARK    1  A    between atoms: C_2  and  C_3
REMARK    2  A    between atoms: C_2  and  C_14
REMARK    3  A    between atoms: C_3  and  C_4
REMARK    4  A    between atoms: C_4  and  C_5
REMARK    5  A    between atoms: C_15  and  O_23
REMARK    6  A    between atoms: O_23  and  C_24
REMARK                            x       y       z     vdW  Elec       q    Type
REMARK                         _______ _______ _______ _____ _____    ______ ____
ROOT
ATOM      1  O   LIG A   1      -8.994   3.130 125.141  0.00  0.00    -0.292 OA
ATOM      2  C   LIG A   1      -8.658   2.369 124.239  0.00  0.00    +0.167 C 
ENDROOT
BRANCH   2   3
ATOM      3  C   LIG A   1      -8.044   2.939 122.991  0.00  0.00    +0.060 A 
ATOM      4  C   LIG A   1      -6.697   3.371 122.935  0.00  0.00    +0.141 A 
ATOM      5  C   LIG A   1      -6.222   3.954 121.732  0.00  0.00    +0.062 A 
ATOM      6  C   LIG A   1      -7.110   4.076 120.664  0.00  0.00    +0.138 A 
ATOM      7  C   LIG A   1      -8.432   3.641 120.680  0.00  0.00    +0.048 A 
ATOM      8  C   LIG A   1      -8.885   3.059 121.868  0.00  0.00    +0.019 A 
ATOM      9  O   LIG A   1      -6.506   4.668 119.599  0.00  0.00    -0.463 OA
ATOM     10  C   LIG A   1      -5.224   4.920 119.957  0.00  0.00    +0.196 A 
ATOM     11  C   LIG A   1      -4.992   4.486 121.241  0.00  0.00    +0.053 A 
BRANCH   4  12
ATOM     12  O   LIG A   1      -5.902   3.082 124.030  0.00  0.00    -0.494 OA
ATOM     13  C   LIG A   1      -5.536   4.179 124.854  0.00  0.00    +0.277 C 
ENDBRANCH   4  12
ENDBRANCH   2   3
BRANCH   2  14
ATOM     14  C   LIG A   1      -8.794   0.853 124.352  0.00  0.00    +0.084 C 
BRANCH  14  15
ATOM     15  C   LIG A   1      -7.526   0.198 124.891  0.00  0.00    +0.043 C 
BRANCH  15  16
ATOM     16  C   LIG A   1      -7.836  -0.919 125.864  0.00  0.00    -0.043 A 
ATOM     17  C   LIG A   1      -8.806  -1.897 125.540  0.00  0.00    +0.007 A 
ATOM     18  C   LIG A   1      -9.107  -2.939 126.426  0.00  0.00    +0.050 A 
ATOM     19  C   LIG A   1      -8.419  -2.986 127.618  0.00  0.00    +0.166 A 
ATOM     20  O   LIG A   1      -8.575  -3.925 128.590  0.00  0.00    -0.453 OA
ATOM     21  C   LIG A   1      -7.587  -3.489 129.547  0.00  0.00    +0.466 C 
ATOM     22  O   LIG A   1      -6.912  -2.274 129.161  0.00  0.00    -0.453 OA
ATOM     23  C   LIG A   1      -7.471  -2.046 127.942  0.00  0.00    +0.167 A 
ATOM     24  C   LIG A   1      -7.157  -1.005 127.091  0.00  0.00    +0.053 A 
ENDBRANCH  15  16
ENDBRANCH  14  15
ENDBRANCH   2  14
TORSDOF 5
ENDMDL
MODEL 4
REMARK VINA RESULT:      -7.5      2.558      7.605
REMARK  Name = NuBBE_1323
REMARK  6 active torsions:
REMARK  status: ('A' for Active; 'I' for Inactive)
REMARK    1  A    between atoms: C_2  and  C_3
REMARK    2  A    between atoms: C_2  and  C_14
REMARK    3  A    between atoms: C_3  and  C_4
REMARK    4  A    between atoms: C_4  and  C_5
REMARK    5  A    between atoms: C_15  and  O_23
REMARK    6  A    between atoms: O_23  and  C_24
REMARK                            x       y       z     vdW  Elec       q    Type
REMARK                         _______ _______ _______ _____ _____    ______ ____
ROOT
ATOM      1  O   LIG A   1     -10.930   0.941 124.212  0.00  0.00    -0.292 OA
ATOM      2  C   LIG A   1      -9.709   0.821 124.268  0.00  0.00    +0.167 C 
ENDROOT
BRANCH   2   3
ATOM      3  C   LIG A   1      -9.101   0.045 125.403  0.00  0.00    +0.060 A 
ATOM      4  C   LIG A   1      -9.174  -1.366 125.484  0.00  0.00    +0.141 A 
ATOM      5  C   LIG A   1      -8.625  -2.008 126.624  0.00  0.00    +0.062 A 
ATOM      6  C   LIG A   1      -8.044  -1.214 127.611  0.00  0.00    +0.138 A 
ATOM      7  C   LIG A   1      -7.937   0.172 127.551  0.00  0.00    +0.048 A 
ATOM      8  C   LIG A   1      -8.473   0.792 126.417  0.00  0.00    +0.019 A 
ATOM      9  O   LIG A   1      -7.586  -1.979 128.639  0.00  0.00    -0.463 OA
ATOM     10  C   LIG A   1      -7.848  -3.269 128.323  0.00  0.00    +0.196 A 
ATOM     11  C   LIG A   1      -8.463  -3.346 127.095  0.00  0.00    +0.053 A 
BRANCH   4  12
ATOM     12  O   LIG A   1      -9.674  -2.031 124.378  0.00  0.00    -0.494 OA
ATOM     13  C   LIG A   1      -8.720  -2.627 123.511  0.00  0.00    +0.277 C 
ENDBRANCH   4  12
ENDBRANCH   2   3
BRANCH   2  14
ATOM     14  C   LIG A   1      -8.780   1.390 123.199  0.00  0.00    +0.084 C 
BRANCH  14  15
ATOM     15  C   LIG A   1      -8.362   2.826 123.501  0.00  0.00    +0.043 C 
BRANCH  15  16
ATOM     16  C   LIG A   1      -7.516   3.413 122.391  0.00  0.00    -0.043 A 
ATOM     17  C   LIG A   1      -6.145   3.686 122.610  0.00  0.00    +0.007 A 
ATOM     18  C   LIG A   1      -5.345   4.229 121.596  0.00  0.00    +0.050 A 
ATOM     19  C   LIG A   1      -5.935   4.476 120.376  0.00  0.00    +0.166 A 
ATOM     20  O   LIG A   1      -5.313   4.990 119.282  0.00  0.00    -0.453 OA
ATOM     21  C   LIG A   1      -6.395   4.981 118.328  0.00  0.00    +0.466 C 
ATOM     22  O   LIG A   1      -7.646   4.525 118.884  0.00  0.00    -0.453 OA
ATOM     23  C   LIG A   1      -7.264   4.209 120.150  0.00  0.00    +0.167 A 
ATOM     24  C   LIG A   1      -8.078   3.679 121.131  0.00  0.00    +0.053 A 
ENDBRANCH  15  16
ENDBRANCH  14  15
ENDBRANCH   2  14
TORSDOF 5
ENDMDL
MODEL 5
REMARK VINA RESULT:      -7.5      2.396      6.857
REMARK  Name = NuBBE_1323
REMARK  6 active torsions:
REMARK  status: ('A' for Active; 'I' for Inactive)
REMARK    1  A    between atoms: C_2  and  C_3
REMARK    2  A    between atoms: C_2  and  C_14
REMARK    3  A    between atoms: C_3  and  C_4
REMARK    4  A    between atoms: C_4  and  C_5
REMARK    5  A    between atoms: C_15  and  O_23
REMARK    6  A    between atoms: O_23  and  C_24
REMARK                            x       y       z     vdW  Elec       q    Type
REMARK                         _______ _______ _______ _____ _____    ______ ____
ROOT
ATOM      1  O   LIG A   1      -8.980   3.529 125.501  0.00  0.00    -0.292 OA
ATOM      2  C   LIG A   1      -8.216   2.836 124.835  0.00  0.00    +0.167 C 
ENDROOT
BRANCH   2   3
ATOM      3  C   LIG A   1      -8.678   1.487 124.361  0.00  0.00    +0.060 A 
ATOM      4  C   LIG A   1      -8.283   0.283 124.991  0.00  0.00    +0.141 A 
ATOM      5  C   LIG A   1      -8.719  -0.948 124.435  0.00  0.00    +0.062 A 
ATOM      6  C   LIG A   1      -9.513  -0.908 123.291  0.00  0.00    +0.138 A 
ATOM      7  C   LIG A   1      -9.937   0.258 122.661  0.00  0.00    +0.048 A 
ATOM      8  C   LIG A   1      -9.509   1.465 123.225  0.00  0.00    +0.019 A 
ATOM      9  O   LIG A   1      -9.828  -2.165 122.877  0.00  0.00    -0.463 OA
ATOM     10  C   LIG A   1      -9.258  -3.027 123.753  0.00  0.00    +0.196 A 
ATOM     11  C   LIG A   1      -8.587  -2.337 124.734  0.00  0.00    +0.053 A 
BRANCH   4  12
ATOM     12  O   LIG A   1      -7.591   0.399 126.183  0.00  0.00    -0.494 OA
ATOM     13  C   LIG A   1      -6.230  -0.006 126.169  0.00  0.00    +0.277 C 
ENDBRANCH   4  12
ENDBRANCH   2   3
BRANCH   2  14
ATOM     14  C   LIG A   1      -6.824   3.312 124.426  0.00  0.00    +0.084 C 
BRANCH  14  15
ATOM     15  C   LIG A   1      -6.301   2.575 123.196  0.00  0.00    +0.043 C 
BRANCH  15  16
ATOM     16  C   LIG A   1      -5.996   3.524 122.057  0.00  0.00    -0.043 A 
ATOM     17  C   LIG A   1      -4.886   4.398 122.135  0.00  0.00    +0.007 A 
ATOM     18  C   LIG A   1      -4.587   5.283 121.092  0.00  0.00    +0.050 A 
ATOM     19  C   LIG A   1      -5.402   5.265 119.982  0.00  0.00    +0.166 A 
ATOM     20  O   LIG A   1      -5.259   6.045 118.877  0.00  0.00    -0.453 OA
ATOM     21  C   LIG A   1      -6.348   5.563 118.063  0.00  0.00    +0.466 C 
ATOM     22  O   LIG A   1      -7.152   4.559 118.718  0.00  0.00    -0.453 OA
ATOM     23  C   LIG A   1      -6.480   4.417 119.891  0.00  0.00    +0.167 A 
ATOM     24  C   LIG A   1      -6.802   3.538 120.906  0.00  0.00    +0.053 A 
ENDBRANCH  15  16
ENDBRANCH  14  15
ENDBRANCH   2  14
TORSDOF 5
ENDMDL
MODEL 6
REMARK VINA RESULT:      -7.5      2.044      2.878
REMARK  Name = NuBBE_1323
REMARK  6 active torsions:
REMARK  status: ('A' for Active; 'I' for Inactive)
REMARK    1  A    between atoms: C_2  and  C_3
REMARK    2  A    between atoms: C_2  and  C_14
REMARK    3  A    between atoms: C_3  and  C_4
REMARK    4  A    between atoms: C_4  and  C_5
REMARK    5  A    between atoms: C_15  and  O_23
REMARK    6  A    between atoms: O_23  and  C_24
REMARK                            x       y       z     vdW  Elec       q    Type
REMARK                         _______ _______ _______ _____ _____    ______ ____
ROOT
ATOM      1  O   LIG A   1      -8.351   4.786 126.715  0.00  0.00    -0.292 OA
ATOM      2  C   LIG A   1      -7.784   3.770 126.320  0.00  0.00    +0.167 C 
ENDROOT
BRANCH   2   3
ATOM      3  C   LIG A   1      -7.385   3.670 124.875  0.00  0.00    +0.060 A 
ATOM      4  C   LIG A   1      -6.163   4.192 124.385  0.00  0.00    +0.141 A 
ATOM      5  C   LIG A   1      -5.899   4.106 122.994  0.00  0.00    +0.062 A 
ATOM      6  C   LIG A   1      -6.860   3.515 122.177  0.00  0.00    +0.138 A 
ATOM      7  C   LIG A   1      -8.060   2.974 122.629  0.00  0.00    +0.048 A 
ATOM      8  C   LIG A   1      -8.304   3.055 124.004  0.00  0.00    +0.019 A 
ATOM      9  O   LIG A   1      -6.463   3.529 120.875  0.00  0.00    -0.463 OA
ATOM     10  C   LIG A   1      -5.241   4.111 120.838  0.00  0.00    +0.196 A 
ATOM     11  C   LIG A   1      -4.840   4.464 122.106  0.00  0.00    +0.053 A 
BRANCH   4  12
ATOM     12  O   LIG A   1      -5.256   4.644 125.326  0.00  0.00    -0.494 OA
ATOM     13  C   LIG A   1      -4.236   3.734 125.713  0.00  0.00    +0.277 C 
ENDBRANCH   4  12
ENDBRANCH   2   3
BRANCH   2  14
ATOM     14  C   LIG A   1      -7.423   2.618 127.254  0.00  0.00    +0.084 C 
BRANCH  14  15
ATOM     15  C   LIG A   1      -8.502   1.539 127.284  0.00  0.00    +0.043 C 
BRANCH  15  16
ATOM     16  C   LIG A   1      -8.166   0.379 126.372  0.00  0.00    -0.043 A 
ATOM     17  C   LIG A   1      -6.826   0.143 125.983  0.00  0.00    +0.007 A 
ATOM     18  C   LIG A   1      -6.495  -0.925 125.141  0.00  0.00    +0.050 A 
ATOM     19  C   LIG A   1      -7.515  -1.746 124.714  0.00  0.00    +0.166 A 
ATOM     20  O   LIG A   1      -7.378  -2.829 123.903  0.00  0.00    -0.453 OA
ATOM     21  C   LIG A   1      -8.742  -3.296 123.843  0.00  0.00    +0.466 C 
ATOM     22  O   LIG A   1      -9.668  -2.453 124.561  0.00  0.00    -0.453 OA
ATOM     23  C   LIG A   1      -8.819  -1.532 125.090  0.00  0.00    +0.167 A 
ATOM     24  C   LIG A   1      -9.176  -0.484 125.915  0.00  0.00    +0.053 A 
ENDBRANCH  15  16
ENDBRANCH  14  15
ENDBRANCH   2  14
TORSDOF 5
ENDMDL
MODEL 7
REMARK VINA RESULT:      -7.4      2.703      7.544
REMARK  Name = NuBBE_1323
REMARK  6 active torsions:
REMARK  status: ('A' for Active; 'I' for Inactive)
REMARK    1  A    between atoms: C_2  and  C_3
REMARK    2  A    between atoms: C_2  and  C_14
REMARK    3  A    between atoms: C_3  and  C_4
REMARK    4  A    between atoms: C_4  and  C_5
REMARK    5  A    between atoms: C_15  and  O_23
REMARK    6  A    between atoms: O_23  and  C_24
REMARK                            x       y       z     vdW  Elec       q    Type
REMARK                         _______ _______ _______ _____ _____    ______ ____
ROOT
ATOM      1  O   LIG A   1      -8.808   2.146 125.711  0.00  0.00    -0.292 OA
ATOM      2  C   LIG A   1      -8.026   1.234 125.456  0.00  0.00    +0.167 C 
ENDROOT
BRANCH   2   3
ATOM      3  C   LIG A   1      -8.226  -0.105 126.109  0.00  0.00    +0.060 A 
ATOM      4  C   LIG A   1      -7.717  -0.407 127.395  0.00  0.00    +0.141 A 
ATOM      5  C   LIG A   1      -7.901  -1.717 127.906  0.00  0.00    +0.062 A 
ATOM      6  C   LIG A   1      -8.572  -2.645 127.111  0.00  0.00    +0.138 A 
ATOM      7  C   LIG A   1      -9.103  -2.374 125.854  0.00  0.00    +0.048 A 
ATOM      8  C   LIG A   1      -8.924  -1.075 125.366  0.00  0.00    +0.019 A 
ATOM      9  O   LIG A   1      -8.647  -3.852 127.735  0.00  0.00    -0.463 OA
ATOM     10  C   LIG A   1      -8.044  -3.715 128.941  0.00  0.00    +0.196 A 
ATOM     11  C   LIG A   1      -7.589  -2.428 129.104  0.00  0.00    +0.053 A 
BRANCH   4  12
ATOM     12  O   LIG A   1      -7.176   0.643 128.116  0.00  0.00    -0.494 OA
ATOM     13  C   LIG A   1      -8.006   1.222 129.113  0.00  0.00    +0.277 C 
ENDBRANCH   4  12
ENDBRANCH   2   3
BRANCH   2  14
ATOM     14  C   LIG A   1      -6.881   1.391 124.458  0.00  0.00    +0.084 C 
BRANCH  14  15
ATOM     15  C   LIG A   1      -6.538   2.855 124.198  0.00  0.00    +0.043 C 
BRANCH  15  16
ATOM     16  C   LIG A   1      -6.904   3.279 122.792  0.00  0.00    -0.043 A 
ATOM     17  C   LIG A   1      -8.225   3.108 122.318  0.00  0.00    +0.007 A 
ATOM     18  C   LIG A   1      -8.584   3.495 121.020  0.00  0.00    +0.050 A 
ATOM     19  C   LIG A   1      -7.610   4.059 120.227  0.00  0.00    +0.166 A 
ATOM     20  O   LIG A   1      -7.779   4.498 118.951  0.00  0.00    -0.453 OA
ATOM     21  C   LIG A   1      -6.461   5.008 118.663  0.00  0.00    +0.466 C 
ATOM     22  O   LIG A   1      -5.521   4.808 119.741  0.00  0.00    -0.453 OA
ATOM     23  C   LIG A   1      -6.324   4.237 120.678  0.00  0.00    +0.167 A 
ATOM     24  C   LIG A   1      -5.941   3.860 121.950  0.00  0.00    +0.053 A 
ENDBRANCH  15  16
ENDBRANCH  14  15
ENDBRANCH   2  14
TORSDOF 5
ENDMDL
MODEL 8
REMARK VINA RESULT:      -7.3      3.646      7.319
REMARK  Name = NuBBE_1323
REMARK  6 active torsions:
REMARK  status: ('A' for Active; 'I' for Inactive)
REMARK    1  A    between atoms: C_2  and  C_3
REMARK    2  A    between atoms: C_2  and  C_14
REMARK    3  A    between atoms: C_3  and  C_4
REMARK    4  A    between atoms: C_4  and  C_5
REMARK    5  A    between atoms: C_15  and  O_23
REMARK    6  A    between atoms: O_23  and  C_24
REMARK                            x       y       z     vdW  Elec       q    Type
REMARK                         _______ _______ _______ _____ _____    ______ ____
ROOT
ATOM      1  O   LIG A   1     -10.019  -2.803 125.447  0.00  0.00    -0.292 OA
ATOM      2  C   LIG A   1      -8.821  -2.718 125.702  0.00  0.00    +0.167 C 
ENDROOT
BRANCH   2   3
ATOM      3  C   LIG A   1      -8.391  -2.466 127.120  0.00  0.00    +0.060 A 
ATOM      4  C   LIG A   1      -7.823  -1.237 127.536  0.00  0.00    +0.141 A 
ATOM      5  C   LIG A   1      -7.390  -1.112 128.881  0.00  0.00    +0.062 A 
ATOM      6  C   LIG A   1      -7.542  -2.209 129.726  0.00  0.00    +0.138 A 
ATOM      7  C   LIG A   1      -8.116  -3.421 129.355  0.00  0.00    +0.048 A 
ATOM      8  C   LIG A   1      -8.549  -3.528 128.029  0.00  0.00    +0.019 A 
ATOM      9  O   LIG A   1      -7.062  -1.933 130.969  0.00  0.00    -0.463 OA
ATOM     10  C   LIG A   1      -6.612  -0.655 130.946  0.00  0.00    +0.196 A 
ATOM     11  C   LIG A   1      -6.806  -0.102 129.703  0.00  0.00    +0.053 A 
BRANCH   4  12
ATOM     12  O   LIG A   1      -7.841  -0.199 126.621  0.00  0.00    -0.494 OA
ATOM     13  C   LIG A   1      -8.860   0.775 126.788  0.00  0.00    +0.277 C 
ENDBRANCH   4  12
ENDBRANCH   2   3
BRANCH   2  14
ATOM     14  C   LIG A   1      -7.741  -2.906 124.639  0.00  0.00    +0.084 C 
BRANCH  14  15
ATOM     15  C   LIG A   1      -8.204  -2.451 123.259  0.00  0.00    +0.043 C 
BRANCH  15  16
ATOM     16  C   LIG A   1      -8.371  -0.949 123.185  0.00  0.00    -0.043 A 
ATOM     17  C   LIG A   1      -9.635  -0.386 122.893  0.00  0.00    +0.007 A 
ATOM     18  C   LIG A   1      -9.810   1.002 122.821  0.00  0.00    +0.050 A 
ATOM     19  C   LIG A   1      -8.713   1.800 123.058  0.00  0.00    +0.166 A 
ATOM     20  O   LIG A   1      -8.699   3.160 123.038  0.00  0.00    -0.453 OA
ATOM     21  C   LIG A   1      -7.324   3.421 123.388  0.00  0.00    +0.466 C 
ATOM     22  O   LIG A   1      -6.535   2.223 123.547  0.00  0.00    -0.453 OA
ATOM     23  C   LIG A   1      -7.481   1.266 123.349  0.00  0.00    +0.167 A 
ATOM     24  C   LIG A   1      -7.277  -0.098 123.421  0.00  0.00    +0.053 A 
ENDBRANCH  15  16
ENDBRANCH  14  15
ENDBRANCH   2  14
TORSDOF 5
ENDMDL
MODEL 9
REMARK VINA RESULT:      -7.3      2.046      3.380
REMARK  Name = NuBBE_1323
REMARK  6 active torsions:
REMARK  status: ('A' for Active; 'I' for Inactive)
REMARK    1  A    between atoms: C_2  and  C_3
REMARK    2  A    between atoms: C_2  and  C_14
REMARK    3  A    between atoms: C_3  and  C_4
REMARK    4  A    between atoms: C_4  and  C_5
REMARK    5  A    between atoms: C_15  and  O_23
REMARK    6  A    between atoms: O_23  and  C_24
REMARK                            x       y       z     vdW  Elec       q    Type
REMARK                         _______ _______ _______ _____ _____    ______ ____
ROOT
ATOM      1  O   LIG A   1      -8.107   4.391 127.301  0.00  0.00    -0.292 OA
ATOM      2  C   LIG A   1      -7.826   3.407 126.621  0.00  0.00    +0.167 C 
ENDROOT
BRANCH   2   3
ATOM      3  C   LIG A   1      -7.176   3.606 125.280  0.00  0.00    +0.060 A 
ATOM      4  C   LIG A   1      -7.850   3.347 124.063  0.00  0.00    +0.141 A 
ATOM      5  C   LIG A   1      -7.137   3.504 122.847  0.00  0.00    +0.062 A 
ATOM      6  C   LIG A   1      -5.803   3.902 122.913  0.00  0.00    +0.138 A 
ATOM      7  C   LIG A   1      -5.119   4.186 124.091  0.00  0.00    +0.048 A 
ATOM      8  C   LIG A   1      -5.837   4.038 125.282  0.00  0.00    +0.019 A 
ATOM      9  O   LIG A   1      -5.261   3.987 121.668  0.00  0.00    -0.463 OA
ATOM     10  C   LIG A   1      -6.237   3.662 120.786  0.00  0.00    +0.196 A 
ATOM     11  C   LIG A   1      -7.407   3.378 121.451  0.00  0.00    +0.053 A 
BRANCH   4  12
ATOM     12  O   LIG A   1      -9.204   3.071 124.144  0.00  0.00    -0.494 OA
ATOM     13  C   LIG A   1      -9.633   1.833 123.596  0.00  0.00    +0.277 C 
ENDBRANCH   4  12
ENDBRANCH   2   3
BRANCH   2  14
ATOM     14  C   LIG A   1      -8.067   1.980 127.106  0.00  0.00    +0.084 C 
BRANCH  14  15
ATOM     15  C   LIG A   1      -6.910   1.049 126.757  0.00  0.00    +0.043 C 
BRANCH  15  16
ATOM     16  C   LIG A   1      -7.287   0.061 125.673  0.00  0.00    -0.043 A 
ATOM     17  C   LIG A   1      -6.532  -0.008 124.479  0.00  0.00    +0.007 A 
ATOM     18  C   LIG A   1      -6.863  -0.915 123.465  0.00  0.00    +0.050 A 
ATOM     19  C   LIG A   1      -7.941  -1.746 123.675  0.00  0.00    +0.166 A 
ATOM     20  O   LIG A   1      -8.400  -2.688 122.808  0.00  0.00    -0.453 OA
ATOM     21  C   LIG A   1      -9.489  -3.249 123.570  0.00  0.00    +0.466 C 
ATOM     22  O   LIG A   1      -9.697  -2.595 124.840  0.00  0.00    -0.453 OA
ATOM     23  C   LIG A   1      -8.679  -1.693 124.833  0.00  0.00    +0.167 A 
ATOM     24  C   LIG A   1      -8.379  -0.806 125.848  0.00  0.00    +0.053 A 
ENDBRANCH  15  16
ENDBRANCH  14  15
ENDBRANCH   2  14
TORSDOF 5
ENDMDL
