MODEL 1
REMARK VINA RESULT:      -9.1      0.000      0.000
REMARK  Name = NuBBE_929
REMARK  13 active torsions:
REMARK  status: ('A' for Active; 'I' for Inactive)
REMARK    1  A    between atoms: C_1  and  C_2
REMARK    2  A    between atoms: C_11  and  C_12
REMARK    3  A    between atoms: C_11  and  C_13
REMARK    4  A    between atoms: C_14  and  O_18
REMARK    5  A    between atoms: C_21  and  C_22
REMARK    6  A    between atoms: C_23  and  C_27
REMARK    7  A    between atoms: C_27  and  C_29
REMARK    8  A    between atoms: C_27  and  C_36
REMARK    9  A    between atoms: C_29  and  C_30
REMARK   10  A    between atoms: C_30  and  C_31
REMARK   11  A    between atoms: C_31  and  C_33
REMARK   12  A    between atoms: C_33  and  C_34
REMARK   13  A    between atoms: C_33  and  C_35
REMARK                            x       y       z     vdW  Elec       q    Type
REMARK                         _______ _______ _______ _____ _____    ______ ____
ROOT
ATOM      1  C   LIG A   1      -9.776   2.513 130.734  0.00  0.00    +0.012 C 
ATOM      2  C   LIG A   1      -8.543   2.431 131.694  0.00  0.00    -0.023 C 
ATOM      3  C   LIG A   1      -7.779   1.087 131.443  0.00  0.00    +0.006 C 
ATOM      4  C   LIG A   1      -7.182   1.113 130.021  0.00  0.00    -0.015 C 
ATOM      5  C   LIG A   1      -6.853  -0.240 129.367  0.00  0.00    -0.001 C 
ATOM      6  C   LIG A   1      -7.955   0.650 128.806  0.00  0.00    +0.020 C 
ATOM      7  C   LIG A   1      -7.393  -1.484 129.996  0.00  0.00    -0.059 C 
ATOM      8  C   LIG A   1      -8.140  -1.447 131.120  0.00  0.00    -0.026 C 
ATOM      9  C   LIG A   1      -8.563  -0.185 131.814  0.00  0.00    +0.031 C 
ATOM     10  C   LIG A   1      -7.200  -2.813 129.221  0.00  0.00    +0.013 C 
ATOM     11  C   LIG A   1      -6.489  -3.843 130.132  0.00  0.00    +0.018 C 
ATOM     12  C   LIG A   1      -8.574  -3.394 128.809  0.00  0.00    +0.018 C 
ATOM     13  C   LIG A   1      -6.334  -2.620 127.933  0.00  0.00    +0.124 C 
ATOM     14  C   LIG A   1      -5.126  -1.735 128.199  0.00  0.00    +0.033 C 
ATOM     15  C   LIG A   1      -5.525  -0.330 128.629  0.00  0.00    +0.014 C 
ATOM     16  C   LIG A   1      -6.266   2.315 129.787  0.00  0.00    +0.009 C 
ATOM     17  C   LIG A   1      -6.959   3.644 130.129  0.00  0.00    +0.008 C 
ATOM     18  C   LIG A   1      -7.545   3.646 131.550  0.00  0.00    -0.023 C 
ATOM     19  C   LIG A   1      -6.315   3.576 132.533  0.00  0.00    +0.012 C 
ATOM     20  C   LIG A   1      -8.370   4.870 132.078  0.00  0.00    -0.002 C 
ATOM     21  C   LIG A   1      -9.295   4.207 133.160  0.00  0.00    +0.005 C 
ATOM     22  C   LIG A   1      -9.076   2.674 133.111  0.00  0.00    +0.008 C 
ENDROOT
BRANCH  13  23
ATOM     23  O   LIG A   1      -7.077  -2.082 126.834  0.00  0.00    -0.391 OA
ATOM     24  H   LIG A   1      -6.801  -2.554 126.029  0.00  0.00    +0.210 HD
ENDBRANCH  13  23
BRANCH  20  25
ATOM     25  C   LIG A   1      -9.132   5.835 131.109  0.00  0.00    -0.010 C 
ATOM     26  C   LIG A   1      -8.373   7.134 130.791  0.00  0.00    +0.008 C 
BRANCH  25  27
ATOM     27  C   LIG A   1     -10.544   6.229 131.654  0.00  0.00    +0.008 C 
BRANCH  27  28
ATOM     28  C   LIG A   1     -11.687   6.117 130.618  0.00  0.00    +0.030 C 
BRANCH  28  29
ATOM     29  C   LIG A   1     -12.505   7.380 130.502  0.00  0.00    -0.074 C 
ATOM     30  C   LIG A   1     -13.038   7.929 131.610  0.00  0.00    +0.008 C 
BRANCH  29  31
ATOM     31  C   LIG A   1     -12.629   8.025 129.134  0.00  0.00    +0.008 C 
ATOM     32  C   LIG A   1     -11.266   8.324 128.508  0.00  0.00    +0.012 C 
ATOM     33  C   LIG A   1     -13.477   7.183 128.166  0.00  0.00    +0.012 C 
ENDBRANCH  29  31
ENDBRANCH  28  29
ENDBRANCH  27  28
ENDBRANCH  25  27
ENDBRANCH  20  25
TORSDOF 6
ENDMDL
MODEL 2
REMARK VINA RESULT:      -9.1      2.836      8.532
REMARK  Name = NuBBE_929
REMARK  13 active torsions:
REMARK  status: ('A' for Active; 'I' for Inactive)
REMARK    1  A    between atoms: C_1  and  C_2
REMARK    2  A    between atoms: C_11  and  C_12
REMARK    3  A    between atoms: C_11  and  C_13
REMARK    4  A    between atoms: C_14  and  O_18
REMARK    5  A    between atoms: C_21  and  C_22
REMARK    6  A    between atoms: C_23  and  C_27
REMARK    7  A    between atoms: C_27  and  C_29
REMARK    8  A    between atoms: C_27  and  C_36
REMARK    9  A    between atoms: C_29  and  C_30
REMARK   10  A    between atoms: C_30  and  C_31
REMARK   11  A    between atoms: C_31  and  C_33
REMARK   12  A    between atoms: C_33  and  C_34
REMARK   13  A    between atoms: C_33  and  C_35
REMARK                            x       y       z     vdW  Elec       q    Type
REMARK                         _______ _______ _______ _____ _____    ______ ____
ROOT
ATOM      1  C   LIG A   1      -8.262   0.863 128.130  0.00  0.00    +0.012 C 
ATOM      2  C   LIG A   1      -6.999   0.469 128.964  0.00  0.00    -0.023 C 
ATOM      3  C   LIG A   1      -6.723   1.573 130.041  0.00  0.00    +0.006 C 
ATOM      4  C   LIG A   1      -7.888   1.581 131.053  0.00  0.00    -0.015 C 
ATOM      5  C   LIG A   1      -8.110   2.868 131.865  0.00  0.00    -0.001 C 
ATOM      6  C   LIG A   1      -9.140   2.402 130.844  0.00  0.00    +0.020 C 
ATOM      7  C   LIG A   1      -7.405   4.113 131.432  0.00  0.00    -0.059 C 
ATOM      8  C   LIG A   1      -6.575   4.128 130.367  0.00  0.00    -0.026 C 
ATOM      9  C   LIG A   1      -6.322   2.947 129.475  0.00  0.00    +0.031 C 
ATOM     10  C   LIG A   1      -7.784   5.432 132.154  0.00  0.00    +0.013 C 
ATOM     11  C   LIG A   1      -6.507   6.090 132.730  0.00  0.00    +0.018 C 
ATOM     12  C   LIG A   1      -8.432   6.420 131.154  0.00  0.00    +0.018 C 
ATOM     13  C   LIG A   1      -8.783   5.189 133.333  0.00  0.00    +0.124 C 
ATOM     14  C   LIG A   1      -8.385   3.977 134.162  0.00  0.00    +0.033 C 
ATOM     15  C   LIG A   1      -8.403   2.690 133.347  0.00  0.00    +0.014 C 
ATOM     16  C   LIG A   1      -8.108   0.218 131.710  0.00  0.00    +0.009 C 
ATOM     17  C   LIG A   1      -8.275  -0.904 130.671  0.00  0.00    +0.008 C 
ATOM     18  C   LIG A   1      -7.115  -0.941 129.664  0.00  0.00    -0.023 C 
ATOM     19  C   LIG A   1      -5.833  -1.349 130.485  0.00  0.00    +0.012 C 
ATOM     20  C   LIG A   1      -7.123  -1.952 128.465  0.00  0.00    -0.002 C 
ATOM     21  C   LIG A   1      -6.230  -1.216 127.403  0.00  0.00    +0.005 C 
ATOM     22  C   LIG A   1      -5.880   0.188 127.954  0.00  0.00    +0.008 C 
ENDROOT
BRANCH  13  23
ATOM     23  O   LIG A   1     -10.137   5.033 132.896  0.00  0.00    -0.391 OA
ATOM     24  H   LIG A   1     -10.718   5.349 133.609  0.00  0.00    +0.210 HD
ENDBRANCH  13  23
BRANCH  20  25
ATOM     25  C   LIG A   1      -8.455  -2.526 127.876  0.00  0.00    -0.010 C 
ATOM     26  C   LIG A   1      -8.637  -4.038 128.092  0.00  0.00    +0.008 C 
BRANCH  25  27
ATOM     27  C   LIG A   1      -8.594  -2.244 126.344  0.00  0.00    +0.008 C 
BRANCH  27  28
ATOM     28  C   LIG A   1      -8.345  -3.473 125.438  0.00  0.00    +0.030 C 
BRANCH  28  29
ATOM     29  C   LIG A   1      -8.261  -3.120 123.974  0.00  0.00    -0.074 C 
ATOM     30  C   LIG A   1      -9.378  -3.133 123.223  0.00  0.00    +0.008 C 
BRANCH  29  31
ATOM     31  C   LIG A   1      -6.914  -2.689 123.422  0.00  0.00    +0.008 C 
ATOM     32  C   LIG A   1      -6.776  -1.167 123.355  0.00  0.00    +0.012 C 
ATOM     33  C   LIG A   1      -5.740  -3.287 124.214  0.00  0.00    +0.012 C 
ENDBRANCH  29  31
ENDBRANCH  28  29
ENDBRANCH  27  28
ENDBRANCH  25  27
ENDBRANCH  20  25
TORSDOF 6
ENDMDL
MODEL 3
REMARK VINA RESULT:      -8.2      5.319      7.259
REMARK  Name = NuBBE_929
REMARK  13 active torsions:
REMARK  status: ('A' for Active; 'I' for Inactive)
REMARK    1  A    between atoms: C_1  and  C_2
REMARK    2  A    between atoms: C_11  and  C_12
REMARK    3  A    between atoms: C_11  and  C_13
REMARK    4  A    between atoms: C_14  and  O_18
REMARK    5  A    between atoms: C_21  and  C_22
REMARK    6  A    between atoms: C_23  and  C_27
REMARK    7  A    between atoms: C_27  and  C_29
REMARK    8  A    between atoms: C_27  and  C_36
REMARK    9  A    between atoms: C_29  and  C_30
REMARK   10  A    between atoms: C_30  and  C_31
REMARK   11  A    between atoms: C_31  and  C_33
REMARK   12  A    between atoms: C_33  and  C_34
REMARK   13  A    between atoms: C_33  and  C_35
REMARK                            x       y       z     vdW  Elec       q    Type
REMARK                         _______ _______ _______ _____ _____    ______ ____
ROOT
ATOM      1  C   LIG A   1      -6.742  -0.846 130.071  0.00  0.00    +0.012 C 
ATOM      2  C   LIG A   1      -6.622  -2.405 130.026  0.00  0.00    -0.023 C 
ATOM      3  C   LIG A   1      -7.000  -2.912 128.593  0.00  0.00    +0.006 C 
ATOM      4  C   LIG A   1      -5.947  -2.397 127.590  0.00  0.00    -0.015 C 
ATOM      5  C   LIG A   1      -6.359  -2.314 126.111  0.00  0.00    -0.001 C 
ATOM      6  C   LIG A   1      -6.061  -1.052 126.910  0.00  0.00    +0.020 C 
ATOM      7  C   LIG A   1      -7.810  -2.440 125.768  0.00  0.00    -0.059 C 
ATOM      8  C   LIG A   1      -8.750  -2.639 126.717  0.00  0.00    -0.026 C 
ATOM      9  C   LIG A   1      -8.469  -2.688 128.191  0.00  0.00    +0.031 C 
ATOM     10  C   LIG A   1      -8.218  -2.174 124.297  0.00  0.00    +0.013 C 
ATOM     11  C   LIG A   1      -8.996  -3.394 123.749  0.00  0.00    +0.018 C 
ATOM     12  C   LIG A   1      -9.139  -0.932 124.216  0.00  0.00    +0.018 C 
ATOM     13  C   LIG A   1      -6.975  -1.934 123.378  0.00  0.00    +0.124 C 
ATOM     14  C   LIG A   1      -5.863  -2.930 123.670  0.00  0.00    +0.033 C 
ATOM     15  C   LIG A   1      -5.340  -2.807 125.095  0.00  0.00    +0.014 C 
ATOM     16  C   LIG A   1      -4.524  -2.816 127.961  0.00  0.00    +0.009 C 
ATOM     17  C   LIG A   1      -4.164  -2.424 129.404  0.00  0.00    +0.008 C 
ATOM     18  C   LIG A   1      -5.192  -2.944 130.421  0.00  0.00    -0.023 C 
ATOM     19  C   LIG A   1      -5.077  -4.516 130.398  0.00  0.00    +0.012 C 
ATOM     20  C   LIG A   1      -5.068  -2.587 131.944  0.00  0.00    -0.002 C 
ATOM     21  C   LIG A   1      -6.557  -2.684 132.431  0.00  0.00    +0.005 C 
ATOM     22  C   LIG A   1      -7.456  -2.941 131.196  0.00  0.00    +0.008 C 
ENDROOT
BRANCH  13  23
ATOM     23  O   LIG A   1      -6.453  -0.605 123.479  0.00  0.00    -0.391 OA
ATOM     24  H   LIG A   1      -5.511  -0.673 123.714  0.00  0.00    +0.210 HD
ENDBRANCH  13  23
BRANCH  20  25
ATOM     25  C   LIG A   1      -4.331  -1.295 132.434  0.00  0.00    -0.010 C 
ATOM     26  C   LIG A   1      -2.931  -1.553 133.016  0.00  0.00    +0.008 C 
BRANCH  25  27
ATOM     27  C   LIG A   1      -5.158  -0.513 133.507  0.00  0.00    +0.008 C 
BRANCH  27  28
ATOM     28  C   LIG A   1      -5.518   0.937 133.109  0.00  0.00    +0.030 C 
BRANCH  28  29
ATOM     29  C   LIG A   1      -4.349   1.701 132.538  0.00  0.00    -0.074 C 
ATOM     30  C   LIG A   1      -4.318   1.980 131.222  0.00  0.00    +0.008 C 
BRANCH  29  31
ATOM     31  C   LIG A   1      -3.281   2.192 133.499  0.00  0.00    +0.008 C 
ATOM     32  C   LIG A   1      -2.494   3.376 132.936  0.00  0.00    +0.012 C 
ATOM     33  C   LIG A   1      -3.858   2.553 134.878  0.00  0.00    +0.012 C 
ENDBRANCH  29  31
ENDBRANCH  28  29
ENDBRANCH  27  28
ENDBRANCH  25  27
ENDBRANCH  20  25
TORSDOF 6
ENDMDL
MODEL 4
REMARK VINA RESULT:      -8.2      1.908      2.448
REMARK  Name = NuBBE_929
REMARK  13 active torsions:
REMARK  status: ('A' for Active; 'I' for Inactive)
REMARK    1  A    between atoms: C_1  and  C_2
REMARK    2  A    between atoms: C_11  and  C_12
REMARK    3  A    between atoms: C_11  and  C_13
REMARK    4  A    between atoms: C_14  and  O_18
REMARK    5  A    between atoms: C_21  and  C_22
REMARK    6  A    between atoms: C_23  and  C_27
REMARK    7  A    between atoms: C_27  and  C_29
REMARK    8  A    between atoms: C_27  and  C_36
REMARK    9  A    between atoms: C_29  and  C_30
REMARK   10  A    between atoms: C_30  and  C_31
REMARK   11  A    between atoms: C_31  and  C_33
REMARK   12  A    between atoms: C_33  and  C_34
REMARK   13  A    between atoms: C_33  and  C_35
REMARK                            x       y       z     vdW  Elec       q    Type
REMARK                         _______ _______ _______ _____ _____    ______ ____
ROOT
ATOM      1  C   LIG A   1      -8.206   2.055 130.141  0.00  0.00    +0.012 C 
ATOM      2  C   LIG A   1      -8.188   2.017 131.705  0.00  0.00    -0.023 C 
ATOM      3  C   LIG A   1      -7.538   0.675 132.184  0.00  0.00    +0.006 C 
ATOM      4  C   LIG A   1      -6.054   0.663 131.762  0.00  0.00    -0.015 C 
ATOM      5  C   LIG A   1      -5.361  -0.705 131.650  0.00  0.00    -0.001 C 
ATOM      6  C   LIG A   1      -5.595   0.154 130.415  0.00  0.00    +0.020 C 
ATOM      7  C   LIG A   1      -6.210  -1.936 131.656  0.00  0.00    -0.059 C 
ATOM      8  C   LIG A   1      -7.554  -1.872 131.772  0.00  0.00    -0.026 C 
ATOM      9  C   LIG A   1      -8.339  -0.594 131.839  0.00  0.00    +0.031 C 
ATOM     10  C   LIG A   1      -5.508  -3.286 131.361  0.00  0.00    +0.013 C 
ATOM     11  C   LIG A   1      -5.793  -4.278 132.514  0.00  0.00    +0.018 C 
ATOM     12  C   LIG A   1      -6.053  -3.895 130.047  0.00  0.00    +0.018 C 
ATOM     13  C   LIG A   1      -3.957  -3.123 131.230  0.00  0.00    +0.124 C 
ATOM     14  C   LIG A   1      -3.396  -2.216 132.314  0.00  0.00    +0.033 C 
ATOM     15  C   LIG A   1      -3.958  -0.802 132.230  0.00  0.00    +0.014 C 
ATOM     16  C   LIG A   1      -5.279   1.868 132.298  0.00  0.00    +0.009 C 
ATOM     17  C   LIG A   1      -5.956   3.199 131.932  0.00  0.00    +0.008 C 
ATOM     18  C   LIG A   1      -7.431   3.238 132.360  0.00  0.00    -0.023 C 
ATOM     19  C   LIG A   1      -7.433   3.214 133.936  0.00  0.00    +0.012 C 
ATOM     20  C   LIG A   1      -8.338   4.469 132.010  0.00  0.00    -0.002 C 
ATOM     21  C   LIG A   1      -9.772   3.829 131.980  0.00  0.00    +0.005 C 
ATOM     22  C   LIG A   1      -9.623   2.298 132.165  0.00  0.00    +0.008 C 
ENDROOT
BRANCH  13  23
ATOM     23  O   LIG A   1      -3.553  -2.628 129.949  0.00  0.00    -0.391 OA
ATOM     24  H   LIG A   1      -2.584  -2.541 129.956  0.00  0.00    +0.210 HD
ENDBRANCH  13  23
BRANCH  20  25
ATOM     25  C   LIG A   1      -8.040   5.394 130.782  0.00  0.00    -0.010 C 
ATOM     26  C   LIG A   1      -7.317   6.703 131.144  0.00  0.00    +0.008 C 
BRANCH  25  27
ATOM     27  C   LIG A   1      -9.337   5.768 129.993  0.00  0.00    +0.008 C 
BRANCH  27  28
ATOM     28  C   LIG A   1      -9.769   7.246 130.131  0.00  0.00    +0.030 C 
BRANCH  28  29
ATOM     29  C   LIG A   1     -10.906   7.617 129.211  0.00  0.00    -0.074 C 
ATOM     30  C   LIG A   1     -10.671   8.416 128.153  0.00  0.00    +0.008 C 
BRANCH  29  31
ATOM     31  C   LIG A   1     -12.269   7.004 129.480  0.00  0.00    +0.008 C 
ATOM     32  C   LIG A   1     -12.763   7.290 130.899  0.00  0.00    +0.012 C 
ATOM     33  C   LIG A   1     -13.324   7.455 128.456  0.00  0.00    +0.012 C 
ENDBRANCH  29  31
ENDBRANCH  28  29
ENDBRANCH  27  28
ENDBRANCH  25  27
ENDBRANCH  20  25
TORSDOF 6
ENDMDL
MODEL 5
REMARK VINA RESULT:      -8.0      2.352      8.239
REMARK  Name = NuBBE_929
REMARK  13 active torsions:
REMARK  status: ('A' for Active; 'I' for Inactive)
REMARK    1  A    between atoms: C_1  and  C_2
REMARK    2  A    between atoms: C_11  and  C_12
REMARK    3  A    between atoms: C_11  and  C_13
REMARK    4  A    between atoms: C_14  and  O_18
REMARK    5  A    between atoms: C_21  and  C_22
REMARK    6  A    between atoms: C_23  and  C_27
REMARK    7  A    between atoms: C_27  and  C_29
REMARK    8  A    between atoms: C_27  and  C_36
REMARK    9  A    between atoms: C_29  and  C_30
REMARK   10  A    between atoms: C_30  and  C_31
REMARK   11  A    between atoms: C_31  and  C_33
REMARK   12  A    between atoms: C_33  and  C_34
REMARK   13  A    between atoms: C_33  and  C_35
REMARK                            x       y       z     vdW  Elec       q    Type
REMARK                         _______ _______ _______ _____ _____    ______ ____
ROOT
ATOM      1  C   LIG A   1      -7.867   0.347 128.938  0.00  0.00    +0.012 C 
ATOM      2  C   LIG A   1      -6.600   0.798 129.736  0.00  0.00    -0.023 C 
ATOM      3  C   LIG A   1      -6.785   2.280 130.209  0.00  0.00    +0.006 C 
ATOM      4  C   LIG A   1      -7.945   2.336 131.226  0.00  0.00    -0.015 C 
ATOM      5  C   LIG A   1      -8.643   3.691 131.429  0.00  0.00    -0.001 C 
ATOM      6  C   LIG A   1      -9.386   2.516 130.806  0.00  0.00    +0.020 C 
ATOM      7  C   LIG A   1      -8.378   4.783 130.442  0.00  0.00    -0.059 C 
ATOM      8  C   LIG A   1      -7.537   4.611 129.399  0.00  0.00    -0.026 C 
ATOM      9  C   LIG A   1      -6.841   3.321 129.076  0.00  0.00    +0.031 C 
ATOM     10  C   LIG A   1      -9.228   6.073 130.564  0.00  0.00    +0.013 C 
ATOM     11  C   LIG A   1      -8.290   7.299 130.682  0.00  0.00    +0.018 C 
ATOM     12  C   LIG A   1     -10.109   6.253 129.305  0.00  0.00    +0.018 C 
ATOM     13  C   LIG A   1     -10.156   6.046 131.823  0.00  0.00    +0.124 C 
ATOM     14  C   LIG A   1      -9.423   5.522 133.048  0.00  0.00    +0.033 C 
ATOM     15  C   LIG A   1      -8.950   4.085 132.866  0.00  0.00    +0.014 C 
ATOM     16  C   LIG A   1      -7.729   1.404 132.419  0.00  0.00    +0.009 C 
ATOM     17  C   LIG A   1      -7.438  -0.040 131.978  0.00  0.00    +0.008 C 
ATOM     18  C   LIG A   1      -6.273  -0.120 130.979  0.00  0.00    -0.023 C 
ATOM     19  C   LIG A   1      -4.983   0.320 131.771  0.00  0.00    +0.012 C 
ATOM     20  C   LIG A   1      -5.861  -1.488 130.333  0.00  0.00    -0.002 C 
ATOM     21  C   LIG A   1      -5.207  -1.034 128.979  0.00  0.00    +0.005 C 
ATOM     22  C   LIG A   1      -5.391   0.499 128.843  0.00  0.00    +0.008 C 
ENDROOT
BRANCH  13  23
ATOM     23  O   LIG A   1     -11.346   5.275 131.624  0.00  0.00    -0.391 OA
ATOM     24  H   LIG A   1     -11.104   4.335 131.678  0.00  0.00    +0.210 HD
ENDBRANCH  13  23
BRANCH  20  25
ATOM     25  C   LIG A   1      -6.877  -2.668 130.172  0.00  0.00    -0.010 C 
ATOM     26  C   LIG A   1      -6.596  -3.869 131.091  0.00  0.00    +0.008 C 
BRANCH  25  27
ATOM     27  C   LIG A   1      -6.944  -3.197 128.702  0.00  0.00    +0.008 C 
BRANCH  27  28
ATOM     28  C   LIG A   1      -8.364  -3.221 128.091  0.00  0.00    +0.030 C 
BRANCH  28  29
ATOM     29  C   LIG A   1      -8.380  -2.888 126.620  0.00  0.00    -0.074 C 
ATOM     30  C   LIG A   1      -9.547  -2.899 125.949  0.00  0.00    +0.008 C 
BRANCH  29  31
ATOM     31  C   LIG A   1      -7.072  -2.477 125.969  0.00  0.00    +0.008 C 
ATOM     32  C   LIG A   1      -6.793  -3.260 124.685  0.00  0.00    +0.012 C 
ATOM     33  C   LIG A   1      -7.009  -0.967 125.687  0.00  0.00    +0.012 C 
ENDBRANCH  29  31
ENDBRANCH  28  29
ENDBRANCH  27  28
ENDBRANCH  25  27
ENDBRANCH  20  25
TORSDOF 6
ENDMDL
MODEL 6
REMARK VINA RESULT:      -7.9      2.799      4.848
REMARK  Name = NuBBE_929
REMARK  13 active torsions:
REMARK  status: ('A' for Active; 'I' for Inactive)
REMARK    1  A    between atoms: C_1  and  C_2
REMARK    2  A    between atoms: C_11  and  C_12
REMARK    3  A    between atoms: C_11  and  C_13
REMARK    4  A    between atoms: C_14  and  O_18
REMARK    5  A    between atoms: C_21  and  C_22
REMARK    6  A    between atoms: C_23  and  C_27
REMARK    7  A    between atoms: C_27  and  C_29
REMARK    8  A    between atoms: C_27  and  C_36
REMARK    9  A    between atoms: C_29  and  C_30
REMARK   10  A    between atoms: C_30  and  C_31
REMARK   11  A    between atoms: C_31  and  C_33
REMARK   12  A    between atoms: C_33  and  C_34
REMARK   13  A    between atoms: C_33  and  C_35
REMARK                            x       y       z     vdW  Elec       q    Type
REMARK                         _______ _______ _______ _____ _____    ______ ____
ROOT
ATOM      1  C   LIG A   1      -6.681   0.491 130.215  0.00  0.00    +0.012 C 
ATOM      2  C   LIG A   1      -5.325   0.775 129.488  0.00  0.00    -0.023 C 
ATOM      3  C   LIG A   1      -5.326   0.064 128.093  0.00  0.00    +0.006 C 
ATOM      4  C   LIG A   1      -6.406   0.715 127.204  0.00  0.00    -0.015 C 
ATOM      5  C   LIG A   1      -6.947  -0.113 126.025  0.00  0.00    -0.001 C 
ATOM      6  C   LIG A   1      -7.845   0.252 127.200  0.00  0.00    +0.020 C 
ATOM      7  C   LIG A   1      -6.635  -1.575 125.981  0.00  0.00    -0.059 C 
ATOM      8  C   LIG A   1      -5.885  -2.172 126.932  0.00  0.00    -0.026 C 
ATOM      9  C   LIG A   1      -5.348  -1.475 128.148  0.00  0.00    +0.031 C 
ATOM     10  C   LIG A   1      -7.339  -2.418 124.887  0.00  0.00    +0.013 C 
ATOM     11  C   LIG A   1      -6.275  -3.171 124.053  0.00  0.00    +0.018 C 
ATOM     12  C   LIG A   1      -8.276  -3.463 125.539  0.00  0.00    +0.018 C 
ATOM     13  C   LIG A   1      -8.182  -1.530 123.914  0.00  0.00    +0.124 C 
ATOM     14  C   LIG A   1      -7.429  -0.271 123.511  0.00  0.00    +0.033 C 
ATOM     15  C   LIG A   1      -7.119   0.622 124.705  0.00  0.00    +0.014 C 
ATOM     16  C   LIG A   1      -6.211   2.224 127.048  0.00  0.00    +0.009 C 
ATOM     17  C   LIG A   1      -6.098   2.934 128.407  0.00  0.00    +0.008 C 
ATOM     18  C   LIG A   1      -5.015   2.312 129.301  0.00  0.00    -0.023 C 
ATOM     19  C   LIG A   1      -3.638   2.599 128.590  0.00  0.00    +0.012 C 
ATOM     20  C   LIG A   1      -4.788   2.826 130.766  0.00  0.00    -0.002 C 
ATOM     21  C   LIG A   1      -4.179   1.562 131.472  0.00  0.00    +0.005 C 
ATOM     22  C   LIG A   1      -4.214   0.383 130.468  0.00  0.00    +0.008 C 
ENDROOT
BRANCH  13  23
ATOM     23  O   LIG A   1      -9.455  -1.161 124.455  0.00  0.00    -0.391 OA
ATOM     24  H   LIG A   1      -9.296  -0.634 125.258  0.00  0.00    +0.210 HD
ENDBRANCH  13  23
BRANCH  20  25
ATOM     25  C   LIG A   1      -5.928   3.515 131.587  0.00  0.00    -0.010 C 
ATOM     26  C   LIG A   1      -5.879   5.052 131.564  0.00  0.00    +0.008 C 
BRANCH  25  27
ATOM     27  C   LIG A   1      -5.937   3.061 133.084  0.00  0.00    +0.008 C 
BRANCH  27  28
ATOM     28  C   LIG A   1      -7.190   2.256 133.504  0.00  0.00    +0.030 C 
BRANCH  28  29
ATOM     29  C   LIG A   1      -8.482   2.960 133.172  0.00  0.00    -0.074 C 
ATOM     30  C   LIG A   1      -8.987   3.862 134.033  0.00  0.00    +0.008 C 
BRANCH  29  31
ATOM     31  C   LIG A   1      -9.126   2.668 131.828  0.00  0.00    +0.008 C 
ATOM     32  C   LIG A   1     -10.128   1.515 131.904  0.00  0.00    +0.012 C 
ATOM     33  C   LIG A   1      -9.800   3.910 131.222  0.00  0.00    +0.012 C 
ENDBRANCH  29  31
ENDBRANCH  28  29
ENDBRANCH  27  28
ENDBRANCH  25  27
ENDBRANCH  20  25
TORSDOF 6
ENDMDL
MODEL 7
REMARK VINA RESULT:      -7.9      5.756      8.438
REMARK  Name = NuBBE_929
REMARK  13 active torsions:
REMARK  status: ('A' for Active; 'I' for Inactive)
REMARK    1  A    between atoms: C_1  and  C_2
REMARK    2  A    between atoms: C_11  and  C_12
REMARK    3  A    between atoms: C_11  and  C_13
REMARK    4  A    between atoms: C_14  and  O_18
REMARK    5  A    between atoms: C_21  and  C_22
REMARK    6  A    between atoms: C_23  and  C_27
REMARK    7  A    between atoms: C_27  and  C_29
REMARK    8  A    between atoms: C_27  and  C_36
REMARK    9  A    between atoms: C_29  and  C_30
REMARK   10  A    between atoms: C_30  and  C_31
REMARK   11  A    between atoms: C_31  and  C_33
REMARK   12  A    between atoms: C_33  and  C_34
REMARK   13  A    between atoms: C_33  and  C_35
REMARK                            x       y       z     vdW  Elec       q    Type
REMARK                         _______ _______ _______ _____ _____    ______ ____
ROOT
ATOM      1  C   LIG A   1      -6.976  -0.902 130.074  0.00  0.00    +0.012 C 
ATOM      2  C   LIG A   1      -6.792  -2.453 129.998  0.00  0.00    -0.023 C 
ATOM      3  C   LIG A   1      -7.108  -2.943 128.544  0.00  0.00    +0.006 C 
ATOM      4  C   LIG A   1      -6.049  -2.363 127.584  0.00  0.00    -0.015 C 
ATOM      5  C   LIG A   1      -6.422  -2.264 126.095  0.00  0.00    -0.001 C 
ATOM      6  C   LIG A   1      -6.198  -1.009 126.929  0.00  0.00    +0.020 C 
ATOM      7  C   LIG A   1      -7.856  -2.441 125.708  0.00  0.00    -0.059 C 
ATOM      8  C   LIG A   1      -8.814  -2.699 126.624  0.00  0.00    -0.026 C 
ATOM      9  C   LIG A   1      -8.573  -2.769 128.104  0.00  0.00    +0.031 C 
ATOM     10  C   LIG A   1      -8.233  -2.157 124.231  0.00  0.00    +0.013 C 
ATOM     11  C   LIG A   1      -8.945  -3.395 123.635  0.00  0.00    +0.018 C 
ATOM     12  C   LIG A   1      -9.201  -0.952 124.150  0.00  0.00    +0.018 C 
ATOM     13  C   LIG A   1      -6.976  -1.847 123.354  0.00  0.00    +0.124 C 
ATOM     14  C   LIG A   1      -5.832  -2.804 123.658  0.00  0.00    +0.033 C 
ATOM     15  C   LIG A   1      -5.355  -2.692 125.099  0.00  0.00    +0.014 C 
ATOM     16  C   LIG A   1      -4.621  -2.734 127.987  0.00  0.00    +0.009 C 
ATOM     17  C   LIG A   1      -4.319  -2.360 129.448  0.00  0.00    +0.008 C 
ATOM     18  C   LIG A   1      -5.352  -2.943 130.424  0.00  0.00    -0.023 C 
ATOM     19  C   LIG A   1      -5.174  -4.508 130.370  0.00  0.00    +0.012 C 
ATOM     20  C   LIG A   1      -5.286  -2.616 131.956  0.00  0.00    -0.002 C 
ATOM     21  C   LIG A   1      -6.784  -2.784 132.398  0.00  0.00    +0.005 C 
ATOM     22  C   LIG A   1      -7.636  -3.048 131.131  0.00  0.00    +0.008 C 
ENDROOT
BRANCH  13  23
ATOM     23  O   LIG A   1      -6.511  -0.501 123.499  0.00  0.00    -0.391 OA
ATOM     24  H   LIG A   1      -5.574  -0.536 123.760  0.00  0.00    +0.210 HD
ENDBRANCH  13  23
BRANCH  20  25
ATOM     25  C   LIG A   1      -4.617  -1.307 132.495  0.00  0.00    -0.010 C 
ATOM     26  C   LIG A   1      -3.091  -1.403 132.658  0.00  0.00    +0.008 C 
BRANCH  25  27
ATOM     27  C   LIG A   1      -5.217  -0.858 133.868  0.00  0.00    +0.008 C 
BRANCH  27  28
ATOM     28  C   LIG A   1      -4.477  -1.417 135.106  0.00  0.00    +0.030 C 
BRANCH  28  29
ATOM     29  C   LIG A   1      -5.030  -2.739 135.577  0.00  0.00    -0.074 C 
ATOM     30  C   LIG A   1      -6.237  -2.780 136.170  0.00  0.00    +0.008 C 
BRANCH  29  31
ATOM     31  C   LIG A   1      -4.221  -3.992 135.290  0.00  0.00    +0.008 C 
ATOM     32  C   LIG A   1      -3.459  -4.484 136.522  0.00  0.00    +0.012 C 
ATOM     33  C   LIG A   1      -5.086  -5.128 134.720  0.00  0.00    +0.012 C 
ENDBRANCH  29  31
ENDBRANCH  28  29
ENDBRANCH  27  28
ENDBRANCH  25  27
ENDBRANCH  20  25
TORSDOF 6
ENDMDL
MODEL 8
REMARK VINA RESULT:      -7.8      5.476      8.545
REMARK  Name = NuBBE_929
REMARK  13 active torsions:
REMARK  status: ('A' for Active; 'I' for Inactive)
REMARK    1  A    between atoms: C_1  and  C_2
REMARK    2  A    between atoms: C_11  and  C_12
REMARK    3  A    between atoms: C_11  and  C_13
REMARK    4  A    between atoms: C_14  and  O_18
REMARK    5  A    between atoms: C_21  and  C_22
REMARK    6  A    between atoms: C_23  and  C_27
REMARK    7  A    between atoms: C_27  and  C_29
REMARK    8  A    between atoms: C_27  and  C_36
REMARK    9  A    between atoms: C_29  and  C_30
REMARK   10  A    between atoms: C_30  and  C_31
REMARK   11  A    between atoms: C_31  and  C_33
REMARK   12  A    between atoms: C_33  and  C_34
REMARK   13  A    between atoms: C_33  and  C_35
REMARK                            x       y       z     vdW  Elec       q    Type
REMARK                         _______ _______ _______ _____ _____    ______ ____
ROOT
ATOM      1  C   LIG A   1      -3.503   5.837 133.717  0.00  0.00    +0.012 C 
ATOM      2  C   LIG A   1      -3.356   5.349 132.238  0.00  0.00    -0.023 C 
ATOM      3  C   LIG A   1      -4.738   4.818 131.728  0.00  0.00    +0.006 C 
ATOM      4  C   LIG A   1      -5.733   5.996 131.668  0.00  0.00    -0.015 C 
ATOM      5  C   LIG A   1      -7.233   5.659 131.706  0.00  0.00    -0.001 C 
ATOM      6  C   LIG A   1      -6.573   6.412 132.854  0.00  0.00    +0.020 C 
ATOM      7  C   LIG A   1      -7.641   4.274 132.094  0.00  0.00    -0.059 C 
ATOM      8  C   LIG A   1      -6.732   3.321 132.393  0.00  0.00    -0.026 C 
ATOM      9  C   LIG A   1      -5.249   3.550 132.437  0.00  0.00    +0.031 C 
ATOM     10  C   LIG A   1      -9.155   4.011 132.300  0.00  0.00    +0.013 C 
ATOM     11  C   LIG A   1      -9.599   2.829 131.404  0.00  0.00    +0.018 C 
ATOM     12  C   LIG A   1      -9.436   3.637 133.775  0.00  0.00    +0.018 C 
ATOM     13  C   LIG A   1     -10.023   5.258 131.927  0.00  0.00    +0.124 C 
ATOM     14  C   LIG A   1      -9.550   5.901 130.632  0.00  0.00    +0.033 C 
ATOM     15  C   LIG A   1      -8.122   6.420 130.734  0.00  0.00    +0.014 C 
ATOM     16  C   LIG A   1      -5.233   7.147 130.794  0.00  0.00    +0.009 C 
ATOM     17  C   LIG A   1      -3.828   7.617 131.207  0.00  0.00    +0.008 C 
ATOM     18  C   LIG A   1      -2.818   6.461 131.254  0.00  0.00    -0.023 C 
ATOM     19  C   LIG A   1      -2.647   5.964 129.768  0.00  0.00    +0.012 C 
ATOM     20  C   LIG A   1      -1.343   6.700 131.735  0.00  0.00    -0.002 C 
ATOM     21  C   LIG A   1      -0.935   5.283 132.274  0.00  0.00    +0.005 C 
ATOM     22  C   LIG A   1      -2.182   4.365 132.217  0.00  0.00    +0.008 C 
ENDROOT
BRANCH  13  23
ATOM     23  O   LIG A   1     -10.050   6.249 132.960  0.00  0.00    -0.391 OA
ATOM     24  H   LIG A   1      -9.437   5.966 133.660  0.00  0.00    +0.210 HD
ENDBRANCH  13  23
BRANCH  20  25
ATOM     25  C   LIG A   1      -0.969   7.871 132.704  0.00  0.00    -0.010 C 
ATOM     26  C   LIG A   1      -0.446   7.409 134.074  0.00  0.00    +0.008 C 
BRANCH  25  27
ATOM     27  C   LIG A   1      -2.170   8.841 132.953  0.00  0.00    +0.008 C 
BRANCH  27  28
ATOM     28  C   LIG A   1      -1.906   9.930 134.019  0.00  0.00    +0.030 C 
BRANCH  28  29
ATOM     29  C   LIG A   1      -1.721  11.305 133.426  0.00  0.00    -0.074 C 
ATOM     30  C   LIG A   1      -2.599  12.281 133.726  0.00  0.00    +0.008 C 
BRANCH  29  31
ATOM     31  C   LIG A   1      -0.496  11.549 132.563  0.00  0.00    +0.008 C 
ATOM     32  C   LIG A   1      -0.652  12.782 131.671  0.00  0.00    +0.012 C 
ATOM     33  C   LIG A   1       0.791  11.665 133.396  0.00  0.00    +0.012 C 
ENDBRANCH  29  31
ENDBRANCH  28  29
ENDBRANCH  27  28
ENDBRANCH  25  27
ENDBRANCH  20  25
TORSDOF 6
ENDMDL
MODEL 9
REMARK VINA RESULT:      -7.7      2.811      5.087
REMARK  Name = NuBBE_929
REMARK  13 active torsions:
REMARK  status: ('A' for Active; 'I' for Inactive)
REMARK    1  A    between atoms: C_1  and  C_2
REMARK    2  A    between atoms: C_11  and  C_12
REMARK    3  A    between atoms: C_11  and  C_13
REMARK    4  A    between atoms: C_14  and  O_18
REMARK    5  A    between atoms: C_21  and  C_22
REMARK    6  A    between atoms: C_23  and  C_27
REMARK    7  A    between atoms: C_27  and  C_29
REMARK    8  A    between atoms: C_27  and  C_36
REMARK    9  A    between atoms: C_29  and  C_30
REMARK   10  A    between atoms: C_30  and  C_31
REMARK   11  A    between atoms: C_31  and  C_33
REMARK   12  A    between atoms: C_33  and  C_34
REMARK   13  A    between atoms: C_33  and  C_35
REMARK                            x       y       z     vdW  Elec       q    Type
REMARK                         _______ _______ _______ _____ _____    ______ ____
ROOT
ATOM      1  C   LIG A   1      -8.027  -0.322 129.627  0.00  0.00    +0.012 C 
ATOM      2  C   LIG A   1      -6.763   0.514 129.239  0.00  0.00    -0.023 C 
ATOM      3  C   LIG A   1      -6.221   0.022 127.854  0.00  0.00    +0.006 C 
ATOM      4  C   LIG A   1      -7.268   0.344 126.767  0.00  0.00    -0.015 C 
ATOM      5  C   LIG A   1      -7.214  -0.475 125.467  0.00  0.00    -0.001 C 
ATOM      6  C   LIG A   1      -8.396  -0.600 126.419  0.00  0.00    +0.020 C 
ATOM      7  C   LIG A   1      -6.373  -1.711 125.439  0.00  0.00    -0.059 C 
ATOM      8  C   LIG A   1      -5.657  -2.109 126.513  0.00  0.00    -0.026 C 
ATOM      9  C   LIG A   1      -5.672  -1.417 127.845  0.00  0.00    +0.031 C 
ATOM     10  C   LIG A   1      -6.477  -2.613 124.182  0.00  0.00    +0.013 C 
ATOM     11  C   LIG A   1      -5.066  -2.829 123.585  0.00  0.00    +0.018 C 
ATOM     12  C   LIG A   1      -7.061  -3.994 124.564  0.00  0.00    +0.018 C 
ATOM     13  C   LIG A   1      -7.383  -1.976 123.077  0.00  0.00    +0.124 C 
ATOM     14  C   LIG A   1      -7.095  -0.493 122.904  0.00  0.00    +0.033 C 
ATOM     15  C   LIG A   1      -7.386   0.302 124.170  0.00  0.00    +0.014 C 
ATOM     16  C   LIG A   1      -7.628   1.830 126.717  0.00  0.00    +0.009 C 
ATOM     17  C   LIG A   1      -8.062   2.365 128.092  0.00  0.00    +0.008 C 
ATOM     18  C   LIG A   1      -7.023   2.070 129.185  0.00  0.00    -0.023 C 
ATOM     19  C   LIG A   1      -5.745   2.915 128.817  0.00  0.00    +0.012 C 
ATOM     20  C   LIG A   1      -7.300   2.452 130.681  0.00  0.00    -0.002 C 
ATOM     21  C   LIG A   1      -6.413   1.416 131.459  0.00  0.00    +0.005 C 
ATOM     22  C   LIG A   1      -5.802   0.432 130.430  0.00  0.00    +0.008 C 
ENDROOT
BRANCH  13  23
ATOM     23  O   LIG A   1      -8.781  -2.156 123.328  0.00  0.00    -0.391 OA
ATOM     24  H   LIG A   1      -8.959  -1.867 124.239  0.00  0.00    +0.210 HD
ENDBRANCH  13  23
BRANCH  20  25
ATOM     25  C   LIG A   1      -8.754   2.582 131.247  0.00  0.00    -0.010 C 
ATOM     26  C   LIG A   1      -9.390   3.966 131.033  0.00  0.00    +0.008 C 
BRANCH  25  27
ATOM     27  C   LIG A   1      -8.826   2.256 132.775  0.00  0.00    +0.008 C 
BRANCH  27  28
ATOM     28  C   LIG A   1      -8.895   3.497 133.695  0.00  0.00    +0.030 C 
BRANCH  28  29
ATOM     29  C   LIG A   1      -7.539   3.952 134.176  0.00  0.00    -0.074 C 
ATOM     30  C   LIG A   1      -6.649   3.040 134.611  0.00  0.00    +0.008 C 
BRANCH  29  31
ATOM     31  C   LIG A   1      -7.208   5.430 134.078  0.00  0.00    +0.008 C 
ATOM     32  C   LIG A   1      -6.235   5.879 135.169  0.00  0.00    +0.012 C 
ATOM     33  C   LIG A   1      -6.658   5.814 132.694  0.00  0.00    +0.012 C 
ENDBRANCH  29  31
ENDBRANCH  28  29
ENDBRANCH  27  28
ENDBRANCH  25  27
ENDBRANCH  20  25
TORSDOF 6
ENDMDL
