MODEL 1
REMARK VINA RESULT:      -7.8      0.000      0.000
REMARK  Name = NuBBE_47
REMARK  20 active torsions:
REMARK  status: ('A' for Active; 'I' for Inactive)
REMARK    1  A    between atoms: C_1  and  C_2
REMARK    2  A    between atoms: C_5  and  O_7
REMARK    3  A    between atoms: C_10  and  O_12
REMARK    4  A    between atoms: O_12  and  C_13
REMARK    5  A    between atoms: C_13  and  C_14
REMARK    6  A    between atoms: C_14  and  C_15
REMARK    7  A    between atoms: C_15  and  C_16
REMARK    8  A    between atoms: C_19  and  O_21
REMARK    9  A    between atoms: O_21  and  C_22
REMARK   10  A    between atoms: C_22  and  C_23
REMARK   11  A    between atoms: C_26  and  O_28
REMARK   12  A    between atoms: O_28  and  C_29
REMARK   13  A    between atoms: C_29  and  C_30
REMARK   14  A    between atoms: C_30  and  C_31
REMARK   15  A    between atoms: C_31  and  C_32
REMARK   16  A    between atoms: C_37  and  C_38
REMARK   17  A    between atoms: C_37  and  C_39
REMARK   18  A    between atoms: C_39  and  C_40
REMARK   19  A    between atoms: C_41  and  C_42
REMARK   20  A    between atoms: C_41  and  C_44
REMARK                            x       y       z     vdW  Elec       q    Type
REMARK                         _______ _______ _______ _____ _____    ______ ____
ROOT
ATOM      1  C   LIG A   1      -7.831   1.980 130.036  0.00  0.00    +0.008 C 
ATOM      2  C   LIG A   1      -7.066   2.100 128.718  0.00  0.00    -0.005 C 
ATOM      3  C   LIG A   1      -7.918   2.892 127.704  0.00  0.00    +0.036 C 
ATOM      4  C   LIG A   1      -8.342   2.118 126.462  0.00  0.00    +0.131 C 
ATOM      5  C   LIG A   1      -7.109   1.508 125.701  0.00  0.00    +0.089 C 
ATOM      6  C   LIG A   1      -6.700   2.588 124.722  0.00  0.00    +0.012 C 
ATOM      7  C   LIG A   1      -7.622   2.523 123.525  0.00  0.00    +0.343 C 
ATOM      8  O   LIG A   1      -8.194   1.200 123.575  0.00  0.00    -0.297 OA
ATOM      9  C   LIG A   1      -7.545   0.452 124.634  0.00  0.00    +0.327 C 
ATOM     10  C   LIG A   1      -5.650   3.404 124.880  0.00  0.00    +0.023 C 
ATOM     11  C   LIG A   1      -4.702   3.302 126.020  0.00  0.00    +0.200 C 
ATOM     12  C   LIG A   1      -4.655   1.879 126.603  0.00  0.00    +0.054 C 
ATOM     13  C   LIG A   1      -5.966   1.023 126.687  0.00  0.00    +0.018 C 
ATOM     14  C   LIG A   1      -6.428   0.756 128.192  0.00  0.00    -0.022 C 
ATOM     15  C   LIG A   1      -5.213   0.425 129.126  0.00  0.00    +0.012 C 
ENDROOT
BRANCH   4  16
ATOM     16  O   LIG A   1      -9.330   1.157 126.799  0.00  0.00    -0.391 OA
ATOM     17  H   LIG A   1      -9.893   1.004 126.020  0.00  0.00    +0.210 HD
ENDBRANCH   4  16
BRANCH   7  18
ATOM     18  O   LIG A   1      -6.860   2.730 122.333  0.00  0.00    -0.431 OA
BRANCH  18  19
ATOM     19  C   LIG A   1      -7.493   3.432 121.352  0.00  0.00    +0.309 C 
ATOM     20  O   LIG A   1      -8.702   3.606 121.258  0.00  0.00    -0.251 OA
BRANCH  19  21
ATOM     21  C   LIG A   1      -6.448   4.053 120.433  0.00  0.00    +0.120 C 
BRANCH  21  22
ATOM     22  C   LIG A   1      -5.012   3.780 120.883  0.00  0.00    +0.008 C 
ATOM     23  C   LIG A   1      -4.421   4.945 121.669  0.00  0.00    +0.004 C 
ENDBRANCH  21  22
ENDBRANCH  19  21
ENDBRANCH  18  19
ENDBRANCH   7  18
BRANCH   9  24
ATOM     24  O   LIG A   1      -6.459  -0.261 124.015  0.00  0.00    -0.434 OA
BRANCH  24  25
ATOM     25  C   LIG A   1      -6.639  -1.619 124.026  0.00  0.00    +0.306 C 
ATOM     26  C   LIG A   1      -7.755  -2.028 124.956  0.00  0.00    +0.136 C 
ATOM     27  O   LIG A   1      -5.974  -2.411 123.391  0.00  0.00    -0.251 OA
ENDBRANCH  24  25
ENDBRANCH   9  24
BRANCH  11  28
ATOM     28  O   LIG A   1      -3.344   3.615 125.619  0.00  0.00    -0.457 OA
BRANCH  28  29
ATOM     29  C   LIG A   1      -2.406   3.684 126.606  0.00  0.00    +0.308 C 
ATOM     30  O   LIG A   1      -1.414   2.969 126.676  0.00  0.00    -0.251 OA
BRANCH  29  31
ATOM     31  C   LIG A   1      -2.761   4.775 127.581  0.00  0.00    +0.120 C 
BRANCH  31  32
ATOM     32  C   LIG A   1      -2.963   4.257 129.005  0.00  0.00    +0.008 C 
ATOM     33  C   LIG A   1      -4.393   4.499 129.461  0.00  0.00    +0.004 C 
ENDBRANCH  31  32
ENDBRANCH  29  31
ENDBRANCH  28  29
ENDBRANCH  11  28
BRANCH  14  34
ATOM     34  C   LIG A   1      -7.360  -0.529 128.328  0.00  0.00    +0.034 C 
BRANCH  34  35
ATOM     35  C   LIG A   1      -6.780  -1.737 129.046  0.00  0.00    -0.023 C 
ATOM     36  C   LIG A   1      -7.298  -2.959 129.293  0.00  0.00    -0.055 C 
ATOM     37  C   LIG A   1      -6.499  -3.986 130.068  0.00  0.00    +0.043 C 
BRANCH  36  38
ATOM     38  C   LIG A   1      -8.627  -3.422 128.942  0.00  0.00    -0.005 C 
ATOM     39  C   LIG A   1      -8.968  -4.069 127.821  0.00  0.00    +0.008 C 
ENDBRANCH  36  38
ENDBRANCH  34  35
ENDBRANCH  14  34
TORSDOF 14
ENDMDL
MODEL 2
REMARK VINA RESULT:      -7.4      2.575      6.475
REMARK  Name = NuBBE_47
REMARK  20 active torsions:
REMARK  status: ('A' for Active; 'I' for Inactive)
REMARK    1  A    between atoms: C_1  and  C_2
REMARK    2  A    between atoms: C_5  and  O_7
REMARK    3  A    between atoms: C_10  and  O_12
REMARK    4  A    between atoms: O_12  and  C_13
REMARK    5  A    between atoms: C_13  and  C_14
REMARK    6  A    between atoms: C_14  and  C_15
REMARK    7  A    between atoms: C_15  and  C_16
REMARK    8  A    between atoms: C_19  and  O_21
REMARK    9  A    between atoms: O_21  and  C_22
REMARK   10  A    between atoms: C_22  and  C_23
REMARK   11  A    between atoms: C_26  and  O_28
REMARK   12  A    between atoms: O_28  and  C_29
REMARK   13  A    between atoms: C_29  and  C_30
REMARK   14  A    between atoms: C_30  and  C_31
REMARK   15  A    between atoms: C_31  and  C_32
REMARK   16  A    between atoms: C_37  and  C_38
REMARK   17  A    between atoms: C_37  and  C_39
REMARK   18  A    between atoms: C_39  and  C_40
REMARK   19  A    between atoms: C_41  and  C_42
REMARK   20  A    between atoms: C_41  and  C_44
REMARK                            x       y       z     vdW  Elec       q    Type
REMARK                         _______ _______ _______ _____ _____    ______ ____
ROOT
ATOM      1  C   LIG A   1      -2.122   3.373 127.401  0.00  0.00    +0.008 C 
ATOM      2  C   LIG A   1      -3.480   2.709 127.172  0.00  0.00    -0.005 C 
ATOM      3  C   LIG A   1      -4.078   3.215 125.842  0.00  0.00    +0.036 C 
ATOM      4  C   LIG A   1      -5.379   3.998 125.967  0.00  0.00    +0.131 C 
ATOM      5  C   LIG A   1      -6.486   3.179 126.725  0.00  0.00    +0.089 C 
ATOM      6  C   LIG A   1      -7.206   2.419 125.631  0.00  0.00    +0.012 C 
ATOM      7  C   LIG A   1      -8.188   3.357 124.965  0.00  0.00    +0.343 C 
ATOM      8  O   LIG A   1      -8.382   4.422 125.918  0.00  0.00    -0.297 OA
ATOM      9  C   LIG A   1      -7.693   4.079 127.146  0.00  0.00    +0.327 C 
ATOM     10  C   LIG A   1      -7.036   1.118 125.366  0.00  0.00    +0.023 C 
ATOM     11  C   LIG A   1      -6.156   0.230 126.170  0.00  0.00    +0.200 C 
ATOM     12  C   LIG A   1      -5.985   0.742 127.611  0.00  0.00    +0.054 C 
ATOM     13  C   LIG A   1      -5.888   2.282 127.888  0.00  0.00    +0.018 C 
ATOM     14  C   LIG A   1      -4.447   2.720 128.419  0.00  0.00    -0.022 C 
ATOM     15  C   LIG A   1      -3.871   1.697 129.458  0.00  0.00    +0.012 C 
ENDROOT
BRANCH   4  16
ATOM     16  O   LIG A   1      -5.129   5.273 126.537  0.00  0.00    -0.391 OA
ATOM     17  H   LIG A   1      -4.387   5.687 126.060  0.00  0.00    +0.210 HD
ENDBRANCH   4  16
BRANCH   7  18
ATOM     18  O   LIG A   1      -9.403   2.652 124.698  0.00  0.00    -0.431 OA
BRANCH  18  19
ATOM     19  C   LIG A   1      -9.556   2.219 123.415  0.00  0.00    +0.309 C 
ATOM     20  O   LIG A   1      -8.964   2.655 122.434  0.00  0.00    -0.251 OA
BRANCH  19  21
ATOM     21  C   LIG A   1     -10.515   1.036 123.401  0.00  0.00    +0.120 C 
BRANCH  21  22
ATOM     22  C   LIG A   1     -10.076  -0.084 122.457  0.00  0.00    +0.008 C 
ATOM     23  C   LIG A   1      -9.037  -1.001 123.092  0.00  0.00    +0.004 C 
ENDBRANCH  21  22
ENDBRANCH  19  21
ENDBRANCH  18  19
ENDBRANCH   7  18
BRANCH   9  24
ATOM     24  O   LIG A   1      -8.665   3.427 127.983  0.00  0.00    -0.434 OA
BRANCH  24  25
ATOM     25  C   LIG A   1      -8.899   4.102 129.152  0.00  0.00    +0.306 C 
ATOM     26  C   LIG A   1      -8.273   3.405 130.336  0.00  0.00    +0.136 C 
ATOM     27  O   LIG A   1      -9.551   5.121 129.245  0.00  0.00    -0.251 OA
ENDBRANCH  24  25
ENDBRANCH   9  24
BRANCH  11  28
ATOM     28  O   LIG A   1      -6.703  -1.108 126.284  0.00  0.00    -0.457 OA
BRANCH  28  29
ATOM     29  C   LIG A   1      -5.853  -2.148 126.054  0.00  0.00    +0.308 C 
ATOM     30  O   LIG A   1      -4.990  -2.530 126.835  0.00  0.00    -0.251 OA
BRANCH  29  31
ATOM     31  C   LIG A   1      -6.144  -2.765 124.711  0.00  0.00    +0.120 C 
BRANCH  31  32
ATOM     32  C   LIG A   1      -4.892  -2.928 123.849  0.00  0.00    +0.008 C 
ATOM     33  C   LIG A   1      -4.515  -4.396 123.733  0.00  0.00    +0.004 C 
ENDBRANCH  31  32
ENDBRANCH  29  31
ENDBRANCH  28  29
ENDBRANCH  11  28
BRANCH  14  34
ATOM     34  C   LIG A   1      -4.483   4.092 129.229  0.00  0.00    +0.034 C 
BRANCH  34  35
ATOM     35  C   LIG A   1      -3.559   4.216 130.430  0.00  0.00    -0.023 C 
ATOM     36  C   LIG A   1      -2.725   5.205 130.812  0.00  0.00    -0.055 C 
ATOM     37  C   LIG A   1      -1.882   5.056 132.063  0.00  0.00    +0.043 C 
BRANCH  36  38
ATOM     38  C   LIG A   1      -2.471   6.446 130.104  0.00  0.00    -0.005 C 
ATOM     39  C   LIG A   1      -2.022   6.561 128.849  0.00  0.00    +0.008 C 
ENDBRANCH  36  38
ENDBRANCH  34  35
ENDBRANCH  14  34
TORSDOF 14
ENDMDL
MODEL 3
REMARK VINA RESULT:      -7.3      2.845      6.275
REMARK  Name = NuBBE_47
REMARK  20 active torsions:
REMARK  status: ('A' for Active; 'I' for Inactive)
REMARK    1  A    between atoms: C_1  and  C_2
REMARK    2  A    between atoms: C_5  and  O_7
REMARK    3  A    between atoms: C_10  and  O_12
REMARK    4  A    between atoms: O_12  and  C_13
REMARK    5  A    between atoms: C_13  and  C_14
REMARK    6  A    between atoms: C_14  and  C_15
REMARK    7  A    between atoms: C_15  and  C_16
REMARK    8  A    between atoms: C_19  and  O_21
REMARK    9  A    between atoms: O_21  and  C_22
REMARK   10  A    between atoms: C_22  and  C_23
REMARK   11  A    between atoms: C_26  and  O_28
REMARK   12  A    between atoms: O_28  and  C_29
REMARK   13  A    between atoms: C_29  and  C_30
REMARK   14  A    between atoms: C_30  and  C_31
REMARK   15  A    between atoms: C_31  and  C_32
REMARK   16  A    between atoms: C_37  and  C_38
REMARK   17  A    between atoms: C_37  and  C_39
REMARK   18  A    between atoms: C_39  and  C_40
REMARK   19  A    between atoms: C_41  and  C_42
REMARK   20  A    between atoms: C_41  and  C_44
REMARK                            x       y       z     vdW  Elec       q    Type
REMARK                         _______ _______ _______ _____ _____    ______ ____
ROOT
ATOM      1  C   LIG A   1      -5.664  -3.992 130.265  0.00  0.00    +0.008 C 
ATOM      2  C   LIG A   1      -5.928  -2.888 129.240  0.00  0.00    -0.005 C 
ATOM      3  C   LIG A   1      -4.661  -2.020 129.086  0.00  0.00    +0.036 C 
ATOM      4  C   LIG A   1      -4.813  -0.563 129.505  0.00  0.00    +0.131 C 
ATOM      5  C   LIG A   1      -5.992   0.147 128.745  0.00  0.00    +0.089 C 
ATOM      6  C   LIG A   1      -5.347   0.713 127.497  0.00  0.00    +0.012 C 
ATOM      7  C   LIG A   1      -4.649   2.004 127.864  0.00  0.00    +0.343 C 
ATOM      8  O   LIG A   1      -5.260   2.410 129.106  0.00  0.00    -0.297 OA
ATOM      9  C   LIG A   1      -6.365   1.518 129.395  0.00  0.00    +0.327 C 
ATOM     10  C   LIG A   1      -5.453   0.180 126.274  0.00  0.00    +0.023 C 
ATOM     11  C   LIG A   1      -6.286  -1.014 125.973  0.00  0.00    +0.200 C 
ATOM     12  C   LIG A   1      -7.441  -1.177 126.977  0.00  0.00    +0.054 C 
ATOM     13  C   LIG A   1      -7.220  -0.823 128.488  0.00  0.00    +0.018 C 
ATOM     14  C   LIG A   1      -7.286  -2.108 129.435  0.00  0.00    -0.022 C 
ATOM     15  C   LIG A   1      -8.442  -3.083 129.016  0.00  0.00    +0.012 C 
ENDROOT
BRANCH   4  16
ATOM     16  O   LIG A   1      -4.912  -0.469 130.917  0.00  0.00    -0.391 OA
ATOM     17  H   LIG A   1      -5.252  -1.313 131.262  0.00  0.00    +0.210 HD
ENDBRANCH   4  16
BRANCH   7  18
ATOM     18  O   LIG A   1      -4.862   2.964 126.825  0.00  0.00    -0.431 OA
BRANCH  18  19
ATOM     19  C   LIG A   1      -4.532   4.247 127.143  0.00  0.00    +0.309 C 
ATOM     20  O   LIG A   1      -5.317   5.175 127.294  0.00  0.00    -0.251 OA
BRANCH  19  21
ATOM     21  C   LIG A   1      -3.029   4.330 127.376  0.00  0.00    +0.120 C 
BRANCH  21  22
ATOM     22  C   LIG A   1      -2.207   3.795 126.202  0.00  0.00    +0.008 C 
ATOM     23  C   LIG A   1      -1.211   2.725 126.632  0.00  0.00    +0.004 C 
ENDBRANCH  21  22
ENDBRANCH  19  21
ENDBRANCH  18  19
ENDBRANCH   7  18
BRANCH   9  24
ATOM     24  O   LIG A   1      -7.540   2.143 128.848  0.00  0.00    -0.434 OA
BRANCH  24  25
ATOM     25  C   LIG A   1      -7.790   3.376 129.391  0.00  0.00    +0.306 C 
ATOM     26  C   LIG A   1      -8.318   4.344 128.360  0.00  0.00    +0.136 C 
ATOM     27  O   LIG A   1      -7.591   3.676 130.549  0.00  0.00    -0.251 OA
ENDBRANCH  24  25
ENDBRANCH   9  24
BRANCH  11  28
ATOM     28  O   LIG A   1      -6.904  -0.922 124.665  0.00  0.00    -0.457 OA
BRANCH  28  29
ATOM     29  C   LIG A   1      -6.375  -1.694 123.673  0.00  0.00    +0.308 C 
ATOM     30  O   LIG A   1      -6.415  -1.420 122.480  0.00  0.00    -0.251 OA
BRANCH  29  31
ATOM     31  C   LIG A   1      -5.723  -2.916 124.263  0.00  0.00    +0.120 C 
BRANCH  31  32
ATOM     32  C   LIG A   1      -4.490  -3.368 123.480  0.00  0.00    +0.008 C 
ATOM     33  C   LIG A   1      -4.359  -4.882 123.521  0.00  0.00    +0.004 C 
ENDBRANCH  31  32
ENDBRANCH  29  31
ENDBRANCH  28  29
ENDBRANCH  11  28
BRANCH  14  34
ATOM     34  C   LIG A   1      -7.640  -1.740 130.944  0.00  0.00    +0.034 C 
BRANCH  34  35
ATOM     35  C   LIG A   1      -8.637  -0.615 131.171  0.00  0.00    -0.023 C 
ATOM     36  C   LIG A   1      -8.577   0.484 131.953  0.00  0.00    -0.055 C 
ATOM     37  C   LIG A   1      -9.745   1.446 132.012  0.00  0.00    +0.043 C 
BRANCH  36  38
ATOM     38  C   LIG A   1      -7.494   0.852 132.845  0.00  0.00    -0.005 C 
ATOM     39  C   LIG A   1      -7.331   2.039 133.442  0.00  0.00    +0.008 C 
ENDBRANCH  36  38
ENDBRANCH  34  35
ENDBRANCH  14  34
TORSDOF 14
ENDMDL
MODEL 4
REMARK VINA RESULT:      -7.2      2.973      6.175
REMARK  Name = NuBBE_47
REMARK  20 active torsions:
REMARK  status: ('A' for Active; 'I' for Inactive)
REMARK    1  A    between atoms: C_1  and  C_2
REMARK    2  A    between atoms: C_5  and  O_7
REMARK    3  A    between atoms: C_10  and  O_12
REMARK    4  A    between atoms: O_12  and  C_13
REMARK    5  A    between atoms: C_13  and  C_14
REMARK    6  A    between atoms: C_14  and  C_15
REMARK    7  A    between atoms: C_15  and  C_16
REMARK    8  A    between atoms: C_19  and  O_21
REMARK    9  A    between atoms: O_21  and  C_22
REMARK   10  A    between atoms: C_22  and  C_23
REMARK   11  A    between atoms: C_26  and  O_28
REMARK   12  A    between atoms: O_28  and  C_29
REMARK   13  A    between atoms: C_29  and  C_30
REMARK   14  A    between atoms: C_30  and  C_31
REMARK   15  A    between atoms: C_31  and  C_32
REMARK   16  A    between atoms: C_37  and  C_38
REMARK   17  A    between atoms: C_37  and  C_39
REMARK   18  A    between atoms: C_39  and  C_40
REMARK   19  A    between atoms: C_41  and  C_42
REMARK   20  A    between atoms: C_41  and  C_44
REMARK                            x       y       z     vdW  Elec       q    Type
REMARK                         _______ _______ _______ _____ _____    ______ ____
ROOT
ATOM      1  C   LIG A   1      -7.242   1.550 123.907  0.00  0.00    +0.008 C 
ATOM      2  C   LIG A   1      -7.327   1.933 125.385  0.00  0.00    -0.005 C 
ATOM      3  C   LIG A   1      -6.019   2.635 125.807  0.00  0.00    +0.036 C 
ATOM      4  C   LIG A   1      -5.201   1.908 126.867  0.00  0.00    +0.131 C 
ATOM      5  C   LIG A   1      -6.043   1.617 128.162  0.00  0.00    +0.089 C 
ATOM      6  C   LIG A   1      -5.833   2.840 129.030  0.00  0.00    +0.012 C 
ATOM      7  C   LIG A   1      -4.497   2.707 129.727  0.00  0.00    +0.343 C 
ATOM      8  O   LIG A   1      -4.189   1.299 129.661  0.00  0.00    -0.297 OA
ATOM      9  C   LIG A   1      -5.330   0.598 129.107  0.00  0.00    +0.327 C 
ATOM     10  C   LIG A   1      -6.725   3.824 129.192  0.00  0.00    +0.023 C 
ATOM     11  C   LIG A   1      -8.082   3.804 128.585  0.00  0.00    +0.200 C 
ATOM     12  C   LIG A   1      -8.571   2.370 128.317  0.00  0.00    +0.054 C 
ATOM     13  C   LIG A   1      -7.557   1.275 127.837  0.00  0.00    +0.018 C 
ATOM     14  C   LIG A   1      -7.843   0.789 126.342  0.00  0.00    -0.022 C 
ATOM     15  C   LIG A   1      -9.377   0.615 126.068  0.00  0.00    +0.012 C 
ENDROOT
BRANCH   4  16
ATOM     16  O   LIG A   1      -4.600   0.750 126.311  0.00  0.00    -0.391 OA
ATOM     17  H   LIG A   1      -4.619   0.039 126.977  0.00  0.00    +0.210 HD
ENDBRANCH   4  16
BRANCH   7  18
ATOM     18  O   LIG A   1      -4.623   3.163 131.076  0.00  0.00    -0.431 OA
BRANCH  18  19
ATOM     19  C   LIG A   1      -3.786   4.179 131.428  0.00  0.00    +0.309 C 
ATOM     20  O   LIG A   1      -3.663   4.652 132.551  0.00  0.00    -0.251 OA
BRANCH  19  21
ATOM     21  C   LIG A   1      -2.951   4.575 130.217  0.00  0.00    +0.120 C 
BRANCH  21  22
ATOM     22  C   LIG A   1      -3.014   6.071 129.906  0.00  0.00    +0.008 C 
ATOM     23  C   LIG A   1      -2.323   6.418 128.592  0.00  0.00    +0.004 C 
ENDBRANCH  21  22
ENDBRANCH  19  21
ENDBRANCH  18  19
ENDBRANCH   7  18
BRANCH   9  24
ATOM     24  O   LIG A   1      -6.119   0.165 130.230  0.00  0.00    -0.434 OA
BRANCH  24  25
ATOM     25  C   LIG A   1      -6.356  -1.185 130.226  0.00  0.00    +0.306 C 
ATOM     26  C   LIG A   1      -7.789  -1.501 130.578  0.00  0.00    +0.136 C 
ATOM     27  O   LIG A   1      -5.521  -2.034 129.995  0.00  0.00    -0.251 OA
ENDBRANCH  24  25
ENDBRANCH   9  24
BRANCH  11  28
ATOM     28  O   LIG A   1      -9.070   4.406 129.458  0.00  0.00    -0.457 OA
BRANCH  28  29
ATOM     29  C   LIG A   1      -9.390   5.711 129.226  0.00  0.00    +0.308 C 
ATOM     30  O   LIG A   1      -9.518   6.212 128.116  0.00  0.00    -0.251 OA
BRANCH  29  31
ATOM     31  C   LIG A   1      -9.580   6.436 130.533  0.00  0.00    +0.120 C 
BRANCH  31  32
ATOM     32  C   LIG A   1      -8.437   6.192 131.518  0.00  0.00    +0.008 C 
ATOM     33  C   LIG A   1      -7.188   6.937 131.077  0.00  0.00    +0.004 C 
ENDBRANCH  31  32
ENDBRANCH  29  31
ENDBRANCH  28  29
ENDBRANCH  11  28
BRANCH  14  34
ATOM     34  C   LIG A   1      -7.246  -0.658 126.043  0.00  0.00    +0.034 C 
BRANCH  34  35
ATOM     35  C   LIG A   1      -7.709  -1.799 126.935  0.00  0.00    -0.023 C 
ATOM     36  C   LIG A   1      -8.580  -2.806 126.712  0.00  0.00    -0.055 C 
ATOM     37  C   LIG A   1      -8.884  -3.811 127.804  0.00  0.00    +0.043 C 
BRANCH  36  38
ATOM     38  C   LIG A   1      -9.356  -3.028 125.506  0.00  0.00    -0.005 C 
ATOM     39  C   LIG A   1      -8.886  -3.470 124.334  0.00  0.00    +0.008 C 
ENDBRANCH  36  38
ENDBRANCH  34  35
ENDBRANCH  14  34
TORSDOF 14
ENDMDL
MODEL 5
REMARK VINA RESULT:      -7.0      2.839      7.094
REMARK  Name = NuBBE_47
REMARK  20 active torsions:
REMARK  status: ('A' for Active; 'I' for Inactive)
REMARK    1  A    between atoms: C_1  and  C_2
REMARK    2  A    between atoms: C_5  and  O_7
REMARK    3  A    between atoms: C_10  and  O_12
REMARK    4  A    between atoms: O_12  and  C_13
REMARK    5  A    between atoms: C_13  and  C_14
REMARK    6  A    between atoms: C_14  and  C_15
REMARK    7  A    between atoms: C_15  and  C_16
REMARK    8  A    between atoms: C_19  and  O_21
REMARK    9  A    between atoms: O_21  and  C_22
REMARK   10  A    between atoms: C_22  and  C_23
REMARK   11  A    between atoms: C_26  and  O_28
REMARK   12  A    between atoms: O_28  and  C_29
REMARK   13  A    between atoms: C_29  and  C_30
REMARK   14  A    between atoms: C_30  and  C_31
REMARK   15  A    between atoms: C_31  and  C_32
REMARK   16  A    between atoms: C_37  and  C_38
REMARK   17  A    between atoms: C_37  and  C_39
REMARK   18  A    between atoms: C_39  and  C_40
REMARK   19  A    between atoms: C_41  and  C_42
REMARK   20  A    between atoms: C_41  and  C_44
REMARK                            x       y       z     vdW  Elec       q    Type
REMARK                         _______ _______ _______ _____ _____    ______ ____
ROOT
ATOM      1  C   LIG A   1      -5.355   3.458 124.896  0.00  0.00    +0.008 C 
ATOM      2  C   LIG A   1      -6.181   2.723 125.952  0.00  0.00    -0.005 C 
ATOM      3  C   LIG A   1      -5.232   1.987 126.922  0.00  0.00    +0.036 C 
ATOM      4  C   LIG A   1      -5.351   0.469 126.926  0.00  0.00    +0.131 C 
ATOM      5  C   LIG A   1      -6.821  -0.005 127.221  0.00  0.00    +0.089 C 
ATOM      6  C   LIG A   1      -6.880  -0.131 128.729  0.00  0.00    +0.012 C 
ATOM      7  C   LIG A   1      -6.250  -1.449 129.122  0.00  0.00    +0.343 C 
ATOM      8  O   LIG A   1      -6.280  -2.243 127.919  0.00  0.00    -0.297 OA
ATOM      9  C   LIG A   1      -7.022  -1.522 126.903  0.00  0.00    +0.327 C 
ATOM     10  C   LIG A   1      -7.460   0.755 129.548  0.00  0.00    +0.023 C 
ATOM     11  C   LIG A   1      -8.191   1.956 129.064  0.00  0.00    +0.200 C 
ATOM     12  C   LIG A   1      -8.742   1.760 127.641  0.00  0.00    +0.054 C 
ATOM     13  C   LIG A   1      -7.908   0.958 126.583  0.00  0.00    +0.018 C 
ATOM     14  C   LIG A   1      -7.389   1.879 125.386  0.00  0.00    -0.022 C 
ATOM     15  C   LIG A   1      -8.484   2.898 124.916  0.00  0.00    +0.012 C 
ENDROOT
BRANCH   4  16
ATOM     16  O   LIG A   1      -4.815  -0.066 125.726  0.00  0.00    -0.391 OA
ATOM     17  H   LIG A   1      -3.851   0.073 125.728  0.00  0.00    +0.210 HD
ENDBRANCH   4  16
BRANCH   7  18
ATOM     18  O   LIG A   1      -7.020  -2.042 130.172  0.00  0.00    -0.431 OA
BRANCH  18  19
ATOM     19  C   LIG A   1      -6.322  -2.353 131.301  0.00  0.00    +0.309 C 
ATOM     20  O   LIG A   1      -6.600  -1.995 132.439  0.00  0.00    -0.251 OA
BRANCH  19  21
ATOM     21  C   LIG A   1      -5.187  -3.301 130.936  0.00  0.00    +0.120 C 
BRANCH  21  22
ATOM     22  C   LIG A   1      -5.572  -4.777 131.060  0.00  0.00    +0.008 C 
ATOM     23  C   LIG A   1      -5.312  -5.327 132.457  0.00  0.00    +0.004 C 
ENDBRANCH  21  22
ENDBRANCH  19  21
ENDBRANCH  18  19
ENDBRANCH   7  18
BRANCH   9  24
ATOM     24  O   LIG A   1      -8.383  -1.980 126.997  0.00  0.00    -0.434 OA
BRANCH  24  25
ATOM     25  C   LIG A   1      -8.506  -3.329 126.791  0.00  0.00    +0.306 C 
ATOM     26  C   LIG A   1      -9.032  -4.037 128.016  0.00  0.00    +0.136 C 
ATOM     27  O   LIG A   1      -8.207  -3.903 125.765  0.00  0.00    -0.251 OA
ENDBRANCH  24  25
ENDBRANCH   9  24
BRANCH  11  28
ATOM     28  O   LIG A   1      -9.337   2.259 129.898  0.00  0.00    -0.457 OA
BRANCH  28  29
ATOM     29  C   LIG A   1      -9.144   3.135 130.924  0.00  0.00    +0.308 C 
ATOM     30  O   LIG A   1      -8.636   4.244 130.808  0.00  0.00    -0.251 OA
BRANCH  29  31
ATOM     31  C   LIG A   1      -9.662   2.547 132.210  0.00  0.00    +0.120 C 
BRANCH  31  32
ATOM     32  C   LIG A   1      -8.870   3.005 133.435  0.00  0.00    +0.008 C 
ATOM     33  C   LIG A   1      -7.482   2.386 133.431  0.00  0.00    +0.004 C 
ENDBRANCH  31  32
ENDBRANCH  29  31
ENDBRANCH  28  29
ENDBRANCH  11  28
BRANCH  14  34
ATOM     34  C   LIG A   1      -7.066   1.046 124.067  0.00  0.00    +0.034 C 
BRANCH  34  35
ATOM     35  C   LIG A   1      -8.004  -0.100 123.720  0.00  0.00    -0.023 C 
ATOM     36  C   LIG A   1      -7.764  -1.320 123.196  0.00  0.00    -0.055 C 
ATOM     37  C   LIG A   1      -8.908  -2.275 122.922  0.00  0.00    +0.043 C 
BRANCH  36  38
ATOM     38  C   LIG A   1      -6.476  -1.844 122.780  0.00  0.00    -0.005 C 
ATOM     39  C   LIG A   1      -5.695  -2.670 123.485  0.00  0.00    +0.008 C 
ENDBRANCH  36  38
ENDBRANCH  34  35
ENDBRANCH  14  34
TORSDOF 14
ENDMDL
MODEL 6
REMARK VINA RESULT:      -7.0      2.628      7.282
REMARK  Name = NuBBE_47
REMARK  20 active torsions:
REMARK  status: ('A' for Active; 'I' for Inactive)
REMARK    1  A    between atoms: C_1  and  C_2
REMARK    2  A    between atoms: C_5  and  O_7
REMARK    3  A    between atoms: C_10  and  O_12
REMARK    4  A    between atoms: O_12  and  C_13
REMARK    5  A    between atoms: C_13  and  C_14
REMARK    6  A    between atoms: C_14  and  C_15
REMARK    7  A    between atoms: C_15  and  C_16
REMARK    8  A    between atoms: C_19  and  O_21
REMARK    9  A    between atoms: O_21  and  C_22
REMARK   10  A    between atoms: C_22  and  C_23
REMARK   11  A    between atoms: C_26  and  O_28
REMARK   12  A    between atoms: O_28  and  C_29
REMARK   13  A    between atoms: C_29  and  C_30
REMARK   14  A    between atoms: C_30  and  C_31
REMARK   15  A    between atoms: C_31  and  C_32
REMARK   16  A    between atoms: C_37  and  C_38
REMARK   17  A    between atoms: C_37  and  C_39
REMARK   18  A    between atoms: C_39  and  C_40
REMARK   19  A    between atoms: C_41  and  C_42
REMARK   20  A    between atoms: C_41  and  C_44
REMARK                            x       y       z     vdW  Elec       q    Type
REMARK                         _______ _______ _______ _____ _____    ______ ____
ROOT
ATOM      1  C   LIG A   1      -9.102  -2.452 123.738  0.00  0.00    +0.008 C 
ATOM      2  C   LIG A   1      -8.282  -1.804 124.854  0.00  0.00    -0.005 C 
ATOM      3  C   LIG A   1      -9.236  -1.278 125.949  0.00  0.00    +0.036 C 
ATOM      4  C   LIG A   1      -9.224   0.231 126.156  0.00  0.00    +0.131 C 
ATOM      5  C   LIG A   1      -7.779   0.771 126.460  0.00  0.00    +0.089 C 
ATOM      6  C   LIG A   1      -7.660   0.699 127.968  0.00  0.00    +0.012 C 
ATOM      7  C   LIG A   1      -8.362   1.900 128.560  0.00  0.00    +0.343 C 
ATOM      8  O   LIG A   1      -8.443   2.848 127.476  0.00  0.00    -0.297 OA
ATOM      9  C   LIG A   1      -7.700   2.327 126.346  0.00  0.00    +0.327 C 
ATOM     10  C   LIG A   1      -6.982  -0.242 128.637  0.00  0.00    +0.023 C 
ATOM     11  C   LIG A   1      -6.192  -1.309 127.969  0.00  0.00    +0.200 C 
ATOM     12  C   LIG A   1      -5.722  -0.883 126.566  0.00  0.00    +0.054 C 
ATOM     13  C   LIG A   1      -6.657  -0.012 125.658  0.00  0.00    +0.018 C 
ATOM     14  C   LIG A   1      -7.165  -0.802 124.366  0.00  0.00    -0.022 C 
ATOM     15  C   LIG A   1      -6.023  -1.664 123.722  0.00  0.00    +0.012 C 
ENDROOT
BRANCH   4  16
ATOM     16  O   LIG A   1      -9.851   0.879 125.061  0.00  0.00    -0.391 OA
ATOM     17  H   LIG A   1     -10.327   0.211 124.536  0.00  0.00    +0.210 HD
ENDBRANCH   4  16
BRANCH   7  18
ATOM     18  O   LIG A   1      -7.590   2.404 129.653  0.00  0.00    -0.431 OA
BRANCH  18  19
ATOM     19  C   LIG A   1      -8.292   3.102 130.590  0.00  0.00    +0.309 C 
ATOM     20  O   LIG A   1      -7.912   4.113 131.167  0.00  0.00    -0.251 OA
BRANCH  19  21
ATOM     21  C   LIG A   1      -9.673   2.477 130.740  0.00  0.00    +0.120 C 
BRANCH  21  22
ATOM     22  C   LIG A   1      -9.807   1.606 131.990  0.00  0.00    +0.008 C 
ATOM     23  C   LIG A   1      -9.099   0.265 131.839  0.00  0.00    +0.004 C 
ENDBRANCH  21  22
ENDBRANCH  19  21
ENDBRANCH  18  19
ENDBRANCH   7  18
BRANCH   9  24
ATOM     24  O   LIG A   1      -6.372   2.871 126.453  0.00  0.00    -0.434 OA
BRANCH  24  25
ATOM     25  C   LIG A   1      -6.363   4.237 126.558  0.00  0.00    +0.306 C 
ATOM     26  C   LIG A   1      -7.097   4.891 125.412  0.00  0.00    +0.136 C 
ATOM     27  O   LIG A   1      -5.814   4.861 127.442  0.00  0.00    -0.251 OA
ENDBRANCH  24  25
ENDBRANCH   9  24
BRANCH  11  28
ATOM     28  O   LIG A   1      -4.990  -1.633 128.712  0.00  0.00    -0.457 OA
BRANCH  28  29
ATOM     29  C   LIG A   1      -5.153  -2.099 129.983  0.00  0.00    +0.308 C 
ATOM     30  O   LIG A   1      -4.722  -1.548 130.988  0.00  0.00    -0.251 OA
BRANCH  29  31
ATOM     31  C   LIG A   1      -5.952  -3.375 129.965  0.00  0.00    +0.120 C 
BRANCH  31  32
ATOM     32  C   LIG A   1      -5.173  -4.571 130.512  0.00  0.00    +0.008 C 
ATOM     33  C   LIG A   1      -5.543  -4.828 131.964  0.00  0.00    +0.004 C 
ENDBRANCH  31  32
ENDBRANCH  29  31
ENDBRANCH  28  29
ENDBRANCH  11  28
BRANCH  14  34
ATOM     34  C   LIG A   1      -7.605   0.173 123.185  0.00  0.00    +0.034 C 
BRANCH  34  35
ATOM     35  C   LIG A   1      -6.750   1.408 122.948  0.00  0.00    -0.023 C 
ATOM     36  C   LIG A   1      -7.068   2.633 122.479  0.00  0.00    -0.055 C 
ATOM     37  C   LIG A   1      -5.996   3.691 122.314  0.00  0.00    +0.043 C 
BRANCH  36  38
ATOM     38  C   LIG A   1      -8.374   3.076 122.029  0.00  0.00    -0.005 C 
ATOM     39  C   LIG A   1      -8.640   3.716 120.885  0.00  0.00    +0.008 C 
ENDBRANCH  36  38
ENDBRANCH  34  35
ENDBRANCH  14  34
TORSDOF 14
ENDMDL
MODEL 7
REMARK VINA RESULT:      -7.0      2.420      7.489
REMARK  Name = NuBBE_47
REMARK  20 active torsions:
REMARK  status: ('A' for Active; 'I' for Inactive)
REMARK    1  A    between atoms: C_1  and  C_2
REMARK    2  A    between atoms: C_5  and  O_7
REMARK    3  A    between atoms: C_10  and  O_12
REMARK    4  A    between atoms: O_12  and  C_13
REMARK    5  A    between atoms: C_13  and  C_14
REMARK    6  A    between atoms: C_14  and  C_15
REMARK    7  A    between atoms: C_15  and  C_16
REMARK    8  A    between atoms: C_19  and  O_21
REMARK    9  A    between atoms: O_21  and  C_22
REMARK   10  A    between atoms: C_22  and  C_23
REMARK   11  A    between atoms: C_26  and  O_28
REMARK   12  A    between atoms: O_28  and  C_29
REMARK   13  A    between atoms: C_29  and  C_30
REMARK   14  A    between atoms: C_30  and  C_31
REMARK   15  A    between atoms: C_31  and  C_32
REMARK   16  A    between atoms: C_37  and  C_38
REMARK   17  A    between atoms: C_37  and  C_39
REMARK   18  A    between atoms: C_39  and  C_40
REMARK   19  A    between atoms: C_41  and  C_42
REMARK   20  A    between atoms: C_41  and  C_44
REMARK                            x       y       z     vdW  Elec       q    Type
REMARK                         _______ _______ _______ _____ _____    ______ ____
ROOT
ATOM      1  C   LIG A   1      -4.741   3.797 125.512  0.00  0.00    +0.008 C 
ATOM      2  C   LIG A   1      -5.786   3.036 126.329  0.00  0.00    -0.005 C 
ATOM      3  C   LIG A   1      -5.087   1.937 127.157  0.00  0.00    +0.036 C 
ATOM      4  C   LIG A   1      -5.484   0.508 126.810  0.00  0.00    +0.131 C 
ATOM      5  C   LIG A   1      -7.037   0.288 126.912  0.00  0.00    +0.089 C 
ATOM      6  C   LIG A   1      -7.264  -0.140 128.347  0.00  0.00    +0.012 C 
ATOM      7  C   LIG A   1      -6.929  -1.610 128.465  0.00  0.00    +0.343 C 
ATOM      8  O   LIG A   1      -6.988  -2.109 127.113  0.00  0.00    -0.297 OA
ATOM      9  C   LIG A   1      -7.483  -1.056 126.249  0.00  0.00    +0.327 C 
ATOM     10  C   LIG A   1      -7.747   0.651 129.312  0.00  0.00    +0.023 C 
ATOM     11  C   LIG A   1      -8.194   2.049 129.075  0.00  0.00    +0.200 C 
ATOM     12  C   LIG A   1      -8.631   2.273 127.617  0.00  0.00    +0.054 C 
ATOM     13  C   LIG A   1      -7.862   1.562 126.451  0.00  0.00    +0.018 C 
ATOM     14  C   LIG A   1      -7.068   2.592 125.523  0.00  0.00    -0.022 C 
ATOM     15  C   LIG A   1      -7.906   3.886 125.237  0.00  0.00    +0.012 C 
ENDROOT
BRANCH   4  16
ATOM     16  O   LIG A   1      -4.942   0.141 125.551  0.00  0.00    -0.391 OA
ATOM     17  H   LIG A   1      -5.676  -0.021 124.932  0.00  0.00    +0.210 HD
ENDBRANCH   4  16
BRANCH   7  18
ATOM     18  O   LIG A   1      -7.892  -2.244 129.311  0.00  0.00    -0.431 OA
BRANCH  18  19
ATOM     19  C   LIG A   1      -7.384  -2.840 130.426  0.00  0.00    +0.309 C 
ATOM     20  O   LIG A   1      -7.619  -2.517 131.584  0.00  0.00    -0.251 OA
BRANCH  19  21
ATOM     21  C   LIG A   1      -6.546  -4.042 130.008  0.00  0.00    +0.120 C 
BRANCH  21  22
ATOM     22  C   LIG A   1      -5.238  -4.166 130.793  0.00  0.00    +0.008 C 
ATOM     23  C   LIG A   1      -5.356  -5.136 131.962  0.00  0.00    +0.004 C 
ENDBRANCH  21  22
ENDBRANCH  19  21
ENDBRANCH  18  19
ENDBRANCH   7  18
BRANCH   9  24
ATOM     24  O   LIG A   1      -8.907  -1.241 126.164  0.00  0.00    -0.434 OA
BRANCH  24  25
ATOM     25  C   LIG A   1      -9.258  -2.359 125.454  0.00  0.00    +0.306 C 
ATOM     26  C   LIG A   1      -8.531  -2.432 124.133  0.00  0.00    +0.136 C 
ATOM     27  O   LIG A   1     -10.071  -3.183 125.816  0.00  0.00    -0.251 OA
ENDBRANCH  24  25
ENDBRANCH   9  24
BRANCH  11  28
ATOM     28  O   LIG A   1      -9.340   2.393 129.894  0.00  0.00    -0.457 OA
BRANCH  28  29
ATOM     29  C   LIG A   1      -9.448   3.691 130.295  0.00  0.00    +0.308 C 
ATOM     30  O   LIG A   1     -10.122   4.543 129.728  0.00  0.00    -0.251 OA
BRANCH  29  31
ATOM     31  C   LIG A   1      -8.635   3.915 131.543  0.00  0.00    +0.120 C 
BRANCH  31  32
ATOM     32  C   LIG A   1      -9.093   3.045 132.714  0.00  0.00    +0.008 C 
ATOM     33  C   LIG A   1      -8.987   3.815 134.020  0.00  0.00    +0.004 C 
ENDBRANCH  31  32
ENDBRANCH  29  31
ENDBRANCH  28  29
ENDBRANCH  11  28
BRANCH  14  34
ATOM     34  C   LIG A   1      -6.779   2.009 124.068  0.00  0.00    +0.034 C 
BRANCH  34  35
ATOM     35  C   LIG A   1      -7.543   2.625 122.907  0.00  0.00    -0.023 C 
ATOM     36  C   LIG A   1      -7.113   3.213 121.771  0.00  0.00    -0.055 C 
ATOM     37  C   LIG A   1      -8.108   3.776 120.777  0.00  0.00    +0.043 C 
BRANCH  36  38
ATOM     38  C   LIG A   1      -5.734   3.442 121.384  0.00  0.00    -0.005 C 
ATOM     39  C   LIG A   1      -4.965   4.467 121.770  0.00  0.00    +0.008 C 
ENDBRANCH  36  38
ENDBRANCH  34  35
ENDBRANCH  14  34
TORSDOF 14
ENDMDL
MODEL 8
REMARK VINA RESULT:      -7.0      3.285      7.118
REMARK  Name = NuBBE_47
REMARK  20 active torsions:
REMARK  status: ('A' for Active; 'I' for Inactive)
REMARK    1  A    between atoms: C_1  and  C_2
REMARK    2  A    between atoms: C_5  and  O_7
REMARK    3  A    between atoms: C_10  and  O_12
REMARK    4  A    between atoms: O_12  and  C_13
REMARK    5  A    between atoms: C_13  and  C_14
REMARK    6  A    between atoms: C_14  and  C_15
REMARK    7  A    between atoms: C_15  and  C_16
REMARK    8  A    between atoms: C_19  and  O_21
REMARK    9  A    between atoms: O_21  and  C_22
REMARK   10  A    between atoms: C_22  and  C_23
REMARK   11  A    between atoms: C_26  and  O_28
REMARK   12  A    between atoms: O_28  and  C_29
REMARK   13  A    between atoms: C_29  and  C_30
REMARK   14  A    between atoms: C_30  and  C_31
REMARK   15  A    between atoms: C_31  and  C_32
REMARK   16  A    between atoms: C_37  and  C_38
REMARK   17  A    between atoms: C_37  and  C_39
REMARK   18  A    between atoms: C_39  and  C_40
REMARK   19  A    between atoms: C_41  and  C_42
REMARK   20  A    between atoms: C_41  and  C_44
REMARK                            x       y       z     vdW  Elec       q    Type
REMARK                         _______ _______ _______ _____ _____    ______ ____
ROOT
ATOM      1  C   LIG A   1      -6.688   1.244 124.364  0.00  0.00    +0.008 C 
ATOM      2  C   LIG A   1      -7.073   1.516 125.818  0.00  0.00    -0.005 C 
ATOM      3  C   LIG A   1      -5.815   1.935 126.609  0.00  0.00    +0.036 C 
ATOM      4  C   LIG A   1      -5.407   0.990 127.733  0.00  0.00    +0.131 C 
ATOM      5  C   LIG A   1      -6.576   0.753 128.756  0.00  0.00    +0.089 C 
ATOM      6  C   LIG A   1      -6.398   1.845 129.791  0.00  0.00    +0.012 C 
ATOM      7  C   LIG A   1      -5.312   1.418 130.753  0.00  0.00    +0.343 C 
ATOM      8  O   LIG A   1      -5.220  -0.013 130.589  0.00  0.00    -0.297 OA
ATOM      9  C   LIG A   1      -6.285  -0.450 129.709  0.00  0.00    +0.327 C 
ATOM     10  C   LIG A   1      -7.138   2.958 129.862  0.00  0.00    +0.023 C 
ATOM     11  C   LIG A   1      -8.290   3.231 128.963  0.00  0.00    +0.200 C 
ATOM     12  C   LIG A   1      -8.915   1.934 128.419  0.00  0.00    +0.054 C 
ATOM     13  C   LIG A   1      -7.998   0.716 128.054  0.00  0.00    +0.018 C 
ATOM     14  C   LIG A   1      -7.980   0.411 126.486  0.00  0.00    -0.022 C 
ATOM     15  C   LIG A   1      -9.407   0.539 125.850  0.00  0.00    +0.012 C 
ENDROOT
BRANCH   4  16
ATOM     16  O   LIG A   1      -4.875  -0.209 127.193  0.00  0.00    -0.391 OA
ATOM     17  H   LIG A   1      -3.966  -0.037 126.889  0.00  0.00    +0.210 HD
ENDBRANCH   4  16
BRANCH   7  18
ATOM     18  O   LIG A   1      -5.693   1.780 132.082  0.00  0.00    -0.431 OA
BRANCH  18  19
ATOM     19  C   LIG A   1      -4.937   2.755 132.660  0.00  0.00    +0.309 C 
ATOM     20  O   LIG A   1      -3.735   2.924 132.495  0.00  0.00    -0.251 OA
BRANCH  19  21
ATOM     21  C   LIG A   1      -5.843   3.668 133.475  0.00  0.00    +0.120 C 
BRANCH  21  22
ATOM     22  C   LIG A   1      -7.027   2.934 134.107  0.00  0.00    +0.008 C 
ATOM     23  C   LIG A   1      -8.363   3.577 133.751  0.00  0.00    +0.004 C 
ENDBRANCH  21  22
ENDBRANCH  19  21
ENDBRANCH  18  19
ENDBRANCH   7  18
BRANCH   9  24
ATOM     24  O   LIG A   1      -7.384  -0.822 130.561  0.00  0.00    -0.434 OA
BRANCH  24  25
ATOM     25  C   LIG A   1      -7.530  -2.179 130.679  0.00  0.00    +0.306 C 
ATOM     26  C   LIG A   1      -8.089  -2.793 129.418  0.00  0.00    +0.136 C 
ATOM     27  O   LIG A   1      -7.273  -2.819 131.677  0.00  0.00    -0.251 OA
ENDBRANCH  24  25
ENDBRANCH   9  24
BRANCH  11  28
ATOM     28  O   LIG A   1      -9.356   3.930 129.653  0.00  0.00    -0.457 OA
BRANCH  28  29
ATOM     29  C   LIG A   1      -9.389   5.288 129.532  0.00  0.00    +0.308 C 
ATOM     30  O   LIG A   1      -9.535   5.890 128.475  0.00  0.00    -0.251 OA
BRANCH  29  31
ATOM     31  C   LIG A   1      -9.238   5.931 130.885  0.00  0.00    +0.120 C 
BRANCH  31  32
ATOM     32  C   LIG A   1      -8.202   7.055 130.896  0.00  0.00    +0.008 C 
ATOM     33  C   LIG A   1      -6.867   6.543 131.412  0.00  0.00    +0.004 C 
ENDBRANCH  31  32
ENDBRANCH  29  31
ENDBRANCH  28  29
ENDBRANCH  11  28
BRANCH  14  34
ATOM     34  C   LIG A   1      -7.561  -1.091 126.159  0.00  0.00    +0.034 C 
BRANCH  34  35
ATOM     35  C   LIG A   1      -8.495  -1.896 125.269  0.00  0.00    -0.023 C 
ATOM     36  C   LIG A   1      -8.342  -2.365 124.013  0.00  0.00    -0.055 C 
ATOM     37  C   LIG A   1      -9.463  -3.129 123.339  0.00  0.00    +0.043 C 
BRANCH  36  38
ATOM     38  C   LIG A   1      -7.192  -2.169 123.150  0.00  0.00    -0.005 C 
ATOM     39  C   LIG A   1      -5.948  -2.604 123.381  0.00  0.00    +0.008 C 
ENDBRANCH  36  38
ENDBRANCH  34  35
ENDBRANCH  14  34
TORSDOF 14
ENDMDL
MODEL 9
REMARK VINA RESULT:      -7.0      5.671      7.427
REMARK  Name = NuBBE_47
REMARK  20 active torsions:
REMARK  status: ('A' for Active; 'I' for Inactive)
REMARK    1  A    between atoms: C_1  and  C_2
REMARK    2  A    between atoms: C_5  and  O_7
REMARK    3  A    between atoms: C_10  and  O_12
REMARK    4  A    between atoms: O_12  and  C_13
REMARK    5  A    between atoms: C_13  and  C_14
REMARK    6  A    between atoms: C_14  and  C_15
REMARK    7  A    between atoms: C_15  and  C_16
REMARK    8  A    between atoms: C_19  and  O_21
REMARK    9  A    between atoms: O_21  and  C_22
REMARK   10  A    between atoms: C_22  and  C_23
REMARK   11  A    between atoms: C_26  and  O_28
REMARK   12  A    between atoms: O_28  and  C_29
REMARK   13  A    between atoms: C_29  and  C_30
REMARK   14  A    between atoms: C_30  and  C_31
REMARK   15  A    between atoms: C_31  and  C_32
REMARK   16  A    between atoms: C_37  and  C_38
REMARK   17  A    between atoms: C_37  and  C_39
REMARK   18  A    between atoms: C_39  and  C_40
REMARK   19  A    between atoms: C_41  and  C_42
REMARK   20  A    between atoms: C_41  and  C_44
REMARK                            x       y       z     vdW  Elec       q    Type
REMARK                         _______ _______ _______ _____ _____    ______ ____
ROOT
ATOM      1  C   LIG A   1      -6.248   4.756 136.003  0.00  0.00    +0.008 C 
ATOM      2  C   LIG A   1      -6.313   5.122 134.519  0.00  0.00    -0.005 C 
ATOM      3  C   LIG A   1      -7.491   6.091 134.284  0.00  0.00    +0.036 C 
ATOM      4  C   LIG A   1      -8.599   5.565 133.381  0.00  0.00    +0.131 C 
ATOM      5  C   LIG A   1      -8.049   5.109 131.981  0.00  0.00    +0.089 C 
ATOM      6  C   LIG A   1      -8.126   6.354 131.122  0.00  0.00    +0.012 C 
ATOM      7  C   LIG A   1      -9.551   6.516 130.642  0.00  0.00    +0.343 C 
ATOM      8  O   LIG A   1     -10.139   5.207 130.792  0.00  0.00    -0.297 OA
ATOM      9  C   LIG A   1      -9.102   4.273 131.183  0.00  0.00    +0.327 C 
ATOM     10  C   LIG A   1      -7.080   7.125 130.800  0.00  0.00    +0.023 C 
ATOM     11  C   LIG A   1      -5.682   6.809 131.193  0.00  0.00    +0.200 C 
ATOM     12  C   LIG A   1      -5.475   5.302 131.421  0.00  0.00    +0.054 C 
ATOM     13  C   LIG A   1      -6.611   4.446 132.080  0.00  0.00    +0.018 C 
ATOM     14  C   LIG A   1      -6.208   3.901 133.526  0.00  0.00    -0.022 C 
ATOM     15  C   LIG A   1      -4.722   3.399 133.567  0.00  0.00    +0.012 C 
ENDROOT
BRANCH   4  16
ATOM     16  O   LIG A   1      -9.340   4.559 134.053  0.00  0.00    -0.391 OA
ATOM     17  H   LIG A   1     -10.246   4.885 134.199  0.00  0.00    +0.210 HD
ENDBRANCH   4  16
BRANCH   7  18
ATOM     18  O   LIG A   1      -9.541   6.943 129.278  0.00  0.00    -0.431 OA
BRANCH  18  19
ATOM     19  C   LIG A   1     -10.769   7.109 128.710  0.00  0.00    +0.309 C 
ATOM     20  O   LIG A   1     -11.200   6.500 127.739  0.00  0.00    -0.251 OA
BRANCH  19  21
ATOM     21  C   LIG A   1     -11.565   8.111 129.537  0.00  0.00    +0.120 C 
BRANCH  21  22
ATOM     22  C   LIG A   1     -12.896   7.551 130.042  0.00  0.00    +0.008 C 
ATOM     23  C   LIG A   1     -13.013   7.617 131.560  0.00  0.00    +0.004 C 
ENDBRANCH  21  22
ENDBRANCH  19  21
ENDBRANCH  18  19
ENDBRANCH   7  18
BRANCH   9  24
ATOM     24  O   LIG A   1      -8.606   3.688 129.965  0.00  0.00    -0.434 OA
BRANCH  24  25
ATOM     25  C   LIG A   1      -8.845   2.341 129.885  0.00  0.00    +0.306 C 
ATOM     26  C   LIG A   1      -9.385   1.792 131.183  0.00  0.00    +0.136 C 
ATOM     27  O   LIG A   1      -8.628   1.656 128.908  0.00  0.00    -0.251 OA
ENDBRANCH  24  25
ENDBRANCH   9  24
BRANCH  11  28
ATOM     28  O   LIG A   1      -4.735   7.191 130.163  0.00  0.00    -0.457 OA
BRANCH  28  29
ATOM     29  C   LIG A   1      -3.852   8.183 130.470  0.00  0.00    +0.308 C 
ATOM     30  O   LIG A   1      -3.866   9.306 129.981  0.00  0.00    -0.251 OA
BRANCH  29  31
ATOM     31  C   LIG A   1      -2.872   7.699 131.507  0.00  0.00    +0.120 C 
BRANCH  31  32
ATOM     32  C   LIG A   1      -1.973   6.574 130.994  0.00  0.00    +0.008 C 
ATOM     33  C   LIG A   1      -1.418   5.767 132.157  0.00  0.00    +0.004 C 
ENDBRANCH  31  32
ENDBRANCH  29  31
ENDBRANCH  28  29
ENDBRANCH  11  28
BRANCH  14  34
ATOM     34  C   LIG A   1      -7.046   2.614 133.951  0.00  0.00    +0.034 C 
BRANCH  34  35
ATOM     35  C   LIG A   1      -6.275   1.320 134.163  0.00  0.00    -0.023 C 
ATOM     36  C   LIG A   1      -5.897   0.357 133.296  0.00  0.00    -0.055 C 
ATOM     37  C   LIG A   1      -5.147  -0.864 133.788  0.00  0.00    +0.043 C 
BRANCH  36  38
ATOM     38  C   LIG A   1      -6.188   0.308 131.876  0.00  0.00    -0.005 C 
ATOM     39  C   LIG A   1      -5.503   0.928 130.908  0.00  0.00    +0.008 C 
ENDBRANCH  36  38
ENDBRANCH  34  35
ENDBRANCH  14  34
TORSDOF 14
ENDMDL
