MODEL 1
REMARK VINA RESULT:     -10.0      0.000      0.000
REMARK  Name = NuBBE_1231
REMARK  13 active torsions:
REMARK  status: ('A' for Active; 'I' for Inactive)
REMARK    1  A    between atoms: C_1  and  C_2
REMARK    2  A    between atoms: C_6  and  C_29
REMARK    3  A    between atoms: C_7  and  C_8
REMARK    4  A    between atoms: C_9  and  C_11
REMARK    5  A    between atoms: C_11  and  C_13
REMARK    6  A    between atoms: C_11  and  C_14
REMARK    7  A    between atoms: C_15  and  O_17
REMARK    8  A    between atoms: C_18  and  O_20
REMARK    9  A    between atoms: C_21  and  C_22
REMARK   10  A    between atoms: C_21  and  C_23
REMARK   11  A    between atoms: C_34  and  C_35
REMARK   12  A    between atoms: C_34  and  C_41
REMARK   13  A    between atoms: C_36  and  O_40
REMARK                            x       y       z     vdW  Elec       q    Type
REMARK                         _______ _______ _______ _____ _____    ______ ____
ROOT
ATOM      1  C   LIG A   1      -2.392   4.370 132.308  0.00  0.00    +0.012 C 
ATOM      2  C   LIG A   1      -3.311   5.302 131.443  0.00  0.00    -0.022 C 
ATOM      3  C   LIG A   1      -4.797   4.742 131.650  0.00  0.00    +0.021 C 
ATOM      4  C   LIG A   1      -5.297   3.745 130.589  0.00  0.00    -0.063 C 
ATOM      5  C   LIG A   1      -6.708   3.121 130.842  0.00  0.00    -0.005 C 
ATOM      6  C   LIG A   1      -7.793   4.215 131.292  0.00  0.00    -0.020 C 
ATOM      7  C   LIG A   1      -8.278   4.010 132.735  0.00  0.00    +0.012 C 
ATOM      8  C   LIG A   1      -8.914   4.242 130.165  0.00  0.00    +0.001 C 
ATOM      9  C   LIG A   1      -8.236   3.537 128.979  0.00  0.00    +0.005 C 
ATOM     10  C   LIG A   1      -7.380   2.462 129.607  0.00  0.00    +0.012 C 
ATOM     11  C   LIG A   1      -7.157   5.637 131.247  0.00  0.00    +0.008 C 
ATOM     12  C   LIG A   1      -5.877   5.763 132.055  0.00  0.00    +0.009 C 
ATOM     13  C   LIG A   1      -6.483   1.971 131.858  0.00  0.00    +0.016 C 
ATOM     14  C   LIG A   1      -4.493   3.359 129.582  0.00  0.00    -0.026 C 
ATOM     15  C   LIG A   1      -3.095   3.831 129.365  0.00  0.00    +0.031 C 
ATOM     16  C   LIG A   1      -2.803   5.219 129.955  0.00  0.00    +0.007 C 
ATOM     17  C   LIG A   1      -3.159   6.453 129.017  0.00  0.00    -0.005 C 
ATOM     18  C   LIG A   1      -3.876   6.072 127.697  0.00  0.00    +0.014 C 
ATOM     19  C   LIG A   1      -4.045   7.482 129.751  0.00  0.00    +0.120 C 
ATOM     20  C   LIG A   1      -3.492   7.895 131.109  0.00  0.00    +0.032 C 
ATOM     21  C   LIG A   1      -3.047   6.731 131.990  0.00  0.00    +0.010 C 
ATOM     22  C   LIG A   1      -1.824   7.125 128.589  0.00  0.00    +0.014 C 
ENDROOT
BRANCH   8  23
ATOM     23  C   LIG A   1     -10.401   3.773 130.353  0.00  0.00    +0.021 C 
ATOM     24  C   LIG A   1     -10.643   2.714 131.431  0.00  0.00    +0.010 C 
BRANCH  23  25
ATOM     25  C   LIG A   1     -11.401   4.956 130.411  0.00  0.00    +0.153 C 
ATOM     26  C   LIG A   1     -10.964   6.136 131.290  0.00  0.00    +0.175 C 
ATOM     27  C   LIG A   1     -11.922   7.227 130.824  0.00  0.00    +0.177 C 
ATOM     28  C   LIG A   1     -12.079   6.909 129.320  0.00  0.00    +0.093 C 
ATOM     29  C   LIG A   1     -11.157   7.775 128.462  0.00  0.00    +0.044 C 
ATOM     30  C   LIG A   1     -13.518   7.003 128.813  0.00  0.00    +0.044 C 
ATOM     31  O   LIG A   1     -11.631   5.546 129.131  0.00  0.00    -0.365 OA
BRANCH  26  32
ATOM     32  O   LIG A   1     -11.082   5.882 132.684  0.00  0.00    -0.387 OA
ATOM     33  H   LIG A   1     -10.946   4.924 132.801  0.00  0.00    +0.210 HD
ENDBRANCH  26  32
BRANCH  27  34
ATOM     34  O   LIG A   1     -13.151   7.104 131.554  0.00  0.00    -0.386 OA
ATOM     35  H   LIG A   1     -13.401   8.010 131.814  0.00  0.00    +0.210 HD
ENDBRANCH  27  34
ENDBRANCH  23  25
ENDBRANCH   8  23
BRANCH  19  36
ATOM     36  O   LIG A   1      -4.224   8.664 128.965  0.00  0.00    -0.391 OA
ATOM     37  H   LIG A   1      -4.185   8.398 128.030  0.00  0.00    +0.210 HD
ENDBRANCH  19  36
TORSDOF 5
ENDMDL
MODEL 2
REMARK VINA RESULT:      -9.1      4.972      7.592
REMARK  Name = NuBBE_1231
REMARK  13 active torsions:
REMARK  status: ('A' for Active; 'I' for Inactive)
REMARK    1  A    between atoms: C_1  and  C_2
REMARK    2  A    between atoms: C_6  and  C_29
REMARK    3  A    between atoms: C_7  and  C_8
REMARK    4  A    between atoms: C_9  and  C_11
REMARK    5  A    between atoms: C_11  and  C_13
REMARK    6  A    between atoms: C_11  and  C_14
REMARK    7  A    between atoms: C_15  and  O_17
REMARK    8  A    between atoms: C_18  and  O_20
REMARK    9  A    between atoms: C_21  and  C_22
REMARK   10  A    between atoms: C_21  and  C_23
REMARK   11  A    between atoms: C_34  and  C_35
REMARK   12  A    between atoms: C_34  and  C_41
REMARK   13  A    between atoms: C_36  and  O_40
REMARK                            x       y       z     vdW  Elec       q    Type
REMARK                         _______ _______ _______ _____ _____    ______ ____
ROOT
ATOM      1  C   LIG A   1      -5.299   2.753 133.505  0.00  0.00    +0.012 C 
ATOM      2  C   LIG A   1      -6.626   2.710 132.668  0.00  0.00    -0.022 C 
ATOM      3  C   LIG A   1      -6.521   1.383 131.778  0.00  0.00    +0.021 C 
ATOM      4  C   LIG A   1      -5.966   1.565 130.354  0.00  0.00    -0.063 C 
ATOM      5  C   LIG A   1      -5.771   0.258 129.519  0.00  0.00    -0.005 C 
ATOM      6  C   LIG A   1      -7.031  -0.731 129.621  0.00  0.00    -0.020 C 
ATOM      7  C   LIG A   1      -6.696  -2.045 130.344  0.00  0.00    +0.012 C 
ATOM      8  C   LIG A   1      -7.631  -0.864 128.155  0.00  0.00    +0.001 C 
ATOM      9  C   LIG A   1      -7.009   0.330 127.411  0.00  0.00    +0.005 C 
ATOM     10  C   LIG A   1      -5.618   0.460 127.987  0.00  0.00    +0.012 C 
ATOM     11  C   LIG A   1      -8.165  -0.057 130.450  0.00  0.00    +0.008 C 
ATOM     12  C   LIG A   1      -7.721   0.417 131.824  0.00  0.00    +0.009 C 
ATOM     13  C   LIG A   1      -4.426  -0.348 129.996  0.00  0.00    +0.016 C 
ATOM     14  C   LIG A   1      -5.565   2.776 129.928  0.00  0.00    -0.026 C 
ATOM     15  C   LIG A   1      -5.616   4.034 130.729  0.00  0.00    +0.031 C 
ATOM     16  C   LIG A   1      -6.695   4.036 131.822  0.00  0.00    +0.007 C 
ATOM     17  C   LIG A   1      -8.142   4.503 131.357  0.00  0.00    -0.005 C 
ATOM     18  C   LIG A   1      -8.280   4.756 129.835  0.00  0.00    +0.014 C 
ATOM     19  C   LIG A   1      -9.222   3.477 131.761  0.00  0.00    +0.120 C 
ATOM     20  C   LIG A   1      -9.158   3.079 133.229  0.00  0.00    +0.032 C 
ATOM     21  C   LIG A   1      -7.759   2.724 133.728  0.00  0.00    +0.010 C 
ATOM     22  C   LIG A   1      -8.442   5.870 132.037  0.00  0.00    +0.014 C 
ENDROOT
BRANCH   8  23
ATOM     23  C   LIG A   1      -7.617  -2.170 127.282  0.00  0.00    +0.021 C 
ATOM     24  C   LIG A   1      -8.628  -3.250 127.670  0.00  0.00    +0.010 C 
BRANCH  23  25
ATOM     25  C   LIG A   1      -7.577  -1.876 125.761  0.00  0.00    +0.153 C 
ATOM     26  C   LIG A   1      -6.744  -2.860 124.929  0.00  0.00    +0.175 C 
ATOM     27  C   LIG A   1      -7.226  -2.539 123.517  0.00  0.00    +0.177 C 
ATOM     28  C   LIG A   1      -8.715  -2.198 123.746  0.00  0.00    +0.093 C 
ATOM     29  C   LIG A   1      -9.618  -3.396 123.454  0.00  0.00    +0.044 C 
ATOM     30  C   LIG A   1      -9.195  -0.971 122.971  0.00  0.00    +0.044 C 
ATOM     31  O   LIG A   1      -8.870  -1.919 125.157  0.00  0.00    -0.365 OA
BRANCH  26  32
ATOM     32  O   LIG A   1      -5.340  -2.679 125.068  0.00  0.00    -0.387 OA
ATOM     33  H   LIG A   1      -5.074  -3.197 125.850  0.00  0.00    +0.210 HD
ENDBRANCH  26  32
BRANCH  27  34
ATOM     34  O   LIG A   1      -6.466  -1.431 123.013  0.00  0.00    -0.386 OA
ATOM     35  H   LIG A   1      -5.531  -1.704 123.059  0.00  0.00    +0.210 HD
ENDBRANCH  27  34
ENDBRANCH  23  25
ENDBRANCH   8  23
BRANCH  19  36
ATOM     36  O   LIG A   1     -10.536   3.976 131.492  0.00  0.00    -0.391 OA
ATOM     37  H   LIG A   1     -10.968   4.132 132.349  0.00  0.00    +0.210 HD
ENDBRANCH  19  36
TORSDOF 5
ENDMDL
MODEL 3
REMARK VINA RESULT:      -8.7      3.743      6.287
REMARK  Name = NuBBE_1231
REMARK  13 active torsions:
REMARK  status: ('A' for Active; 'I' for Inactive)
REMARK    1  A    between atoms: C_1  and  C_2
REMARK    2  A    between atoms: C_6  and  C_29
REMARK    3  A    between atoms: C_7  and  C_8
REMARK    4  A    between atoms: C_9  and  C_11
REMARK    5  A    between atoms: C_11  and  C_13
REMARK    6  A    between atoms: C_11  and  C_14
REMARK    7  A    between atoms: C_15  and  O_17
REMARK    8  A    between atoms: C_18  and  O_20
REMARK    9  A    between atoms: C_21  and  C_22
REMARK   10  A    between atoms: C_21  and  C_23
REMARK   11  A    between atoms: C_34  and  C_35
REMARK   12  A    between atoms: C_34  and  C_41
REMARK   13  A    between atoms: C_36  and  O_40
REMARK                            x       y       z     vdW  Elec       q    Type
REMARK                         _______ _______ _______ _____ _____    ______ ____
ROOT
ATOM      1  C   LIG A   1      -8.164  -3.214 133.272  0.00  0.00    +0.012 C 
ATOM      2  C   LIG A   1      -6.902  -2.461 132.724  0.00  0.00    -0.022 C 
ATOM      3  C   LIG A   1      -7.282  -0.906 132.773  0.00  0.00    +0.021 C 
ATOM      4  C   LIG A   1      -7.849  -0.307 131.474  0.00  0.00    -0.063 C 
ATOM      5  C   LIG A   1      -8.313   1.184 131.549  0.00  0.00    -0.005 C 
ATOM      6  C   LIG A   1      -7.253   2.121 132.307  0.00  0.00    -0.020 C 
ATOM      7  C   LIG A   1      -7.795   2.676 133.633  0.00  0.00    +0.012 C 
ATOM      8  C   LIG A   1      -6.745   3.191 131.246  0.00  0.00    +0.001 C 
ATOM      9  C   LIG A   1      -7.165   2.579 129.900  0.00  0.00    +0.005 C 
ATOM     10  C   LIG A   1      -8.486   1.900 130.182  0.00  0.00    +0.012 C 
ATOM     11  C   LIG A   1      -5.983   1.294 132.669  0.00  0.00    +0.008 C 
ATOM     12  C   LIG A   1      -6.279   0.035 133.467  0.00  0.00    +0.009 C 
ATOM     13  C   LIG A   1      -9.727   1.153 132.185  0.00  0.00    +0.016 C 
ATOM     14  C   LIG A   1      -8.038  -1.081 130.391  0.00  0.00    -0.026 C 
ATOM     15  C   LIG A   1      -7.726  -2.538 130.306  0.00  0.00    +0.031 C 
ATOM     16  C   LIG A   1      -6.623  -3.000 131.271  0.00  0.00    +0.007 C 
ATOM     17  C   LIG A   1      -5.134  -2.848 130.734  0.00  0.00    -0.005 C 
ATOM     18  C   LIG A   1      -5.012  -2.128 129.367  0.00  0.00    +0.014 C 
ATOM     19  C   LIG A   1      -4.246  -2.090 131.743  0.00  0.00    +0.120 C 
ATOM     20  C   LIG A   1      -4.325  -2.650 133.157  0.00  0.00    +0.032 C 
ATOM     21  C   LIG A   1      -5.744  -2.902 133.659  0.00  0.00    +0.010 C 
ATOM     22  C   LIG A   1      -4.563  -4.276 130.506  0.00  0.00    +0.014 C 
ENDROOT
BRANCH   8  23
ATOM     23  C   LIG A   1      -7.032   4.734 131.305  0.00  0.00    +0.021 C 
ATOM     24  C   LIG A   1      -6.279   5.599 130.292  0.00  0.00    +0.010 C 
BRANCH  23  25
ATOM     25  C   LIG A   1      -8.544   5.060 131.395  0.00  0.00    +0.153 C 
ATOM     26  C   LIG A   1      -8.898   6.278 132.259  0.00  0.00    +0.175 C 
ATOM     27  C   LIG A   1     -10.335   6.546 131.825  0.00  0.00    +0.177 C 
ATOM     28  C   LIG A   1     -10.304   6.168 130.327  0.00  0.00    +0.093 C 
ATOM     29  C   LIG A   1     -10.127   7.399 129.439  0.00  0.00    +0.044 C 
ATOM     30  C   LIG A   1     -11.512   5.352 129.868  0.00  0.00    +0.044 C 
ATOM     31  O   LIG A   1      -9.120   5.360 130.123  0.00  0.00    -0.365 OA
BRANCH  26  32
ATOM     32  O   LIG A   1      -8.800   6.034 133.657  0.00  0.00    -0.387 OA
ATOM     33  H   LIG A   1      -9.141   5.132 133.802  0.00  0.00    +0.210 HD
ENDBRANCH  26  32
BRANCH  27  34
ATOM     34  O   LIG A   1     -11.212   5.712 132.596  0.00  0.00    -0.386 OA
ATOM     35  H   LIG A   1     -10.795   4.830 132.614  0.00  0.00    +0.210 HD
ENDBRANCH  27  34
ENDBRANCH  23  25
ENDBRANCH   8  23
BRANCH  19  36
ATOM     36  O   LIG A   1      -2.875  -2.101 131.335  0.00  0.00    -0.391 OA
ATOM     37  H   LIG A   1      -2.573  -1.176 131.309  0.00  0.00    +0.210 HD
ENDBRANCH  19  36
TORSDOF 5
ENDMDL
MODEL 4
REMARK VINA RESULT:      -8.3      6.502     10.064
REMARK  Name = NuBBE_1231
REMARK  13 active torsions:
REMARK  status: ('A' for Active; 'I' for Inactive)
REMARK    1  A    between atoms: C_1  and  C_2
REMARK    2  A    between atoms: C_6  and  C_29
REMARK    3  A    between atoms: C_7  and  C_8
REMARK    4  A    between atoms: C_9  and  C_11
REMARK    5  A    between atoms: C_11  and  C_13
REMARK    6  A    between atoms: C_11  and  C_14
REMARK    7  A    between atoms: C_15  and  O_17
REMARK    8  A    between atoms: C_18  and  O_20
REMARK    9  A    between atoms: C_21  and  C_22
REMARK   10  A    between atoms: C_21  and  C_23
REMARK   11  A    between atoms: C_34  and  C_35
REMARK   12  A    between atoms: C_34  and  C_41
REMARK   13  A    between atoms: C_36  and  O_40
REMARK                            x       y       z     vdW  Elec       q    Type
REMARK                         _______ _______ _______ _____ _____    ______ ____
ROOT
ATOM      1  C   LIG A   1      -9.112   0.500 126.120  0.00  0.00    +0.012 C 
ATOM      2  C   LIG A   1      -8.266  -0.822 126.095  0.00  0.00    -0.022 C 
ATOM      3  C   LIG A   1      -7.855  -1.089 127.620  0.00  0.00    +0.021 C 
ATOM      4  C   LIG A   1      -6.479  -0.554 128.053  0.00  0.00    -0.063 C 
ATOM      5  C   LIG A   1      -6.118  -0.727 129.565  0.00  0.00    -0.005 C 
ATOM      6  C   LIG A   1      -6.467  -2.192 130.117  0.00  0.00    -0.020 C 
ATOM      7  C   LIG A   1      -7.590  -2.179 131.166  0.00  0.00    +0.012 C 
ATOM      8  C   LIG A   1      -5.092  -2.856 130.560  0.00  0.00    +0.001 C 
ATOM      9  C   LIG A   1      -4.038  -1.977 129.868  0.00  0.00    +0.005 C 
ATOM     10  C   LIG A   1      -4.612  -0.580 129.914  0.00  0.00    +0.012 C 
ATOM     11  C   LIG A   1      -6.977  -3.088 128.948  0.00  0.00    +0.008 C 
ATOM     12  C   LIG A   1      -8.147  -2.492 128.184  0.00  0.00    +0.009 C 
ATOM     13  C   LIG A   1      -6.833   0.435 130.302  0.00  0.00    +0.016 C 
ATOM     14  C   LIG A   1      -5.708   0.128 127.187  0.00  0.00    -0.026 C 
ATOM     15  C   LIG A   1      -6.059   0.426 125.768  0.00  0.00    +0.031 C 
ATOM     16  C   LIG A   1      -7.037  -0.579 125.141  0.00  0.00    +0.007 C 
ATOM     17  C   LIG A   1      -6.374  -1.875 124.501  0.00  0.00    -0.005 C 
ATOM     18  C   LIG A   1      -4.845  -1.995 124.727  0.00  0.00    +0.014 C 
ATOM     19  C   LIG A   1      -7.029  -3.166 125.034  0.00  0.00    +0.120 C 
ATOM     20  C   LIG A   1      -8.549  -3.156 124.940  0.00  0.00    +0.032 C 
ATOM     21  C   LIG A   1      -9.206  -1.878 125.455  0.00  0.00    +0.010 C 
ATOM     22  C   LIG A   1      -6.562  -1.793 122.959  0.00  0.00    +0.014 C 
ENDROOT
BRANCH   8  23
ATOM     23  C   LIG A   1      -4.687  -3.205 132.037  0.00  0.00    +0.021 C 
ATOM     24  C   LIG A   1      -4.239  -4.645 132.291  0.00  0.00    +0.010 C 
BRANCH  23  25
ATOM     25  C   LIG A   1      -3.750  -2.144 132.669  0.00  0.00    +0.153 C 
ATOM     26  C   LIG A   1      -4.388  -1.280 133.764  0.00  0.00    +0.175 C 
ATOM     27  C   LIG A   1      -3.155  -0.662 134.416  0.00  0.00    +0.177 C 
ATOM     28  C   LIG A   1      -2.118  -1.802 134.307  0.00  0.00    +0.093 C 
ATOM     29  C   LIG A   1      -2.027  -2.605 135.605  0.00  0.00    +0.044 C 
ATOM     30  C   LIG A   1      -0.729  -1.338 133.872  0.00  0.00    +0.044 C 
ATOM     31  O   LIG A   1      -2.611  -2.724 133.306  0.00  0.00    -0.365 OA
BRANCH  26  32
ATOM     32  O   LIG A   1      -5.279  -0.291 133.264  0.00  0.00    -0.387 OA
ATOM     33  H   LIG A   1      -5.679  -0.665 132.457  0.00  0.00    +0.210 HD
ENDBRANCH  26  32
BRANCH  27  34
ATOM     34  O   LIG A   1      -2.781   0.508 133.674  0.00  0.00    -0.386 OA
ATOM     35  H   LIG A   1      -2.101   0.217 133.039  0.00  0.00    +0.210 HD
ENDBRANCH  27  34
ENDBRANCH  23  25
ENDBRANCH   8  23
BRANCH  19  36
ATOM     36  O   LIG A   1      -6.547  -4.318 124.336  0.00  0.00    -0.391 OA
ATOM     37  H   LIG A   1      -5.891  -4.009 123.687  0.00  0.00    +0.210 HD
ENDBRANCH  19  36
TORSDOF 5
ENDMDL
MODEL 5
REMARK VINA RESULT:      -8.2      4.799      7.914
REMARK  Name = NuBBE_1231
REMARK  13 active torsions:
REMARK  status: ('A' for Active; 'I' for Inactive)
REMARK    1  A    between atoms: C_1  and  C_2
REMARK    2  A    between atoms: C_6  and  C_29
REMARK    3  A    between atoms: C_7  and  C_8
REMARK    4  A    between atoms: C_9  and  C_11
REMARK    5  A    between atoms: C_11  and  C_13
REMARK    6  A    between atoms: C_11  and  C_14
REMARK    7  A    between atoms: C_15  and  O_17
REMARK    8  A    between atoms: C_18  and  O_20
REMARK    9  A    between atoms: C_21  and  C_22
REMARK   10  A    between atoms: C_21  and  C_23
REMARK   11  A    between atoms: C_34  and  C_35
REMARK   12  A    between atoms: C_34  and  C_41
REMARK   13  A    between atoms: C_36  and  O_40
REMARK                            x       y       z     vdW  Elec       q    Type
REMARK                         _______ _______ _______ _____ _____    ______ ____
ROOT
ATOM      1  C   LIG A   1      -8.355  -1.784 133.049  0.00  0.00    +0.012 C 
ATOM      2  C   LIG A   1      -6.918  -1.873 132.425  0.00  0.00    -0.022 C 
ATOM      3  C   LIG A   1      -6.770  -0.565 131.514  0.00  0.00    +0.021 C 
ATOM      4  C   LIG A   1      -7.116  -0.734 130.024  0.00  0.00    -0.063 C 
ATOM      5  C   LIG A   1      -7.068   0.564 129.155  0.00  0.00    -0.005 C 
ATOM      6  C   LIG A   1      -5.756   1.445 129.437  0.00  0.00    -0.020 C 
ATOM      7  C   LIG A   1      -6.081   2.800 130.086  0.00  0.00    +0.012 C 
ATOM      8  C   LIG A   1      -4.931   1.490 128.079  0.00  0.00    +0.001 C 
ATOM      9  C   LIG A   1      -5.535   0.336 127.263  0.00  0.00    +0.005 C 
ATOM     10  C   LIG A   1      -7.003   0.338 127.619  0.00  0.00    +0.012 C 
ATOM     11  C   LIG A   1      -4.825   0.698 130.438  0.00  0.00    +0.008 C 
ATOM     12  C   LIG A   1      -5.512   0.297 131.733  0.00  0.00    +0.009 C 
ATOM     13  C   LIG A   1      -8.411   1.294 129.413  0.00  0.00    +0.016 C 
ATOM     14  C   LIG A   1      -7.553  -1.917 129.555  0.00  0.00    -0.026 C 
ATOM     15  C   LIG A   1      -7.734  -3.155 130.369  0.00  0.00    +0.031 C 
ATOM     16  C   LIG A   1      -6.838  -3.222 131.615  0.00  0.00    +0.007 C 
ATOM     17  C   LIG A   1      -5.383  -3.821 131.383  0.00  0.00    -0.005 C 
ATOM     18  C   LIG A   1      -5.039  -4.121 129.902  0.00  0.00    +0.014 C 
ATOM     19  C   LIG A   1      -4.291  -2.880 131.936  0.00  0.00    +0.120 C 
ATOM     20  C   LIG A   1      -4.542  -2.442 133.372  0.00  0.00    +0.032 C 
ATOM     21  C   LIG A   1      -5.964  -1.958 133.646  0.00  0.00    +0.010 C 
ATOM     22  C   LIG A   1      -5.311  -5.190 132.115  0.00  0.00    +0.014 C 
ENDROOT
BRANCH   8  23
ATOM     23  C   LIG A   1      -4.699   2.771 127.200  0.00  0.00    +0.021 C 
ATOM     24  C   LIG A   1      -3.320   2.901 126.549  0.00  0.00    +0.010 C 
BRANCH  23  25
ATOM     25  C   LIG A   1      -5.873   3.054 126.228  0.00  0.00    +0.153 C 
ATOM     26  C   LIG A   1      -6.387   4.499 126.231  0.00  0.00    +0.175 C 
ATOM     27  C   LIG A   1      -7.212   4.526 124.948  0.00  0.00    +0.177 C 
ATOM     28  C   LIG A   1      -6.405   3.593 124.018  0.00  0.00    +0.093 C 
ATOM     29  C   LIG A   1      -5.488   4.384 123.085  0.00  0.00    +0.044 C 
ATOM     30  C   LIG A   1      -7.268   2.621 123.214  0.00  0.00    +0.044 C 
ATOM     31  O   LIG A   1      -5.529   2.812 124.864  0.00  0.00    -0.365 OA
BRANCH  26  32
ATOM     32  O   LIG A   1      -7.169   4.825 127.374  0.00  0.00    -0.387 OA
ATOM     33  H   LIG A   1      -7.034   5.777 127.535  0.00  0.00    +0.210 HD
ENDBRANCH  26  32
BRANCH  27  34
ATOM     34  O   LIG A   1      -8.527   4.030 125.236  0.00  0.00    -0.386 OA
ATOM     35  H   LIG A   1      -9.063   4.811 125.469  0.00  0.00    +0.210 HD
ENDBRANCH  27  34
ENDBRANCH  23  25
ENDBRANCH   8  23
BRANCH  19  36
ATOM     36  O   LIG A   1      -3.001  -3.494 131.876  0.00  0.00    -0.391 OA
ATOM     37  H   LIG A   1      -3.040  -4.304 132.414  0.00  0.00    +0.210 HD
ENDBRANCH  19  36
TORSDOF 5
ENDMDL
MODEL 6
REMARK VINA RESULT:      -8.2      6.939      9.902
REMARK  Name = NuBBE_1231
REMARK  13 active torsions:
REMARK  status: ('A' for Active; 'I' for Inactive)
REMARK    1  A    between atoms: C_1  and  C_2
REMARK    2  A    between atoms: C_6  and  C_29
REMARK    3  A    between atoms: C_7  and  C_8
REMARK    4  A    between atoms: C_9  and  C_11
REMARK    5  A    between atoms: C_11  and  C_13
REMARK    6  A    between atoms: C_11  and  C_14
REMARK    7  A    between atoms: C_15  and  O_17
REMARK    8  A    between atoms: C_18  and  O_20
REMARK    9  A    between atoms: C_21  and  C_22
REMARK   10  A    between atoms: C_21  and  C_23
REMARK   11  A    between atoms: C_34  and  C_35
REMARK   12  A    between atoms: C_34  and  C_41
REMARK   13  A    between atoms: C_36  and  O_40
REMARK                            x       y       z     vdW  Elec       q    Type
REMARK                         _______ _______ _______ _____ _____    ______ ____
ROOT
ATOM      1  C   LIG A   1      -8.380   0.840 126.324  0.00  0.00    +0.012 C 
ATOM      2  C   LIG A   1      -8.012  -0.684 126.258  0.00  0.00    -0.022 C 
ATOM      3  C   LIG A   1      -7.657  -1.099 127.763  0.00  0.00    +0.021 C 
ATOM      4  C   LIG A   1      -6.167  -1.050 128.144  0.00  0.00    -0.063 C 
ATOM      5  C   LIG A   1      -5.829  -1.358 129.639  0.00  0.00    -0.005 C 
ATOM      6  C   LIG A   1      -6.616  -2.641 130.196  0.00  0.00    -0.020 C 
ATOM      7  C   LIG A   1      -7.635  -2.282 131.289  0.00  0.00    +0.012 C 
ATOM      8  C   LIG A   1      -5.518  -3.724 130.580  0.00  0.00    +0.001 C 
ATOM      9  C   LIG A   1      -4.260  -3.223 129.852  0.00  0.00    +0.005 C 
ATOM     10  C   LIG A   1      -4.345  -1.716 129.929  0.00  0.00    +0.012 C 
ATOM     11  C   LIG A   1      -7.431  -3.300 129.043  0.00  0.00    +0.008 C 
ATOM     12  C   LIG A   1      -8.370  -2.342 128.330  0.00  0.00    +0.009 C 
ATOM     13  C   LIG A   1      -6.099  -0.041 130.412  0.00  0.00    +0.016 C 
ATOM     14  C   LIG A   1      -5.248  -0.640 127.253  0.00  0.00    -0.026 C 
ATOM     15  C   LIG A   1      -5.533  -0.217 125.850  0.00  0.00    +0.031 C 
ATOM     16  C   LIG A   1      -6.807  -0.837 125.256  0.00  0.00    +0.007 C 
ATOM     17  C   LIG A   1      -6.625  -2.266 124.582  0.00  0.00    -0.005 C 
ATOM     18  C   LIG A   1      -5.212  -2.881 124.747  0.00  0.00    +0.014 C 
ATOM     19  C   LIG A   1      -7.646  -3.284 125.134  0.00  0.00    +0.120 C 
ATOM     20  C   LIG A   1      -9.082  -2.777 125.100  0.00  0.00    +0.032 C 
ATOM     21  C   LIG A   1      -9.268  -1.365 125.648  0.00  0.00    +0.010 C 
ATOM     22  C   LIG A   1      -6.831  -2.098 123.050  0.00  0.00    +0.014 C 
ENDROOT
BRANCH   8  23
ATOM     23  C   LIG A   1      -5.196  -4.213 132.037  0.00  0.00    +0.021 C 
ATOM     24  C   LIG A   1      -3.753  -4.652 132.298  0.00  0.00    +0.010 C 
BRANCH  23  25
ATOM     25  C   LIG A   1      -5.762  -3.267 133.127  0.00  0.00    +0.153 C 
ATOM     26  C   LIG A   1      -5.995  -3.917 134.497  0.00  0.00    +0.175 C 
ATOM     27  C   LIG A   1      -6.155  -2.689 135.388  0.00  0.00    +0.177 C 
ATOM     28  C   LIG A   1      -5.176  -1.684 134.743  0.00  0.00    +0.093 C 
ATOM     29  C   LIG A   1      -3.832  -1.661 135.471  0.00  0.00    +0.044 C 
ATOM     30  C   LIG A   1      -5.734  -0.267 134.617  0.00  0.00    +0.044 C 
ATOM     31  O   LIG A   1      -4.894  -2.169 133.409  0.00  0.00    -0.365 OA
BRANCH  26  32
ATOM     32  O   LIG A   1      -7.140  -4.761 134.541  0.00  0.00    -0.387 OA
ATOM     33  H   LIG A   1      -6.827  -5.630 134.853  0.00  0.00    +0.210 HD
ENDBRANCH  26  32
BRANCH  27  34
ATOM     34  O   LIG A   1      -7.522  -2.256 135.332  0.00  0.00    -0.386 OA
ATOM     35  H   LIG A   1      -7.675  -1.973 134.411  0.00  0.00    +0.210 HD
ENDBRANCH  27  34
ENDBRANCH  23  25
ENDBRANCH   8  23
BRANCH  19  36
ATOM     36  O   LIG A   1      -7.590  -4.516 124.410  0.00  0.00    -0.391 OA
ATOM     37  H   LIG A   1      -8.405  -5.008 124.613  0.00  0.00    +0.210 HD
ENDBRANCH  19  36
TORSDOF 5
ENDMDL
MODEL 7
REMARK VINA RESULT:      -8.2      4.240      6.401
REMARK  Name = NuBBE_1231
REMARK  13 active torsions:
REMARK  status: ('A' for Active; 'I' for Inactive)
REMARK    1  A    between atoms: C_1  and  C_2
REMARK    2  A    between atoms: C_6  and  C_29
REMARK    3  A    between atoms: C_7  and  C_8
REMARK    4  A    between atoms: C_9  and  C_11
REMARK    5  A    between atoms: C_11  and  C_13
REMARK    6  A    between atoms: C_11  and  C_14
REMARK    7  A    between atoms: C_15  and  O_17
REMARK    8  A    between atoms: C_18  and  O_20
REMARK    9  A    between atoms: C_21  and  C_22
REMARK   10  A    between atoms: C_21  and  C_23
REMARK   11  A    between atoms: C_34  and  C_35
REMARK   12  A    between atoms: C_34  and  C_41
REMARK   13  A    between atoms: C_36  and  O_40
REMARK                            x       y       z     vdW  Elec       q    Type
REMARK                         _______ _______ _______ _____ _____    ______ ____
ROOT
ATOM      1  C   LIG A   1      -5.857   3.370 132.971  0.00  0.00    +0.012 C 
ATOM      2  C   LIG A   1      -5.749   4.300 131.712  0.00  0.00    -0.022 C 
ATOM      3  C   LIG A   1      -6.414   3.470 130.514  0.00  0.00    +0.021 C 
ATOM      4  C   LIG A   1      -5.447   2.654 129.638  0.00  0.00    -0.063 C 
ATOM      5  C   LIG A   1      -6.104   1.766 128.532  0.00  0.00    -0.005 C 
ATOM      6  C   LIG A   1      -7.246   2.544 127.716  0.00  0.00    -0.020 C 
ATOM      7  C   LIG A   1      -8.647   1.959 127.952  0.00  0.00    +0.012 C 
ATOM      8  C   LIG A   1      -6.758   2.624 126.205  0.00  0.00    +0.001 C 
ATOM      9  C   LIG A   1      -5.256   2.312 126.304  0.00  0.00    +0.005 C 
ATOM     10  C   LIG A   1      -5.148   1.284 127.407  0.00  0.00    +0.012 C 
ATOM     11  C   LIG A   1      -7.311   4.028 128.186  0.00  0.00    +0.008 C 
ATOM     12  C   LIG A   1      -7.497   4.188 129.686  0.00  0.00    +0.009 C 
ATOM     13  C   LIG A   1      -6.581   0.479 129.254  0.00  0.00    +0.016 C 
ATOM     14  C   LIG A   1      -4.131   2.630 129.914  0.00  0.00    -0.026 C 
ATOM     15  C   LIG A   1      -3.470   3.363 131.034  0.00  0.00    +0.031 C 
ATOM     16  C   LIG A   1      -4.224   4.621 131.490  0.00  0.00    +0.007 C 
ATOM     17  C   LIG A   1      -3.892   5.950 130.682  0.00  0.00    -0.005 C 
ATOM     18  C   LIG A   1      -2.956   5.747 129.464  0.00  0.00    +0.014 C 
ATOM     19  C   LIG A   1      -5.177   6.639 130.176  0.00  0.00    +0.120 C 
ATOM     20  C   LIG A   1      -6.224   6.838 131.264  0.00  0.00    +0.032 C 
ATOM     21  C   LIG A   1      -6.488   5.602 132.122  0.00  0.00    +0.010 C 
ATOM     22  C   LIG A   1      -3.129   6.910 131.639  0.00  0.00    +0.014 C 
ENDROOT
BRANCH   8  23
ATOM     23  C   LIG A   1      -7.432   1.887 124.993  0.00  0.00    +0.021 C 
ATOM     24  C   LIG A   1      -7.045   2.388 123.600  0.00  0.00    +0.010 C 
BRANCH  23  25
ATOM     25  C   LIG A   1      -7.391   0.344 125.130  0.00  0.00    +0.153 C 
ATOM     26  C   LIG A   1      -8.635  -0.390 124.613  0.00  0.00    +0.175 C 
ATOM     27  C   LIG A   1      -8.122  -1.824 124.526  0.00  0.00    +0.177 C 
ATOM     28  C   LIG A   1      -6.648  -1.623 124.110  0.00  0.00    +0.093 C 
ATOM     29  C   LIG A   1      -6.462  -1.788 122.602  0.00  0.00    +0.044 C 
ATOM     30  C   LIG A   1      -5.663  -2.514 124.866  0.00  0.00    +0.044 C 
ATOM     31  O   LIG A   1      -6.313  -0.246 124.402  0.00  0.00    -0.365 OA
BRANCH  26  32
ATOM     32  O   LIG A   1      -9.762  -0.278 125.472  0.00  0.00    -0.387 OA
ATOM     33  H   LIG A   1     -10.121  -1.179 125.573  0.00  0.00    +0.210 HD
ENDBRANCH  26  32
BRANCH  27  34
ATOM     34  O   LIG A   1      -8.262  -2.441 125.815  0.00  0.00    -0.386 OA
ATOM     35  H   LIG A   1      -8.868  -1.869 126.320  0.00  0.00    +0.210 HD
ENDBRANCH  27  34
ENDBRANCH  23  25
ENDBRANCH   8  23
BRANCH  19  36
ATOM     36  O   LIG A   1      -4.887   7.914 129.598  0.00  0.00    -0.391 OA
ATOM     37  H   LIG A   1      -5.386   7.974 128.764  0.00  0.00    +0.210 HD
ENDBRANCH  19  36
TORSDOF 5
ENDMDL
MODEL 8
REMARK VINA RESULT:      -8.1      4.398      8.047
REMARK  Name = NuBBE_1231
REMARK  13 active torsions:
REMARK  status: ('A' for Active; 'I' for Inactive)
REMARK    1  A    between atoms: C_1  and  C_2
REMARK    2  A    between atoms: C_6  and  C_29
REMARK    3  A    between atoms: C_7  and  C_8
REMARK    4  A    between atoms: C_9  and  C_11
REMARK    5  A    between atoms: C_11  and  C_13
REMARK    6  A    between atoms: C_11  and  C_14
REMARK    7  A    between atoms: C_15  and  O_17
REMARK    8  A    between atoms: C_18  and  O_20
REMARK    9  A    between atoms: C_21  and  C_22
REMARK   10  A    between atoms: C_21  and  C_23
REMARK   11  A    between atoms: C_34  and  C_35
REMARK   12  A    between atoms: C_34  and  C_41
REMARK   13  A    between atoms: C_36  and  O_40
REMARK                            x       y       z     vdW  Elec       q    Type
REMARK                         _______ _______ _______ _____ _____    ______ ____
ROOT
ATOM      1  C   LIG A   1      -1.752  11.869 136.193  0.00  0.00    +0.012 C 
ATOM      2  C   LIG A   1      -1.340  11.691 134.689  0.00  0.00    -0.022 C 
ATOM      3  C   LIG A   1      -1.881  10.242 134.272  0.00  0.00    +0.021 C 
ATOM      4  C   LIG A   1      -0.873   9.085 134.387  0.00  0.00    -0.063 C 
ATOM      5  C   LIG A   1      -1.427   7.656 134.075  0.00  0.00    -0.005 C 
ATOM      6  C   LIG A   1      -2.330   7.623 132.749  0.00  0.00    -0.020 C 
ATOM      7  C   LIG A   1      -3.804   7.306 133.043  0.00  0.00    +0.012 C 
ATOM      8  C   LIG A   1      -1.593   6.667 131.715  0.00  0.00    +0.001 C 
ATOM      9  C   LIG A   1      -0.169   6.562 132.286  0.00  0.00    +0.005 C 
ATOM     10  C   LIG A   1      -0.354   6.572 133.786  0.00  0.00    +0.012 C 
ATOM     11  C   LIG A   1      -2.316   9.024 132.067  0.00  0.00    +0.008 C 
ATOM     12  C   LIG A   1      -2.730  10.159 132.989  0.00  0.00    +0.009 C 
ATOM     13  C   LIG A   1      -2.150   7.195 135.367  0.00  0.00    +0.016 C 
ATOM     14  C   LIG A   1       0.369   9.305 134.853  0.00  0.00    -0.026 C 
ATOM     15  C   LIG A   1       0.908  10.629 135.281  0.00  0.00    +0.031 C 
ATOM     16  C   LIG A   1       0.226  11.830 134.608  0.00  0.00    +0.007 C 
ATOM     17  C   LIG A   1       0.825  12.259 133.199  0.00  0.00    -0.005 C 
ATOM     18  C   LIG A   1       1.923  11.313 132.651  0.00  0.00    +0.014 C 
ATOM     19  C   LIG A   1      -0.279  12.367 132.126  0.00  0.00    +0.120 C 
ATOM     20  C   LIG A   1      -1.465  13.216 132.563  0.00  0.00    +0.032 C 
ATOM     21  C   LIG A   1      -1.995  12.893 133.957  0.00  0.00    +0.010 C 
ATOM     22  C   LIG A   1       1.516  13.641 133.377  0.00  0.00    +0.014 C 
ENDROOT
BRANCH   8  23
ATOM     23  C   LIG A   1      -2.130   5.276 131.222  0.00  0.00    +0.021 C 
ATOM     24  C   LIG A   1      -2.592   4.307 132.313  0.00  0.00    +0.010 C 
BRANCH  23  25
ATOM     25  C   LIG A   1      -3.127   5.401 130.042  0.00  0.00    +0.153 C 
ATOM     26  C   LIG A   1      -2.485   5.434 128.648  0.00  0.00    +0.175 C 
ATOM     27  C   LIG A   1      -3.693   5.164 127.756  0.00  0.00    +0.177 C 
ATOM     28  C   LIG A   1      -4.526   4.188 128.616  0.00  0.00    +0.093 C 
ATOM     29  C   LIG A   1      -4.284   2.734 128.212  0.00  0.00    +0.044 C 
ATOM     30  C   LIG A   1      -6.024   4.493 128.625  0.00  0.00    +0.044 C 
ATOM     31  O   LIG A   1      -4.042   4.307 129.975  0.00  0.00    -0.365 OA
BRANCH  26  32
ATOM     32  O   LIG A   1      -1.860   6.673 128.338  0.00  0.00    -0.387 OA
ATOM     33  H   LIG A   1      -1.286   6.888 129.096  0.00  0.00    +0.210 HD
ENDBRANCH  26  32
BRANCH  27  34
ATOM     34  O   LIG A   1      -4.366   6.406 127.505  0.00  0.00    -0.386 OA
ATOM     35  H   LIG A   1      -4.813   6.298 126.645  0.00  0.00    +0.210 HD
ENDBRANCH  27  34
ENDBRANCH  23  25
ENDBRANCH   8  23
BRANCH  19  36
ATOM     36  O   LIG A   1       0.235  12.912 130.907  0.00  0.00    -0.391 OA
ATOM     37  H   LIG A   1       0.115  13.876 130.948  0.00  0.00    +0.210 HD
ENDBRANCH  19  36
TORSDOF 5
ENDMDL
MODEL 9
REMARK VINA RESULT:      -8.1      4.256      8.240
REMARK  Name = NuBBE_1231
REMARK  13 active torsions:
REMARK  status: ('A' for Active; 'I' for Inactive)
REMARK    1  A    between atoms: C_1  and  C_2
REMARK    2  A    between atoms: C_6  and  C_29
REMARK    3  A    between atoms: C_7  and  C_8
REMARK    4  A    between atoms: C_9  and  C_11
REMARK    5  A    between atoms: C_11  and  C_13
REMARK    6  A    between atoms: C_11  and  C_14
REMARK    7  A    between atoms: C_15  and  O_17
REMARK    8  A    between atoms: C_18  and  O_20
REMARK    9  A    between atoms: C_21  and  C_22
REMARK   10  A    between atoms: C_21  and  C_23
REMARK   11  A    between atoms: C_34  and  C_35
REMARK   12  A    between atoms: C_34  and  C_41
REMARK   13  A    between atoms: C_36  and  O_40
REMARK                            x       y       z     vdW  Elec       q    Type
REMARK                         _______ _______ _______ _____ _____    ______ ____
ROOT
ATOM      1  C   LIG A   1      -9.916   1.332 124.010  0.00  0.00    +0.012 C 
ATOM      2  C   LIG A   1      -8.990   0.462 124.929  0.00  0.00    -0.022 C 
ATOM      3  C   LIG A   1      -8.480   1.454 126.078  0.00  0.00    +0.021 C 
ATOM      4  C   LIG A   1      -7.119   2.129 125.833  0.00  0.00    -0.063 C 
ATOM      5  C   LIG A   1      -6.666   3.173 126.905  0.00  0.00    -0.005 C 
ATOM      6  C   LIG A   1      -6.890   2.651 128.406  0.00  0.00    -0.020 C 
ATOM      7  C   LIG A   1      -7.952   3.462 129.164  0.00  0.00    +0.012 C 
ATOM      8  C   LIG A   1      -5.454   2.561 129.080  0.00  0.00    +0.001 C 
ATOM      9  C   LIG A   1      -4.497   2.598 127.877  0.00  0.00    +0.005 C 
ATOM     10  C   LIG A   1      -5.156   3.534 126.891  0.00  0.00    +0.012 C 
ATOM     11  C   LIG A   1      -7.405   1.180 128.381  0.00  0.00    +0.008 C 
ATOM     12  C   LIG A   1      -8.651   0.981 127.534  0.00  0.00    +0.009 C 
ATOM     13  C   LIG A   1      -7.412   4.487 126.554  0.00  0.00    +0.016 C 
ATOM     14  C   LIG A   1      -6.442   1.906 124.693  0.00  0.00    -0.026 C 
ATOM     15  C   LIG A   1      -6.889   1.014 123.583  0.00  0.00    +0.031 C 
ATOM     16  C   LIG A   1      -7.834  -0.113 124.028  0.00  0.00    +0.007 C 
ATOM     17  C   LIG A   1      -7.125  -1.438 124.549  0.00  0.00    -0.005 C 
ATOM     18  C   LIG A   1      -5.582  -1.343 124.657  0.00  0.00    +0.014 C 
ATOM     19  C   LIG A   1      -7.667  -1.862 125.930  0.00  0.00    +0.120 C 
ATOM     20  C   LIG A   1      -9.186  -1.927 125.989  0.00  0.00    +0.032 C 
ATOM     21  C   LIG A   1      -9.895  -0.709 125.401  0.00  0.00    +0.010 C 
ATOM     22  C   LIG A   1      -7.402  -2.563 123.512  0.00  0.00    +0.014 C 
ENDROOT
BRANCH   8  23
ATOM     23  C   LIG A   1      -4.947   3.465 130.261  0.00  0.00    +0.021 C 
ATOM     24  C   LIG A   1      -4.017   2.793 131.273  0.00  0.00    +0.010 C 
BRANCH  23  25
ATOM     25  C   LIG A   1      -4.444   4.851 129.782  0.00  0.00    +0.153 C 
ATOM     26  C   LIG A   1      -4.911   6.042 130.629  0.00  0.00    +0.175 C 
ATOM     27  C   LIG A   1      -3.961   7.137 130.156  0.00  0.00    +0.177 C 
ATOM     28  C   LIG A   1      -2.657   6.352 129.894  0.00  0.00    +0.093 C 
ATOM     29  C   LIG A   1      -1.694   6.451 131.078  0.00  0.00    +0.044 C 
ATOM     30  C   LIG A   1      -1.946   6.744 128.599  0.00  0.00    +0.044 C 
ATOM     31  O   LIG A   1      -3.020   4.955 129.795  0.00  0.00    -0.365 OA
BRANCH  26  32
ATOM     32  O   LIG A   1      -6.274   6.391 130.420  0.00  0.00    -0.387 OA
ATOM     33  H   LIG A   1      -6.753   6.120 131.226  0.00  0.00    +0.210 HD
ENDBRANCH  26  32
BRANCH  27  34
ATOM     34  O   LIG A   1      -4.504   7.735 128.969  0.00  0.00    -0.386 OA
ATOM     35  H   LIG A   1      -5.353   7.284 128.807  0.00  0.00    +0.210 HD
ENDBRANCH  27  34
ENDBRANCH  23  25
ENDBRANCH   8  23
BRANCH  19  36
ATOM     36  O   LIG A   1      -7.150  -3.138 126.318  0.00  0.00    -0.391 OA
ATOM     37  H   LIG A   1      -6.248  -3.207 125.960  0.00  0.00    +0.210 HD
ENDBRANCH  19  36
TORSDOF 5
ENDMDL
