MODEL 1
REMARK VINA RESULT:      -5.7      0.000      0.000
REMARK  Name = NuBBE_1902
REMARK  4 active torsions:
REMARK  status: ('A' for Active; 'I' for Inactive)
REMARK    1  A    between atoms: C_1  and  C_2
REMARK    2  A    between atoms: C_1  and  C_3
REMARK    3  A    between atoms: C_1  and  C_4
REMARK    4  A    between atoms: C_7  and  C_10
REMARK                            x       y       z     vdW  Elec       q    Type
REMARK                         _______ _______ _______ _____ _____    ______ ____
ROOT
ATOM      1  C   LIG A   1     -11.846   7.920 129.502  0.00  0.00    -0.067 C 
ATOM      2  C   LIG A   1     -10.529   7.706 129.326  0.00  0.00    -0.001 C 
ATOM      3  C   LIG A   1      -9.704   7.104 130.347  0.00  0.00    -0.001 C 
ATOM      4  C   LIG A   1     -10.233   6.524 131.436  0.00  0.00    -0.072 C 
ATOM      5  C   LIG A   1     -11.727   6.503 131.650  0.00  0.00    +0.035 C 
ATOM      6  C   LIG A   1     -12.513   7.520 130.801  0.00  0.00    +0.035 C 
ATOM      7  C   LIG A   1      -9.395   5.850 132.479  0.00  0.00    +0.039 C 
ENDROOT
BRANCH   1   8
ATOM      8  C   LIG A   1     -12.684   8.593 128.426  0.00  0.00    +0.009 C 
ATOM      9  C   LIG A   1     -13.710   7.630 127.826  0.00  0.00    +0.012 C 
ATOM     10  C   LIG A   1     -13.368   9.864 128.939  0.00  0.00    +0.012 C 
ENDBRANCH   1   8
TORSDOF 1
ENDMDL
MODEL 2
REMARK VINA RESULT:      -5.7      0.232      1.583
REMARK  Name = NuBBE_1902
REMARK  4 active torsions:
REMARK  status: ('A' for Active; 'I' for Inactive)
REMARK    1  A    between atoms: C_1  and  C_2
REMARK    2  A    between atoms: C_1  and  C_3
REMARK    3  A    between atoms: C_1  and  C_4
REMARK    4  A    between atoms: C_7  and  C_10
REMARK                            x       y       z     vdW  Elec       q    Type
REMARK                         _______ _______ _______ _____ _____    ______ ____
ROOT
ATOM      1  C   LIG A   1     -11.833   7.833 129.581  0.00  0.00    -0.067 C 
ATOM      2  C   LIG A   1     -12.419   7.395 130.711  0.00  0.00    -0.001 C 
ATOM      3  C   LIG A   1     -11.718   6.583 131.676  0.00  0.00    -0.001 C 
ATOM      4  C   LIG A   1     -10.388   6.401 131.619  0.00  0.00    -0.072 C 
ATOM      5  C   LIG A   1      -9.571   7.025 130.514  0.00  0.00    +0.035 C 
ATOM      6  C   LIG A   1     -10.388   7.485 129.292  0.00  0.00    +0.035 C 
ATOM      7  C   LIG A   1      -9.638   5.604 132.642  0.00  0.00    +0.039 C 
ENDROOT
BRANCH   1   8
ATOM      8  C   LIG A   1     -12.607   8.653 128.561  0.00  0.00    +0.009 C 
ATOM      9  C   LIG A   1     -13.666   7.811 127.846  0.00  0.00    +0.012 C 
ATOM     10  C   LIG A   1     -13.235   9.903 129.182  0.00  0.00    +0.012 C 
ENDBRANCH   1   8
TORSDOF 1
ENDMDL
MODEL 3
REMARK VINA RESULT:      -5.5      0.946      4.337
REMARK  Name = NuBBE_1902
REMARK  4 active torsions:
REMARK  status: ('A' for Active; 'I' for Inactive)
REMARK    1  A    between atoms: C_1  and  C_2
REMARK    2  A    between atoms: C_1  and  C_3
REMARK    3  A    between atoms: C_1  and  C_4
REMARK    4  A    between atoms: C_7  and  C_10
REMARK                            x       y       z     vdW  Elec       q    Type
REMARK                         _______ _______ _______ _____ _____    ______ ____
ROOT
ATOM      1  C   LIG A   1     -10.356   6.965 130.490  0.00  0.00    -0.067 C 
ATOM      2  C   LIG A   1     -10.103   7.695 129.387  0.00  0.00    -0.001 C 
ATOM      3  C   LIG A   1     -11.139   8.413 128.685  0.00  0.00    -0.001 C 
ATOM      4  C   LIG A   1     -12.366   8.579 129.206  0.00  0.00    -0.072 C 
ATOM      5  C   LIG A   1     -12.719   7.990 130.551  0.00  0.00    +0.035 C 
ATOM      6  C   LIG A   1     -11.765   6.884 131.039  0.00  0.00    +0.035 C 
ATOM      7  C   LIG A   1     -13.437   9.365 128.514  0.00  0.00    +0.039 C 
ENDROOT
BRANCH   1   8
ATOM      8  C   LIG A   1      -9.253   6.184 131.187  0.00  0.00    +0.009 C 
ATOM      9  C   LIG A   1      -7.895   6.874 131.042  0.00  0.00    +0.012 C 
ATOM     10  C   LIG A   1      -9.575   5.924 132.661  0.00  0.00    +0.012 C 
ENDBRANCH   1   8
TORSDOF 1
ENDMDL
MODEL 4
REMARK VINA RESULT:      -5.3      9.940     10.913
REMARK  Name = NuBBE_1902
REMARK  4 active torsions:
REMARK  status: ('A' for Active; 'I' for Inactive)
REMARK    1  A    between atoms: C_1  and  C_2
REMARK    2  A    between atoms: C_1  and  C_3
REMARK    3  A    between atoms: C_1  and  C_4
REMARK    4  A    between atoms: C_7  and  C_10
REMARK                            x       y       z     vdW  Elec       q    Type
REMARK                         _______ _______ _______ _____ _____    ______ ____
ROOT
ATOM      1  C   LIG A   1      -6.466   4.066 120.573  0.00  0.00    -0.067 C 
ATOM      2  C   LIG A   1      -7.374   3.500 121.388  0.00  0.00    -0.001 C 
ATOM      3  C   LIG A   1      -7.087   3.197 122.769  0.00  0.00    -0.001 C 
ATOM      4  C   LIG A   1      -5.985   3.658 123.383  0.00  0.00    -0.072 C 
ATOM      5  C   LIG A   1      -4.980   4.498 122.634  0.00  0.00    +0.035 C 
ATOM      6  C   LIG A   1      -5.089   4.416 121.099  0.00  0.00    +0.035 C 
ATOM      7  C   LIG A   1      -5.698   3.396 124.830  0.00  0.00    +0.039 C 
ENDROOT
BRANCH   1   8
ATOM      8  C   LIG A   1      -6.780   4.338 119.110  0.00  0.00    +0.009 C 
ATOM      9  C   LIG A   1      -8.288   4.409 118.861  0.00  0.00    +0.012 C 
ATOM     10  C   LIG A   1      -6.084   5.601 118.596  0.00  0.00    +0.012 C 
ENDBRANCH   1   8
TORSDOF 1
ENDMDL
MODEL 5
REMARK VINA RESULT:      -5.2     11.253     11.755
REMARK  Name = NuBBE_1902
REMARK  4 active torsions:
REMARK  status: ('A' for Active; 'I' for Inactive)
REMARK    1  A    between atoms: C_1  and  C_2
REMARK    2  A    between atoms: C_1  and  C_3
REMARK    3  A    between atoms: C_1  and  C_4
REMARK    4  A    between atoms: C_7  and  C_10
REMARK                            x       y       z     vdW  Elec       q    Type
REMARK                         _______ _______ _______ _____ _____    ______ ____
ROOT
ATOM      1  C   LIG A   1      -8.021  -2.953 125.503  0.00  0.00    -0.067 C 
ATOM      2  C   LIG A   1      -6.963  -2.437 126.155  0.00  0.00    -0.001 C 
ATOM      3  C   LIG A   1      -6.921  -2.334 127.594  0.00  0.00    -0.001 C 
ATOM      4  C   LIG A   1      -7.828  -2.943 128.376  0.00  0.00    -0.072 C 
ATOM      5  C   LIG A   1      -8.954  -3.746 127.771  0.00  0.00    +0.035 C 
ATOM      6  C   LIG A   1      -9.218  -3.460 126.280  0.00  0.00    +0.035 C 
ATOM      7  C   LIG A   1      -7.769  -2.890 129.872  0.00  0.00    +0.039 C 
ENDROOT
BRANCH   1   8
ATOM      8  C   LIG A   1      -8.057  -3.012 123.984  0.00  0.00    +0.009 C 
ATOM      9  C   LIG A   1      -9.475  -3.251 123.462  0.00  0.00    +0.012 C 
ATOM     10  C   LIG A   1      -7.447  -1.762 123.344  0.00  0.00    +0.012 C 
ENDBRANCH   1   8
TORSDOF 1
ENDMDL
MODEL 6
REMARK VINA RESULT:      -5.1      9.506     11.010
REMARK  Name = NuBBE_1902
REMARK  4 active torsions:
REMARK  status: ('A' for Active; 'I' for Inactive)
REMARK    1  A    between atoms: C_1  and  C_2
REMARK    2  A    between atoms: C_1  and  C_3
REMARK    3  A    between atoms: C_1  and  C_4
REMARK    4  A    between atoms: C_7  and  C_10
REMARK                            x       y       z     vdW  Elec       q    Type
REMARK                         _______ _______ _______ _____ _____    ______ ____
ROOT
ATOM      1  C   LIG A   1      -7.333   3.123 122.559  0.00  0.00    -0.067 C 
ATOM      2  C   LIG A   1      -8.450   3.246 121.818  0.00  0.00    -0.001 C 
ATOM      3  C   LIG A   1      -8.441   3.844 120.505  0.00  0.00    -0.001 C 
ATOM      4  C   LIG A   1      -7.297   4.111 119.854  0.00  0.00    -0.072 C 
ATOM      5  C   LIG A   1      -5.961   3.816 120.490  0.00  0.00    +0.035 C 
ATOM      6  C   LIG A   1      -6.006   3.614 122.016  0.00  0.00    +0.035 C 
ATOM      7  C   LIG A   1      -7.271   4.684 118.469  0.00  0.00    +0.039 C 
ENDROOT
BRANCH   1   8
ATOM      8  C   LIG A   1      -7.376   2.527 123.956  0.00  0.00    +0.009 C 
ATOM      9  C   LIG A   1      -8.525   3.108 124.783  0.00  0.00    +0.012 C 
ATOM     10  C   LIG A   1      -7.448   0.998 123.928  0.00  0.00    +0.012 C 
ENDBRANCH   1   8
TORSDOF 1
ENDMDL
MODEL 7
REMARK VINA RESULT:      -5.0     11.095     11.831
REMARK  Name = NuBBE_1902
REMARK  4 active torsions:
REMARK  status: ('A' for Active; 'I' for Inactive)
REMARK    1  A    between atoms: C_1  and  C_2
REMARK    2  A    between atoms: C_1  and  C_3
REMARK    3  A    between atoms: C_1  and  C_4
REMARK    4  A    between atoms: C_7  and  C_10
REMARK                            x       y       z     vdW  Elec       q    Type
REMARK                         _______ _______ _______ _____ _____    ______ ____
ROOT
ATOM      1  C   LIG A   1      -7.945  -2.781 126.027  0.00  0.00    -0.067 C 
ATOM      2  C   LIG A   1      -8.862  -3.455 126.745  0.00  0.00    -0.001 C 
ATOM      3  C   LIG A   1      -8.723  -3.669 128.165  0.00  0.00    -0.001 C 
ATOM      4  C   LIG A   1      -7.794  -3.027 128.892  0.00  0.00    -0.072 C 
ATOM      5  C   LIG A   1      -6.832  -2.066 128.238  0.00  0.00    +0.035 C 
ATOM      6  C   LIG A   1      -6.719  -2.210 126.709  0.00  0.00    +0.035 C 
ATOM      7  C   LIG A   1      -7.670  -3.198 130.376  0.00  0.00    +0.039 C 
ENDROOT
BRANCH   1   8
ATOM      8  C   LIG A   1      -8.095  -2.606 124.524  0.00  0.00    +0.009 C 
ATOM      9  C   LIG A   1      -6.810  -2.977 123.781  0.00  0.00    +0.012 C 
ATOM     10  C   LIG A   1      -9.288  -3.387 123.968  0.00  0.00    +0.012 C 
ENDBRANCH   1   8
TORSDOF 1
ENDMDL
MODEL 8
REMARK VINA RESULT:      -5.0     11.311     12.457
REMARK  Name = NuBBE_1902
REMARK  4 active torsions:
REMARK  status: ('A' for Active; 'I' for Inactive)
REMARK    1  A    between atoms: C_1  and  C_2
REMARK    2  A    between atoms: C_1  and  C_3
REMARK    3  A    between atoms: C_1  and  C_4
REMARK    4  A    between atoms: C_7  and  C_10
REMARK                            x       y       z     vdW  Elec       q    Type
REMARK                         _______ _______ _______ _____ _____    ______ ____
ROOT
ATOM      1  C   LIG A   1      -7.404  -2.621 127.165  0.00  0.00    -0.067 C 
ATOM      2  C   LIG A   1      -8.709  -2.947 127.134  0.00  0.00    -0.001 C 
ATOM      3  C   LIG A   1      -9.440  -3.087 125.898  0.00  0.00    -0.001 C 
ATOM      4  C   LIG A   1      -8.819  -3.119 124.707  0.00  0.00    -0.072 C 
ATOM      5  C   LIG A   1      -7.319  -2.982 124.615  0.00  0.00    +0.035 C 
ATOM      6  C   LIG A   1      -6.648  -2.396 125.871  0.00  0.00    +0.035 C 
ATOM      7  C   LIG A   1      -9.557  -3.315 123.418  0.00  0.00    +0.039 C 
ENDROOT
BRANCH   1   8
ATOM      8  C   LIG A   1      -6.668  -2.440 128.483  0.00  0.00    +0.009 C 
ATOM      9  C   LIG A   1      -7.141  -3.444 129.536  0.00  0.00    +0.012 C 
ATOM     10  C   LIG A   1      -5.149  -2.511 128.309  0.00  0.00    +0.012 C 
ENDBRANCH   1   8
TORSDOF 1
ENDMDL
MODEL 9
REMARK VINA RESULT:      -4.9     11.387     12.464
REMARK  Name = NuBBE_1902
REMARK  4 active torsions:
REMARK  status: ('A' for Active; 'I' for Inactive)
REMARK    1  A    between atoms: C_1  and  C_2
REMARK    2  A    between atoms: C_1  and  C_3
REMARK    3  A    between atoms: C_1  and  C_4
REMARK    4  A    between atoms: C_7  and  C_10
REMARK                            x       y       z     vdW  Elec       q    Type
REMARK                         _______ _______ _______ _____ _____    ______ ____
ROOT
ATOM      1  C   LIG A   1      -7.653  -2.758 126.507  0.00  0.00    -0.067 C 
ATOM      2  C   LIG A   1      -6.493  -2.115 126.284  0.00  0.00    -0.001 C 
ATOM      3  C   LIG A   1      -5.921  -1.994 124.965  0.00  0.00    -0.001 C 
ATOM      4  C   LIG A   1      -6.611  -2.318 123.859  0.00  0.00    -0.072 C 
ATOM      5  C   LIG A   1      -8.019  -2.852 123.958  0.00  0.00    +0.035 C 
ATOM      6  C   LIG A   1      -8.411  -3.379 125.352  0.00  0.00    +0.035 C 
ATOM      7  C   LIG A   1      -6.051  -2.150 122.480  0.00  0.00    +0.039 C 
ENDROOT
BRANCH   1   8
ATOM      8  C   LIG A   1      -8.214  -2.906 127.913  0.00  0.00    +0.009 C 
ATOM      9  C   LIG A   1      -9.137  -4.121 128.027  0.00  0.00    +0.012 C 
ATOM     10  C   LIG A   1      -7.109  -2.964 128.971  0.00  0.00    +0.012 C 
ENDBRANCH   1   8
TORSDOF 1
ENDMDL
