MODEL 1
REMARK VINA RESULT:      -6.7      0.000      0.000
REMARK  Name = NuBBE_20
REMARK  9 active torsions:
REMARK  status: ('A' for Active; 'I' for Inactive)
REMARK    1  A    between atoms: C_1  and  O_2
REMARK    2  A    between atoms: O_2  and  C_3
REMARK    3  A    between atoms: C_4  and  O_5
REMARK    4  A    between atoms: O_5  and  C_6
REMARK    5  A    between atoms: C_7  and  O_8
REMARK    6  A    between atoms: O_8  and  C_9
REMARK    7  A    between atoms: C_11  and  C_12
REMARK    8  A    between atoms: C_12  and  C_13
REMARK    9  A    between atoms: C_13  and  C_14
REMARK                            x       y       z     vdW  Elec       q    Type
REMARK                         _______ _______ _______ _____ _____    ______ ____
ROOT
ATOM      1  C   LIG A   1      -4.495   6.263 133.059  0.00  0.00    +0.165 A 
ATOM      2  C   LIG A   1      -4.071   7.016 131.939  0.00  0.00    +0.203 A 
ATOM      3  C   LIG A   1      -4.985   7.287 130.902  0.00  0.00    +0.165 A 
ATOM      4  C   LIG A   1      -6.306   6.825 131.003  0.00  0.00    +0.053 A 
ATOM      5  C   LIG A   1      -6.730   6.090 132.115  0.00  0.00    -0.040 A 
ATOM      6  C   LIG A   1      -5.814   5.803 133.131  0.00  0.00    +0.053 A 
ENDROOT
BRANCH   1   8
ATOM      7  C   LIG A   1      -3.877   6.273 135.360  0.00  0.00    +0.277 C 
ATOM      8  O   LIG A   1      -3.547   5.959 134.011  0.00  0.00    -0.491 OA
ENDBRANCH   1   8
BRANCH   2   9
ATOM      9  O   LIG A   1      -2.745   7.376 131.941  0.00  0.00    -0.488 OA
ATOM     10  C   LIG A   1      -2.390   8.662 132.433  0.00  0.00    +0.277 C 
ENDBRANCH   2   9
BRANCH   3  11
ATOM     11  O   LIG A   1      -4.543   7.896 129.753  0.00  0.00    -0.491 OA
ATOM     12  C   LIG A   1      -3.902   7.027 128.820  0.00  0.00    +0.277 C 
ENDBRANCH   3  11
BRANCH   5  13
ATOM     13  C   LIG A   1      -8.130   5.517 132.160  0.00  0.00    +0.044 C 
BRANCH  13  14
ATOM     14  C   LIG A   1      -8.902   5.923 130.906  0.00  0.00    +0.101 C 
BRANCH  14  15
ATOM     15  C   LIG A   1     -10.242   6.580 131.203  0.00  0.00    +0.222 C 
ATOM     16  N   LIG A   1     -10.921   7.167 130.123  0.00  0.00    -0.238 N 
ATOM     17  C   LIG A   1     -12.238   7.749 130.422  0.00  0.00    +0.120 C 
ATOM     18  C   LIG A   1     -12.686   8.857 129.464  0.00  0.00    +0.047 C 
ATOM     19  C   LIG A   1     -12.295   8.574 128.057  0.00  0.00    -0.020 C 
ATOM     20  C   LIG A   1     -11.330   7.689 127.763  0.00  0.00    +0.064 C 
ATOM     21  C   LIG A   1     -10.546   6.979 128.796  0.00  0.00    +0.245 C 
ATOM     22  O   LIG A   1      -9.610   6.304 128.383  0.00  0.00    -0.270 OA
ATOM     23  O   LIG A   1     -10.706   6.577 132.346  0.00  0.00    -0.275 OA
ENDBRANCH  14  15
ENDBRANCH  13  14
ENDBRANCH   5  13
TORSDOF 6
ENDMDL
MODEL 2
REMARK VINA RESULT:      -6.7      1.903      2.597
REMARK  Name = NuBBE_20
REMARK  9 active torsions:
REMARK  status: ('A' for Active; 'I' for Inactive)
REMARK    1  A    between atoms: C_1  and  O_2
REMARK    2  A    between atoms: O_2  and  C_3
REMARK    3  A    between atoms: C_4  and  O_5
REMARK    4  A    between atoms: O_5  and  C_6
REMARK    5  A    between atoms: C_7  and  O_8
REMARK    6  A    between atoms: O_8  and  C_9
REMARK    7  A    between atoms: C_11  and  C_12
REMARK    8  A    between atoms: C_12  and  C_13
REMARK    9  A    between atoms: C_13  and  C_14
REMARK                            x       y       z     vdW  Elec       q    Type
REMARK                         _______ _______ _______ _____ _____    ______ ____
ROOT
ATOM      1  C   LIG A   1      -4.133   6.520 130.436  0.00  0.00    +0.165 A 
ATOM      2  C   LIG A   1      -4.097   5.288 129.741  0.00  0.00    +0.203 A 
ATOM      3  C   LIG A   1      -5.276   4.526 129.623  0.00  0.00    +0.165 A 
ATOM      4  C   LIG A   1      -6.472   5.007 130.178  0.00  0.00    +0.053 A 
ATOM      5  C   LIG A   1      -6.512   6.230 130.855  0.00  0.00    -0.040 A 
ATOM      6  C   LIG A   1      -5.335   6.972 130.991  0.00  0.00    +0.053 A 
ENDROOT
BRANCH   1   8
ATOM      7  C   LIG A   1      -2.687   7.747 131.877  0.00  0.00    +0.277 C 
ATOM      8  O   LIG A   1      -2.942   7.193 130.591  0.00  0.00    -0.491 OA
ENDBRANCH   1   8
BRANCH   2   9
ATOM      9  O   LIG A   1      -2.860   4.910 129.279  0.00  0.00    -0.488 OA
ATOM     10  C   LIG A   1      -2.543   5.144 127.913  0.00  0.00    +0.277 C 
ENDBRANCH   2   9
BRANCH   3  11
ATOM     11  O   LIG A   1      -5.217   3.269 129.072  0.00  0.00    -0.491 OA
ATOM     12  C   LIG A   1      -5.728   3.170 127.744  0.00  0.00    +0.277 C 
ENDBRANCH   3  11
BRANCH   5  13
ATOM     13  C   LIG A   1      -7.788   6.685 131.530  0.00  0.00    +0.044 C 
BRANCH  13  14
ATOM     14  C   LIG A   1      -8.969   5.858 131.027  0.00  0.00    +0.101 C 
BRANCH  14  15
ATOM     15  C   LIG A   1     -10.320   6.512 131.278  0.00  0.00    +0.222 C 
ATOM     16  N   LIG A   1     -10.965   7.093 130.174  0.00  0.00    -0.238 N 
ATOM     17  C   LIG A   1     -12.293   7.673 130.427  0.00  0.00    +0.120 C 
ATOM     18  C   LIG A   1     -12.712   8.775 129.451  0.00  0.00    +0.047 C 
ATOM     19  C   LIG A   1     -12.276   8.487 128.059  0.00  0.00    -0.020 C 
ATOM     20  C   LIG A   1     -11.300   7.603 127.800  0.00  0.00    +0.064 C 
ATOM     21  C   LIG A   1     -10.547   6.900 128.860  0.00  0.00    +0.245 C 
ATOM     22  O   LIG A   1      -9.596   6.225 128.481  0.00  0.00    -0.270 OA
ATOM     23  O   LIG A   1     -10.820   6.513 132.405  0.00  0.00    -0.275 OA
ENDBRANCH  14  15
ENDBRANCH  13  14
ENDBRANCH   5  13
TORSDOF 6
ENDMDL
MODEL 3
REMARK VINA RESULT:      -6.6      1.194      2.816
REMARK  Name = NuBBE_20
REMARK  9 active torsions:
REMARK  status: ('A' for Active; 'I' for Inactive)
REMARK    1  A    between atoms: C_1  and  O_2
REMARK    2  A    between atoms: O_2  and  C_3
REMARK    3  A    between atoms: C_4  and  O_5
REMARK    4  A    between atoms: O_5  and  C_6
REMARK    5  A    between atoms: C_7  and  O_8
REMARK    6  A    between atoms: O_8  and  C_9
REMARK    7  A    between atoms: C_11  and  C_12
REMARK    8  A    between atoms: C_12  and  C_13
REMARK    9  A    between atoms: C_13  and  C_14
REMARK                            x       y       z     vdW  Elec       q    Type
REMARK                         _______ _______ _______ _____ _____    ______ ____
ROOT
ATOM      1  C   LIG A   1      -4.653   7.243 131.002  0.00  0.00    +0.165 A 
ATOM      2  C   LIG A   1      -3.826   6.799 132.059  0.00  0.00    +0.203 A 
ATOM      3  C   LIG A   1      -4.401   6.108 133.143  0.00  0.00    +0.165 A 
ATOM      4  C   LIG A   1      -5.781   5.851 133.150  0.00  0.00    +0.053 A 
ATOM      5  C   LIG A   1      -6.599   6.280 132.099  0.00  0.00    -0.040 A 
ATOM      6  C   LIG A   1      -6.028   6.986 131.037  0.00  0.00    +0.053 A 
ENDROOT
BRANCH   1   8
ATOM      7  C   LIG A   1      -3.822   7.306 128.769  0.00  0.00    +0.277 C 
ATOM      8  O   LIG A   1      -4.059   7.980 130.001  0.00  0.00    -0.491 OA
ENDBRANCH   1   8
BRANCH   2   9
ATOM      9  O   LIG A   1      -2.501   7.147 131.954  0.00  0.00    -0.488 OA
ATOM     10  C   LIG A   1      -1.578   6.174 131.479  0.00  0.00    +0.277 C 
ENDBRANCH   2   9
BRANCH   3  11
ATOM     11  O   LIG A   1      -3.627   5.797 134.235  0.00  0.00    -0.491 OA
ATOM     12  C   LIG A   1      -3.542   4.405 134.536  0.00  0.00    +0.277 C 
ENDBRANCH   3  11
BRANCH   5  13
ATOM     13  C   LIG A   1      -8.097   6.080 132.172  0.00  0.00    +0.044 C 
BRANCH  13  14
ATOM     14  C   LIG A   1      -8.764   6.663 130.928  0.00  0.00    +0.101 C 
BRANCH  14  15
ATOM     15  C   LIG A   1     -10.109   6.029 130.606  0.00  0.00    +0.222 C 
ATOM     16  N   LIG A   1     -10.956   6.734 129.735  0.00  0.00    -0.238 N 
ATOM     17  C   LIG A   1     -12.229   6.079 129.394  0.00  0.00    +0.120 C 
ATOM     18  C   LIG A   1     -13.352   7.031 128.973  0.00  0.00    +0.047 C 
ATOM     19  C   LIG A   1     -12.848   8.162 128.148  0.00  0.00    -0.020 C 
ATOM     20  C   LIG A   1     -11.551   8.503 128.146  0.00  0.00    +0.064 C 
ATOM     21  C   LIG A   1     -10.541   7.837 128.995  0.00  0.00    +0.245 C 
ATOM     22  O   LIG A   1      -9.423   8.341 128.989  0.00  0.00    -0.270 OA
ATOM     23  O   LIG A   1     -10.422   4.937 131.085  0.00  0.00    -0.275 OA
ENDBRANCH  14  15
ENDBRANCH  13  14
ENDBRANCH   5  13
TORSDOF 6
ENDMDL
MODEL 4
REMARK VINA RESULT:      -6.6      1.615      2.892
REMARK  Name = NuBBE_20
REMARK  9 active torsions:
REMARK  status: ('A' for Active; 'I' for Inactive)
REMARK    1  A    between atoms: C_1  and  O_2
REMARK    2  A    between atoms: O_2  and  C_3
REMARK    3  A    between atoms: C_4  and  O_5
REMARK    4  A    between atoms: O_5  and  C_6
REMARK    5  A    between atoms: C_7  and  O_8
REMARK    6  A    between atoms: O_8  and  C_9
REMARK    7  A    between atoms: C_11  and  C_12
REMARK    8  A    between atoms: C_12  and  C_13
REMARK    9  A    between atoms: C_13  and  C_14
REMARK                            x       y       z     vdW  Elec       q    Type
REMARK                         _______ _______ _______ _____ _____    ______ ____
ROOT
ATOM      1  C   LIG A   1      -4.901   5.069 129.415  0.00  0.00    +0.165 A 
ATOM      2  C   LIG A   1      -3.831   5.900 129.818  0.00  0.00    +0.203 A 
ATOM      3  C   LIG A   1      -4.029   6.825 130.862  0.00  0.00    +0.165 A 
ATOM      4  C   LIG A   1      -5.277   6.895 131.501  0.00  0.00    +0.053 A 
ATOM      5  C   LIG A   1      -6.333   6.065 131.110  0.00  0.00    -0.040 A 
ATOM      6  C   LIG A   1      -6.140   5.165 130.058  0.00  0.00    +0.053 A 
ENDROOT
BRANCH   1   8
ATOM      7  C   LIG A   1      -5.815   3.525 127.847  0.00  0.00    +0.277 C 
ATOM      8  O   LIG A   1      -4.684   4.234 128.341  0.00  0.00    -0.491 OA
ENDBRANCH   1   8
BRANCH   2   9
ATOM      9  O   LIG A   1      -2.674   5.763 129.090  0.00  0.00    -0.488 OA
ATOM     10  C   LIG A   1      -2.342   6.773 128.146  0.00  0.00    +0.277 C 
ENDBRANCH   2   9
BRANCH   3  11
ATOM     11  O   LIG A   1      -3.039   7.728 131.164  0.00  0.00    -0.491 OA
ATOM     12  C   LIG A   1      -2.615   7.723 132.526  0.00  0.00    +0.277 C 
ENDBRANCH   3  11
BRANCH   5  13
ATOM     13  C   LIG A   1      -7.699   6.223 131.745  0.00  0.00    +0.044 C 
BRANCH  13  14
ATOM     14  C   LIG A   1      -8.790   5.986 130.703  0.00  0.00    +0.101 C 
BRANCH  14  15
ATOM     15  C   LIG A   1     -10.131   6.601 131.078  0.00  0.00    +0.222 C 
ATOM     16  N   LIG A   1     -10.886   7.171 130.040  0.00  0.00    -0.238 N 
ATOM     17  C   LIG A   1     -12.202   7.712 130.415  0.00  0.00    +0.120 C 
ATOM     18  C   LIG A   1     -12.735   8.809 129.489  0.00  0.00    +0.047 C 
ATOM     19  C   LIG A   1     -12.414   8.543 128.061  0.00  0.00    -0.020 C 
ATOM     20  C   LIG A   1     -11.441   7.689 127.709  0.00  0.00    +0.064 C 
ATOM     21  C   LIG A   1     -10.580   7.000 128.693  0.00  0.00    +0.245 C 
ATOM     22  O   LIG A   1      -9.648   6.354 128.226  0.00  0.00    -0.270 OA
ATOM     23  O   LIG A   1     -10.530   6.579 132.245  0.00  0.00    -0.275 OA
ENDBRANCH  14  15
ENDBRANCH  13  14
ENDBRANCH   5  13
TORSDOF 6
ENDMDL
MODEL 5
REMARK VINA RESULT:      -6.4      9.863     12.197
REMARK  Name = NuBBE_20
REMARK  9 active torsions:
REMARK  status: ('A' for Active; 'I' for Inactive)
REMARK    1  A    between atoms: C_1  and  O_2
REMARK    2  A    between atoms: O_2  and  C_3
REMARK    3  A    between atoms: C_4  and  O_5
REMARK    4  A    between atoms: O_5  and  C_6
REMARK    5  A    between atoms: C_7  and  O_8
REMARK    6  A    between atoms: O_8  and  C_9
REMARK    7  A    between atoms: C_11  and  C_12
REMARK    8  A    between atoms: C_12  and  C_13
REMARK    9  A    between atoms: C_13  and  C_14
REMARK                            x       y       z     vdW  Elec       q    Type
REMARK                         _______ _______ _______ _____ _____    ______ ____
ROOT
ATOM      1  C   LIG A   1      -8.637  -2.221 125.013  0.00  0.00    +0.165 A 
ATOM      2  C   LIG A   1      -7.373  -1.611 124.831  0.00  0.00    +0.203 A 
ATOM      3  C   LIG A   1      -6.454  -1.595 125.898  0.00  0.00    +0.165 A 
ATOM      4  C   LIG A   1      -6.795  -2.200 127.118  0.00  0.00    +0.053 A 
ATOM      5  C   LIG A   1      -8.039  -2.813 127.296  0.00  0.00    -0.040 A 
ATOM      6  C   LIG A   1      -8.958  -2.806 126.243  0.00  0.00    +0.053 A 
ENDROOT
BRANCH   1   8
ATOM      7  C   LIG A   1      -9.739  -3.340 123.221  0.00  0.00    +0.277 C 
ATOM      8  O   LIG A   1      -9.531  -2.145 123.968  0.00  0.00    -0.491 OA
ENDBRANCH   1   8
BRANCH   2   9
ATOM      9  O   LIG A   1      -7.177  -1.021 123.607  0.00  0.00    -0.488 OA
ATOM     10  C   LIG A   1      -6.400  -1.711 122.636  0.00  0.00    +0.277 C 
ENDBRANCH   2   9
BRANCH   3  11
ATOM     11  O   LIG A   1      -5.284  -0.886 125.773  0.00  0.00    -0.491 OA
ATOM     12  C   LIG A   1      -5.326   0.441 126.295  0.00  0.00    +0.277 C 
ENDBRANCH   3  11
BRANCH   5  13
ATOM     13  C   LIG A   1      -8.425  -3.374 128.648  0.00  0.00    +0.044 C 
BRANCH  13  14
ATOM     14  C   LIG A   1      -7.178  -3.583 129.502  0.00  0.00    +0.101 C 
BRANCH  14  15
ATOM     15  C   LIG A   1      -7.249  -2.898 130.859  0.00  0.00    +0.222 C 
ATOM     16  N   LIG A   1      -6.621  -3.544 131.937  0.00  0.00    -0.238 N 
ATOM     17  C   LIG A   1      -6.655  -2.839 133.227  0.00  0.00    +0.120 C 
ATOM     18  C   LIG A   1      -6.528  -3.741 134.458  0.00  0.00    +0.047 C 
ATOM     19  C   LIG A   1      -5.567  -4.855 134.240  0.00  0.00    -0.020 C 
ATOM     20  C   LIG A   1      -5.204  -5.235 133.005  0.00  0.00    +0.064 C 
ATOM     21  C   LIG A   1      -5.766  -4.631 131.779  0.00  0.00    +0.245 C 
ATOM     22  O   LIG A   1      -5.444  -5.168 130.725  0.00  0.00    -0.270 OA
ATOM     23  O   LIG A   1      -7.825  -1.815 130.989  0.00  0.00    -0.275 OA
ENDBRANCH  14  15
ENDBRANCH  13  14
ENDBRANCH   5  13
TORSDOF 6
ENDMDL
MODEL 6
REMARK VINA RESULT:      -6.4      1.930      2.379
REMARK  Name = NuBBE_20
REMARK  9 active torsions:
REMARK  status: ('A' for Active; 'I' for Inactive)
REMARK    1  A    between atoms: C_1  and  O_2
REMARK    2  A    between atoms: O_2  and  C_3
REMARK    3  A    between atoms: C_4  and  O_5
REMARK    4  A    between atoms: O_5  and  C_6
REMARK    5  A    between atoms: C_7  and  O_8
REMARK    6  A    between atoms: O_8  and  C_9
REMARK    7  A    between atoms: C_11  and  C_12
REMARK    8  A    between atoms: C_12  and  C_13
REMARK    9  A    between atoms: C_13  and  C_14
REMARK                            x       y       z     vdW  Elec       q    Type
REMARK                         _______ _______ _______ _____ _____    ______ ____
ROOT
ATOM      1  C   LIG A   1      -5.850   4.216 131.390  0.00  0.00    +0.165 A 
ATOM      2  C   LIG A   1      -5.089   5.221 130.748  0.00  0.00    +0.203 A 
ATOM      3  C   LIG A   1      -5.611   6.525 130.649  0.00  0.00    +0.165 A 
ATOM      4  C   LIG A   1      -6.867   6.816 131.204  0.00  0.00    +0.053 A 
ATOM      5  C   LIG A   1      -7.616   5.826 131.850  0.00  0.00    -0.040 A 
ATOM      6  C   LIG A   1      -7.105   4.527 131.925  0.00  0.00    +0.053 A 
ENDROOT
BRANCH   1   8
ATOM      7  C   LIG A   1      -5.751   2.089 132.459  0.00  0.00    +0.277 C 
ATOM      8  O   LIG A   1      -5.334   2.940 131.396  0.00  0.00    -0.491 OA
ENDBRANCH   1   8
BRANCH   2   9
ATOM      9  O   LIG A   1      -3.896   4.802 130.212  0.00  0.00    -0.488 OA
ATOM     10  C   LIG A   1      -3.855   4.454 128.833  0.00  0.00    +0.277 C 
ENDBRANCH   2   9
BRANCH   3  11
ATOM     11  O   LIG A   1      -4.941   7.468 129.907  0.00  0.00    -0.491 OA
ATOM     12  C   LIG A   1      -3.844   8.089 130.575  0.00  0.00    +0.277 C 
ENDBRANCH   3  11
BRANCH   5  13
ATOM     13  C   LIG A   1      -9.008   6.134 132.356  0.00  0.00    +0.044 C 
BRANCH  13  14
ATOM     14  C   LIG A   1     -10.048   5.417 131.498  0.00  0.00    +0.101 C 
BRANCH  14  15
ATOM     15  C   LIG A   1     -11.257   6.278 131.163  0.00  0.00    +0.222 C 
ATOM     16  N   LIG A   1     -11.275   6.892 129.900  0.00  0.00    -0.238 N 
ATOM     17  C   LIG A   1     -12.476   7.676 129.575  0.00  0.00    +0.120 C 
ATOM     18  C   LIG A   1     -12.265   8.778 128.533  0.00  0.00    +0.047 C 
ATOM     19  C   LIG A   1     -11.331   8.358 127.454  0.00  0.00    -0.020 C 
ATOM     20  C   LIG A   1     -10.489   7.326 127.618  0.00  0.00    +0.064 C 
ATOM     21  C   LIG A   1     -10.376   6.573 128.885  0.00  0.00    +0.245 C 
ATOM     22  O   LIG A   1      -9.473   5.745 128.934  0.00  0.00    -0.270 OA
ATOM     23  O   LIG A   1     -12.180   6.410 131.969  0.00  0.00    -0.275 OA
ENDBRANCH  14  15
ENDBRANCH  13  14
ENDBRANCH   5  13
TORSDOF 6
ENDMDL
MODEL 7
REMARK VINA RESULT:      -6.4     10.167     11.039
REMARK  Name = NuBBE_20
REMARK  9 active torsions:
REMARK  status: ('A' for Active; 'I' for Inactive)
REMARK    1  A    between atoms: C_1  and  O_2
REMARK    2  A    between atoms: O_2  and  C_3
REMARK    3  A    between atoms: C_4  and  O_5
REMARK    4  A    between atoms: O_5  and  C_6
REMARK    5  A    between atoms: C_7  and  O_8
REMARK    6  A    between atoms: O_8  and  C_9
REMARK    7  A    between atoms: C_11  and  C_12
REMARK    8  A    between atoms: C_12  and  C_13
REMARK    9  A    between atoms: C_13  and  C_14
REMARK                            x       y       z     vdW  Elec       q    Type
REMARK                         _______ _______ _______ _____ _____    ______ ____
ROOT
ATOM      1  C   LIG A   1      -5.017  -3.193 130.681  0.00  0.00    +0.165 A 
ATOM      2  C   LIG A   1      -5.515  -2.861 131.963  0.00  0.00    +0.203 A 
ATOM      3  C   LIG A   1      -6.905  -2.734 132.152  0.00  0.00    +0.165 A 
ATOM      4  C   LIG A   1      -7.776  -2.958 131.074  0.00  0.00    +0.053 A 
ATOM      5  C   LIG A   1      -7.285  -3.298 129.809  0.00  0.00    -0.040 A 
ATOM      6  C   LIG A   1      -5.904  -3.400 129.620  0.00  0.00    +0.053 A 
ENDROOT
BRANCH   1   8
ATOM      7  C   LIG A   1      -3.164  -3.670 129.261  0.00  0.00    +0.277 C 
ATOM      8  O   LIG A   1      -3.649  -3.231 130.526  0.00  0.00    -0.491 OA
ENDBRANCH   1   8
BRANCH   2   9
ATOM      9  O   LIG A   1      -4.560  -2.628 132.922  0.00  0.00    -0.488 OA
ATOM     10  C   LIG A   1      -4.329  -3.626 133.908  0.00  0.00    +0.277 C 
ENDBRANCH   2   9
BRANCH   3  11
ATOM     11  O   LIG A   1      -7.385  -2.277 133.355  0.00  0.00    -0.491 OA
ATOM     12  C   LIG A   1      -8.160  -3.222 134.092  0.00  0.00    +0.277 C 
ENDBRANCH   3  11
BRANCH   5  13
ATOM     13  C   LIG A   1      -8.234  -3.440 128.638  0.00  0.00    +0.044 C 
BRANCH  13  14
ATOM     14  C   LIG A   1      -7.883  -2.424 127.555  0.00  0.00    +0.101 C 
BRANCH  14  15
ATOM     15  C   LIG A   1      -8.548  -2.709 126.216  0.00  0.00    +0.222 C 
ATOM     16  N   LIG A   1      -7.770  -2.520 125.062  0.00  0.00    -0.238 N 
ATOM     17  C   LIG A   1      -8.414  -2.852 123.782  0.00  0.00    +0.120 C 
ATOM     18  C   LIG A   1      -7.842  -2.122 122.563  0.00  0.00    +0.047 C 
ATOM     19  C   LIG A   1      -6.364  -1.974 122.641  0.00  0.00    -0.020 C 
ATOM     20  C   LIG A   1      -5.708  -2.092 123.806  0.00  0.00    +0.064 C 
ATOM     21  C   LIG A   1      -6.394  -2.313 125.097  0.00  0.00    +0.245 C 
ATOM     22  O   LIG A   1      -5.681  -2.266 126.093  0.00  0.00    -0.270 OA
ATOM     23  O   LIG A   1      -9.715  -3.103 126.163  0.00  0.00    -0.275 OA
ENDBRANCH  14  15
ENDBRANCH  13  14
ENDBRANCH   5  13
TORSDOF 6
ENDMDL
MODEL 8
REMARK VINA RESULT:      -6.4      1.322      1.945
REMARK  Name = NuBBE_20
REMARK  9 active torsions:
REMARK  status: ('A' for Active; 'I' for Inactive)
REMARK    1  A    between atoms: C_1  and  O_2
REMARK    2  A    between atoms: O_2  and  C_3
REMARK    3  A    between atoms: C_4  and  O_5
REMARK    4  A    between atoms: O_5  and  C_6
REMARK    5  A    between atoms: C_7  and  O_8
REMARK    6  A    between atoms: O_8  and  C_9
REMARK    7  A    between atoms: C_11  and  C_12
REMARK    8  A    between atoms: C_12  and  C_13
REMARK    9  A    between atoms: C_13  and  C_14
REMARK                            x       y       z     vdW  Elec       q    Type
REMARK                         _______ _______ _______ _____ _____    ______ ____
ROOT
ATOM      1  C   LIG A   1      -5.599   5.028 133.363  0.00  0.00    +0.165 A 
ATOM      2  C   LIG A   1      -4.262   5.356 133.040  0.00  0.00    +0.203 A 
ATOM      3  C   LIG A   1      -4.007   6.271 132.001  0.00  0.00    +0.165 A 
ATOM      4  C   LIG A   1      -5.080   6.860 131.314  0.00  0.00    +0.053 A 
ATOM      5  C   LIG A   1      -6.403   6.545 131.640  0.00  0.00    -0.040 A 
ATOM      6  C   LIG A   1      -6.653   5.619 132.656  0.00  0.00    +0.053 A 
ENDROOT
BRANCH   1   8
ATOM      7  C   LIG A   1      -6.339   4.524 135.571  0.00  0.00    +0.277 C 
ATOM      8  O   LIG A   1      -5.799   4.072 134.334  0.00  0.00    -0.491 OA
ENDBRANCH   1   8
BRANCH   2   9
ATOM      9  O   LIG A   1      -3.303   4.683 133.757  0.00  0.00    -0.488 OA
ATOM     10  C   LIG A   1      -2.667   3.562 133.157  0.00  0.00    +0.277 C 
ENDBRANCH   2   9
BRANCH   3  11
ATOM     11  O   LIG A   1      -2.713   6.487 131.591  0.00  0.00    -0.491 OA
ATOM     12  C   LIG A   1      -2.499   6.370 130.185  0.00  0.00    +0.277 C 
ENDBRANCH   3  11
BRANCH   5  13
ATOM     13  C   LIG A   1      -7.544   7.116 130.825  0.00  0.00    +0.044 C 
BRANCH  13  14
ATOM     14  C   LIG A   1      -8.650   6.075 130.673  0.00  0.00    +0.101 C 
BRANCH  14  15
ATOM     15  C   LIG A   1     -10.021   6.580 131.100  0.00  0.00    +0.222 C 
ATOM     16  N   LIG A   1     -10.865   7.073 130.091  0.00  0.00    -0.238 N 
ATOM     17  C   LIG A   1     -12.204   7.506 130.517  0.00  0.00    +0.120 C 
ATOM     18  C   LIG A   1     -12.867   8.544 129.606  0.00  0.00    +0.047 C 
ATOM     19  C   LIG A   1     -12.585   8.290 128.168  0.00  0.00    -0.020 C 
ATOM     20  C   LIG A   1     -11.559   7.516 127.782  0.00  0.00    +0.064 C 
ATOM     21  C   LIG A   1     -10.602   6.912 128.733  0.00  0.00    +0.245 C 
ATOM     22  O   LIG A   1      -9.640   6.342 128.231  0.00  0.00    -0.270 OA
ATOM     23  O   LIG A   1     -10.368   6.538 132.283  0.00  0.00    -0.275 OA
ENDBRANCH  14  15
ENDBRANCH  13  14
ENDBRANCH   5  13
TORSDOF 6
ENDMDL
MODEL 9
REMARK VINA RESULT:      -6.2      8.938     10.391
REMARK  Name = NuBBE_20
REMARK  9 active torsions:
REMARK  status: ('A' for Active; 'I' for Inactive)
REMARK    1  A    between atoms: C_1  and  O_2
REMARK    2  A    between atoms: O_2  and  C_3
REMARK    3  A    between atoms: C_4  and  O_5
REMARK    4  A    between atoms: O_5  and  C_6
REMARK    5  A    between atoms: C_7  and  O_8
REMARK    6  A    between atoms: O_8  and  C_9
REMARK    7  A    between atoms: C_11  and  C_12
REMARK    8  A    between atoms: C_12  and  C_13
REMARK    9  A    between atoms: C_13  and  C_14
REMARK                            x       y       z     vdW  Elec       q    Type
REMARK                         _______ _______ _______ _____ _____    ______ ____
ROOT
ATOM      1  C   LIG A   1      -7.655  -0.285 131.280  0.00  0.00    +0.165 A 
ATOM      2  C   LIG A   1      -7.333  -0.913 132.506  0.00  0.00    +0.203 A 
ATOM      3  C   LIG A   1      -7.238  -2.317 132.558  0.00  0.00    +0.165 A 
ATOM      4  C   LIG A   1      -7.444  -3.072 131.393  0.00  0.00    +0.053 A 
ATOM      5  C   LIG A   1      -7.752  -2.451 130.178  0.00  0.00    -0.040 A 
ATOM      6  C   LIG A   1      -7.868  -1.059 130.134  0.00  0.00    +0.053 A 
ENDROOT
BRANCH   1   8
ATOM      7  C   LIG A   1      -8.078   1.706 130.041  0.00  0.00    +0.277 C 
ATOM      8  O   LIG A   1      -7.811   1.083 131.294  0.00  0.00    -0.491 OA
ENDBRANCH   1   8
BRANCH   2   9
ATOM      9  O   LIG A   1      -7.195  -0.069 133.580  0.00  0.00    -0.488 OA
ATOM     10  C   LIG A   1      -5.884   0.265 134.018  0.00  0.00    +0.277 C 
ENDBRANCH   2   9
BRANCH   3  11
ATOM     11  O   LIG A   1      -7.064  -2.939 133.771  0.00  0.00    -0.491 OA
ATOM     12  C   LIG A   1      -8.230  -3.573 134.296  0.00  0.00    +0.277 C 
ENDBRANCH   3  11
BRANCH   5  13
ATOM     13  C   LIG A   1      -8.066  -3.286 128.955  0.00  0.00    +0.044 C 
BRANCH  13  14
ATOM     14  C   LIG A   1      -7.514  -2.609 127.703  0.00  0.00    +0.101 C 
BRANCH  14  15
ATOM     15  C   LIG A   1      -8.327  -2.895 126.449  0.00  0.00    +0.222 C 
ATOM     16  N   LIG A   1      -7.715  -2.624 125.214  0.00  0.00    -0.238 N 
ATOM     17  C   LIG A   1      -8.498  -2.957 124.013  0.00  0.00    +0.120 C 
ATOM     18  C   LIG A   1      -8.129  -2.158 122.761  0.00  0.00    +0.047 C 
ATOM     19  C   LIG A   1      -6.665  -1.922 122.657  0.00  0.00    -0.020 C 
ATOM     20  C   LIG A   1      -5.860  -2.034 123.724  0.00  0.00    +0.064 C 
ATOM     21  C   LIG A   1      -6.360  -2.335 125.083  0.00  0.00    +0.245 C 
ATOM     22  O   LIG A   1      -5.529  -2.275 125.982  0.00  0.00    -0.270 OA
ATOM     23  O   LIG A   1      -9.468  -3.357 126.529  0.00  0.00    -0.275 OA
ENDBRANCH  14  15
ENDBRANCH  13  14
ENDBRANCH   5  13
TORSDOF 6
ENDMDL
