MODEL 1
REMARK VINA RESULT:      -7.1      0.000      0.000
REMARK  Name = NuBBE_1846
REMARK  8 active torsions:
REMARK  status: ('A' for Active; 'I' for Inactive)
REMARK    1  A    between atoms: O_1  and  C_2
REMARK    2  A    between atoms: C_3  and  C_4
REMARK    3  A    between atoms: C_4  and  C_5
REMARK    4  A    between atoms: C_6  and  C_7
REMARK    5  A    between atoms: C_9  and  O_10
REMARK    6  A    between atoms: O_10  and  C_11
REMARK    7  A    between atoms: C_12  and  O_13
REMARK    8  A    between atoms: C_19  and  O_20
REMARK                            x       y       z     vdW  Elec       q    Type
REMARK                         _______ _______ _______ _____ _____    ______ ____
ROOT
ATOM      1  C   LIG A   1     -10.201   5.428 130.057  0.00  0.00    +0.190 C 
ATOM      2  O   LIG A   1     -10.756   4.338 130.032  0.00  0.00    -0.287 OA
ENDROOT
BRANCH   1   4
ATOM      3  C   LIG A   1     -12.010   7.081 130.558  0.00  0.00    +0.131 A 
ATOM      4  C   LIG A   1     -10.967   6.662 129.717  0.00  0.00    +0.063 A 
ATOM      5  C   LIG A   1     -10.659   7.432 128.583  0.00  0.00    +0.019 A 
ATOM      6  C   LIG A   1     -11.395   8.585 128.287  0.00  0.00    +0.046 A 
ATOM      7  C   LIG A   1     -12.415   8.986 129.143  0.00  0.00    +0.120 A 
ATOM      8  C   LIG A   1     -12.722   8.247 130.280  0.00  0.00    +0.091 A 
BRANCH   3   9
ATOM      9  O   LIG A   1     -12.410   6.376 131.663  0.00  0.00    -0.506 OA
ATOM     10  H   LIG A   1     -12.144   5.438 131.545  0.00  0.00    +0.292 HD
ENDBRANCH   3   9
BRANCH   7  11
ATOM     11  O   LIG A   1     -13.147  10.110 128.897  0.00  0.00    -0.507 OA
ATOM     12  H   LIG A   1     -13.611  10.374 129.708  0.00  0.00    +0.292 HD
ENDBRANCH   7  11
ENDBRANCH   1   4
BRANCH   1  13
ATOM     13  C   LIG A   1      -8.741   5.565 130.314  0.00  0.00    +0.052 C 
ATOM     14  C   LIG A   1      -8.275   6.326 131.317  0.00  0.00    +0.012 C 
BRANCH  14  15
ATOM     15  C   LIG A   1      -6.842   6.426 131.643  0.00  0.00    -0.021 A 
ATOM     16  C   LIG A   1      -5.984   7.137 130.786  0.00  0.00    +0.057 A 
ATOM     17  C   LIG A   1      -4.623   7.259 131.087  0.00  0.00    +0.162 A 
ATOM     18  C   LIG A   1      -4.135   6.697 132.269  0.00  0.00    +0.159 A 
ATOM     19  C   LIG A   1      -4.964   6.000 133.134  0.00  0.00    +0.050 A 
ATOM     20  C   LIG A   1      -6.316   5.871 132.823  0.00  0.00    +0.012 A 
BRANCH  17  21
ATOM     21  O   LIG A   1      -3.698   7.934 130.331  0.00  0.00    -0.491 OA
ATOM     22  C   LIG A   1      -3.601   7.515 128.973  0.00  0.00    +0.277 C 
ENDBRANCH  17  21
BRANCH  18  23
ATOM     23  O   LIG A   1      -2.812   6.813 132.600  0.00  0.00    -0.503 OA
ATOM     24  H   LIG A   1      -2.458   5.904 132.555  0.00  0.00    +0.292 HD
ENDBRANCH  18  23
ENDBRANCH  14  15
ENDBRANCH   1  13
TORSDOF 7
ENDMDL
MODEL 2
REMARK VINA RESULT:      -7.0      2.042      7.535
REMARK  Name = NuBBE_1846
REMARK  8 active torsions:
REMARK  status: ('A' for Active; 'I' for Inactive)
REMARK    1  A    between atoms: O_1  and  C_2
REMARK    2  A    between atoms: C_3  and  C_4
REMARK    3  A    between atoms: C_4  and  C_5
REMARK    4  A    between atoms: C_6  and  C_7
REMARK    5  A    between atoms: C_9  and  O_10
REMARK    6  A    between atoms: O_10  and  C_11
REMARK    7  A    between atoms: C_12  and  O_13
REMARK    8  A    between atoms: C_19  and  O_20
REMARK                            x       y       z     vdW  Elec       q    Type
REMARK                         _______ _______ _______ _____ _____    ______ ____
ROOT
ATOM      1  C   LIG A   1      -4.260   6.643 131.628  0.00  0.00    +0.190 C 
ATOM      2  O   LIG A   1      -3.533   7.348 132.314  0.00  0.00    -0.287 OA
ENDROOT
BRANCH   1   4
ATOM      3  C   LIG A   1      -3.365   6.791 129.297  0.00  0.00    +0.131 A 
ATOM      4  C   LIG A   1      -3.722   5.995 130.397  0.00  0.00    +0.063 A 
ATOM      5  C   LIG A   1      -3.542   4.604 130.314  0.00  0.00    +0.019 A 
ATOM      6  C   LIG A   1      -3.036   4.023 129.146  0.00  0.00    +0.046 A 
ATOM      7  C   LIG A   1      -2.678   4.834 128.075  0.00  0.00    +0.120 A 
ATOM      8  C   LIG A   1      -2.832   6.214 128.145  0.00  0.00    +0.091 A 
BRANCH   3   9
ATOM      9  O   LIG A   1      -3.542   8.150 129.267  0.00  0.00    -0.506 OA
ATOM     10  H   LIG A   1      -4.500   8.340 129.362  0.00  0.00    +0.292 HD
ENDBRANCH   3   9
BRANCH   7  11
ATOM     11  O   LIG A   1      -2.171   4.307 126.924  0.00  0.00    -0.507 OA
ATOM     12  H   LIG A   1      -1.355   4.780 126.689  0.00  0.00    +0.292 HD
ENDBRANCH   7  11
ENDBRANCH   1   4
BRANCH   1  13
ATOM     13  C   LIG A   1      -5.712   6.488 131.918  0.00  0.00    +0.052 C 
ATOM     14  C   LIG A   1      -6.647   6.941 131.068  0.00  0.00    +0.012 C 
BRANCH  14  15
ATOM     15  C   LIG A   1      -8.090   6.740 131.289  0.00  0.00    -0.021 A 
ATOM     16  C   LIG A   1      -9.009   7.207 130.333  0.00  0.00    +0.057 A 
ATOM     17  C   LIG A   1     -10.381   7.010 130.514  0.00  0.00    +0.162 A 
ATOM     18  C   LIG A   1     -10.826   6.309 131.639  0.00  0.00    +0.159 A 
ATOM     19  C   LIG A   1      -9.937   5.831 132.589  0.00  0.00    +0.050 A 
ATOM     20  C   LIG A   1      -8.571   6.041 132.409  0.00  0.00    +0.012 A 
BRANCH  17  21
ATOM     21  O   LIG A   1     -11.365   7.414 129.648  0.00  0.00    -0.491 OA
ATOM     22  C   LIG A   1     -10.924   8.227 128.564  0.00  0.00    +0.277 C 
ENDBRANCH  17  21
BRANCH  18  23
ATOM     23  O   LIG A   1     -12.161   6.086 131.836  0.00  0.00    -0.503 OA
ATOM     24  H   LIG A   1     -12.353   6.458 132.719  0.00  0.00    +0.292 HD
ENDBRANCH  18  23
ENDBRANCH  14  15
ENDBRANCH   1  13
TORSDOF 7
ENDMDL
MODEL 3
REMARK VINA RESULT:      -6.9      1.875      2.404
REMARK  Name = NuBBE_1846
REMARK  8 active torsions:
REMARK  status: ('A' for Active; 'I' for Inactive)
REMARK    1  A    between atoms: O_1  and  C_2
REMARK    2  A    between atoms: C_3  and  C_4
REMARK    3  A    between atoms: C_4  and  C_5
REMARK    4  A    between atoms: C_6  and  C_7
REMARK    5  A    between atoms: C_9  and  O_10
REMARK    6  A    between atoms: O_10  and  C_11
REMARK    7  A    between atoms: C_12  and  O_13
REMARK    8  A    between atoms: C_19  and  O_20
REMARK                            x       y       z     vdW  Elec       q    Type
REMARK                         _______ _______ _______ _____ _____    ______ ____
ROOT
ATOM      1  C   LIG A   1      -9.429   6.798 131.194  0.00  0.00    +0.190 C 
ATOM      2  O   LIG A   1      -9.636   6.436 132.344  0.00  0.00    -0.287 OA
ENDROOT
BRANCH   1   4
ATOM      3  C   LIG A   1     -11.880   6.817 130.690  0.00  0.00    +0.131 A 
ATOM      4  C   LIG A   1     -10.574   7.171 130.313  0.00  0.00    +0.063 A 
ATOM      5  C   LIG A   1     -10.384   7.889 129.121  0.00  0.00    +0.019 A 
ATOM      6  C   LIG A   1     -11.477   8.224 128.313  0.00  0.00    +0.046 A 
ATOM      7  C   LIG A   1     -12.761   7.873 128.715  0.00  0.00    +0.120 A 
ATOM      8  C   LIG A   1     -12.971   7.179 129.901  0.00  0.00    +0.091 A 
BRANCH   3   9
ATOM      9  O   LIG A   1     -12.162   6.082 131.812  0.00  0.00    -0.506 OA
ATOM     10  H   LIG A   1     -12.931   6.490 132.265  0.00  0.00    +0.292 HD
ENDBRANCH   3   9
BRANCH   7  11
ATOM     11  O   LIG A   1     -13.852   8.193 127.962  0.00  0.00    -0.507 OA
ATOM     12  H   LIG A   1     -14.655   8.074 128.496  0.00  0.00    +0.292 HD
ENDBRANCH   7  11
ENDBRANCH   1   4
BRANCH   1  13
ATOM     13  C   LIG A   1      -8.067   6.779 130.593  0.00  0.00    +0.052 C 
ATOM     14  C   LIG A   1      -6.965   6.784 131.358  0.00  0.00    +0.012 C 
BRANCH  14  15
ATOM     15  C   LIG A   1      -5.605   6.693 130.797  0.00  0.00    -0.021 A 
ATOM     16  C   LIG A   1      -5.031   5.430 130.575  0.00  0.00    +0.057 A 
ATOM     17  C   LIG A   1      -3.749   5.321 130.026  0.00  0.00    +0.162 A 
ATOM     18  C   LIG A   1      -3.061   6.483 129.668  0.00  0.00    +0.159 A 
ATOM     19  C   LIG A   1      -3.611   7.738 129.870  0.00  0.00    +0.050 A 
ATOM     20  C   LIG A   1      -4.884   7.842 130.428  0.00  0.00    +0.012 A 
BRANCH  17  21
ATOM     21  O   LIG A   1      -3.094   4.145 129.759  0.00  0.00    -0.491 OA
ATOM     22  C   LIG A   1      -3.708   3.318 128.775  0.00  0.00    +0.277 C 
ENDBRANCH  17  21
BRANCH  18  23
ATOM     23  O   LIG A   1      -1.812   6.409 129.115  0.00  0.00    -0.503 OA
ATOM     24  H   LIG A   1      -1.601   7.323 128.841  0.00  0.00    +0.292 HD
ENDBRANCH  18  23
ENDBRANCH  14  15
ENDBRANCH   1  13
TORSDOF 7
ENDMDL
MODEL 4
REMARK VINA RESULT:      -6.9      0.829      2.129
REMARK  Name = NuBBE_1846
REMARK  8 active torsions:
REMARK  status: ('A' for Active; 'I' for Inactive)
REMARK    1  A    between atoms: O_1  and  C_2
REMARK    2  A    between atoms: C_3  and  C_4
REMARK    3  A    between atoms: C_4  and  C_5
REMARK    4  A    between atoms: C_6  and  C_7
REMARK    5  A    between atoms: C_9  and  O_10
REMARK    6  A    between atoms: O_10  and  C_11
REMARK    7  A    between atoms: C_12  and  O_13
REMARK    8  A    between atoms: C_19  and  O_20
REMARK                            x       y       z     vdW  Elec       q    Type
REMARK                         _______ _______ _______ _____ _____    ______ ____
ROOT
ATOM      1  C   LIG A   1     -10.267   5.397 130.060  0.00  0.00    +0.190 C 
ATOM      2  O   LIG A   1     -10.834   4.315 129.991  0.00  0.00    -0.287 OA
ENDROOT
BRANCH   1   4
ATOM      3  C   LIG A   1     -12.038   7.091 130.565  0.00  0.00    +0.131 A 
ATOM      4  C   LIG A   1     -11.006   6.648 129.721  0.00  0.00    +0.063 A 
ATOM      5  C   LIG A   1     -10.683   7.411 128.587  0.00  0.00    +0.019 A 
ATOM      6  C   LIG A   1     -11.394   8.579 128.292  0.00  0.00    +0.046 A 
ATOM      7  C   LIG A   1     -12.403   9.004 129.151  0.00  0.00    +0.120 A 
ATOM      8  C   LIG A   1     -12.724   8.272 130.288  0.00  0.00    +0.091 A 
BRANCH   3   9
ATOM      9  O   LIG A   1     -12.451   6.395 131.670  0.00  0.00    -0.506 OA
ATOM     10  H   LIG A   1     -13.425   6.278 131.617  0.00  0.00    +0.292 HD
ENDBRANCH   3   9
BRANCH   7  11
ATOM     11  O   LIG A   1     -13.110  10.144 128.905  0.00  0.00    -0.507 OA
ATOM     12  H   LIG A   1     -13.746  10.287 129.626  0.00  0.00    +0.292 HD
ENDBRANCH   7  11
ENDBRANCH   1   4
BRANCH   1  13
ATOM     13  C   LIG A   1      -8.815   5.509 130.370  0.00  0.00    +0.052 C 
ATOM     14  C   LIG A   1      -8.355   6.420 131.243  0.00  0.00    +0.012 C 
BRANCH  14  15
ATOM     15  C   LIG A   1      -6.935   6.510 131.626  0.00  0.00    -0.021 A 
ATOM     16  C   LIG A   1      -6.506   5.936 132.836  0.00  0.00    +0.057 A 
ATOM     17  C   LIG A   1      -5.160   5.993 133.209  0.00  0.00    +0.162 A 
ATOM     18  C   LIG A   1      -4.239   6.596 132.348  0.00  0.00    +0.159 A 
ATOM     19  C   LIG A   1      -4.638   7.160 131.146  0.00  0.00    +0.050 A 
ATOM     20  C   LIG A   1      -5.983   7.110 130.784  0.00  0.00    +0.012 A 
BRANCH  17  21
ATOM     21  O   LIG A   1      -4.629   5.463 134.358  0.00  0.00    -0.491 OA
ATOM     22  C   LIG A   1      -5.170   5.977 135.571  0.00  0.00    +0.277 C 
ENDBRANCH  17  21
BRANCH  18  23
ATOM     23  O   LIG A   1      -2.913   6.655 132.678  0.00  0.00    -0.503 OA
ATOM     24  H   LIG A   1      -2.567   7.435 132.203  0.00  0.00    +0.292 HD
ENDBRANCH  18  23
ENDBRANCH  14  15
ENDBRANCH   1  13
TORSDOF 7
ENDMDL
MODEL 5
REMARK VINA RESULT:      -6.9      9.199     11.301
REMARK  Name = NuBBE_1846
REMARK  8 active torsions:
REMARK  status: ('A' for Active; 'I' for Inactive)
REMARK    1  A    between atoms: O_1  and  C_2
REMARK    2  A    between atoms: C_3  and  C_4
REMARK    3  A    between atoms: C_4  and  C_5
REMARK    4  A    between atoms: C_6  and  C_7
REMARK    5  A    between atoms: C_9  and  O_10
REMARK    6  A    between atoms: O_10  and  C_11
REMARK    7  A    between atoms: C_12  and  O_13
REMARK    8  A    between atoms: C_19  and  O_20
REMARK                            x       y       z     vdW  Elec       q    Type
REMARK                         _______ _______ _______ _____ _____    ______ ____
ROOT
ATOM      1  C   LIG A   1      -8.675   1.320 124.433  0.00  0.00    +0.190 C 
ATOM      2  O   LIG A   1      -9.229   1.831 125.396  0.00  0.00    -0.287 OA
ENDROOT
BRANCH   1   4
ATOM      3  C   LIG A   1      -9.018  -1.023 123.627  0.00  0.00    +0.131 A 
ATOM      4  C   LIG A   1      -8.324  -0.129 124.458  0.00  0.00    +0.063 A 
ATOM      5  C   LIG A   1      -7.297  -0.625 125.279  0.00  0.00    +0.019 A 
ATOM      6  C   LIG A   1      -6.990  -1.990 125.283  0.00  0.00    +0.046 A 
ATOM      7  C   LIG A   1      -7.684  -2.853 124.442  0.00  0.00    +0.120 A 
ATOM      8  C   LIG A   1      -8.690  -2.378 123.609  0.00  0.00    +0.091 A 
BRANCH   3   9
ATOM      9  O   LIG A   1     -10.061  -0.641 122.824  0.00  0.00    -0.506 OA
ATOM     10  H   LIG A   1      -9.876   0.261 122.483  0.00  0.00    +0.292 HD
ENDBRANCH   3   9
BRANCH   7  11
ATOM     11  O   LIG A   1      -7.405  -4.187 124.408  0.00  0.00    -0.507 OA
ATOM     12  H   LIG A   1      -6.449  -4.317 124.526  0.00  0.00    +0.292 HD
ENDBRANCH   7  11
ENDBRANCH   1   4
BRANCH   1  13
ATOM     13  C   LIG A   1      -8.233   2.123 123.259  0.00  0.00    +0.052 C 
ATOM     14  C   LIG A   1      -7.059   2.773 123.259  0.00  0.00    +0.012 C 
BRANCH  14  15
ATOM     15  C   LIG A   1      -6.559   3.515 122.088  0.00  0.00    -0.021 A 
ATOM     16  C   LIG A   1      -7.372   3.640 120.948  0.00  0.00    +0.057 A 
ATOM     17  C   LIG A   1      -6.924   4.356 119.834  0.00  0.00    +0.162 A 
ATOM     18  C   LIG A   1      -5.673   4.977 119.881  0.00  0.00    +0.159 A 
ATOM     19  C   LIG A   1      -4.859   4.875 120.998  0.00  0.00    +0.050 A 
ATOM     20  C   LIG A   1      -5.305   4.150 122.101  0.00  0.00    +0.012 A 
BRANCH  17  21
ATOM     21  O   LIG A   1      -7.632   4.550 118.674  0.00  0.00    -0.491 OA
ATOM     22  C   LIG A   1      -9.039   4.353 118.781  0.00  0.00    +0.277 C 
ENDBRANCH  17  21
BRANCH  18  23
ATOM     23  O   LIG A   1      -5.214   5.698 118.813  0.00  0.00    -0.503 OA
ATOM     24  H   LIG A   1      -4.738   5.052 118.256  0.00  0.00    +0.292 HD
ENDBRANCH  18  23
ENDBRANCH  14  15
ENDBRANCH   1  13
TORSDOF 7
ENDMDL
MODEL 6
REMARK VINA RESULT:      -6.8      9.707     11.466
REMARK  Name = NuBBE_1846
REMARK  8 active torsions:
REMARK  status: ('A' for Active; 'I' for Inactive)
REMARK    1  A    between atoms: O_1  and  C_2
REMARK    2  A    between atoms: C_3  and  C_4
REMARK    3  A    between atoms: C_4  and  C_5
REMARK    4  A    between atoms: C_6  and  C_7
REMARK    5  A    between atoms: C_9  and  O_10
REMARK    6  A    between atoms: O_10  and  C_11
REMARK    7  A    between atoms: C_12  and  O_13
REMARK    8  A    between atoms: C_19  and  O_20
REMARK                            x       y       z     vdW  Elec       q    Type
REMARK                         _______ _______ _______ _____ _____    ______ ____
ROOT
ATOM      1  C   LIG A   1      -6.611   3.314 122.811  0.00  0.00    +0.190 C 
ATOM      2  O   LIG A   1      -6.693   4.017 123.808  0.00  0.00    -0.287 OA
ENDROOT
BRANCH   1   4
ATOM      3  C   LIG A   1      -5.263   4.646 121.177  0.00  0.00    +0.131 A 
ATOM      4  C   LIG A   1      -6.443   3.941 121.468  0.00  0.00    +0.063 A 
ATOM      5  C   LIG A   1      -7.428   3.829 120.473  0.00  0.00    +0.019 A 
ATOM      6  C   LIG A   1      -7.245   4.429 119.222  0.00  0.00    +0.046 A 
ATOM      7  C   LIG A   1      -6.062   5.111 118.954  0.00  0.00    +0.120 A 
ATOM      8  C   LIG A   1      -5.068   5.216 119.920  0.00  0.00    +0.091 A 
BRANCH   3   9
ATOM      9  O   LIG A   1      -4.264   4.844 122.094  0.00  0.00    -0.506 OA
ATOM     10  H   LIG A   1      -4.047   5.801 122.115  0.00  0.00    +0.292 HD
ENDBRANCH   3   9
BRANCH   7  11
ATOM     11  O   LIG A   1      -5.840   5.698 117.744  0.00  0.00    -0.507 OA
ATOM     12  H   LIG A   1      -6.518   6.377 117.589  0.00  0.00    +0.292 HD
ENDBRANCH   7  11
ENDBRANCH   1   4
BRANCH   1  13
ATOM     13  C   LIG A   1      -6.781   1.836 122.871  0.00  0.00    +0.052 C 
ATOM     14  C   LIG A   1      -7.006   1.204 124.034  0.00  0.00    +0.012 C 
BRANCH  14  15
ATOM     15  C   LIG A   1      -7.251  -0.247 124.119  0.00  0.00    -0.021 A 
ATOM     16  C   LIG A   1      -6.168  -1.121 124.315  0.00  0.00    +0.057 A 
ATOM     17  C   LIG A   1      -6.380  -2.500 124.418  0.00  0.00    +0.162 A 
ATOM     18  C   LIG A   1      -7.686  -2.994 124.359  0.00  0.00    +0.159 A 
ATOM     19  C   LIG A   1      -8.769  -2.149 124.174  0.00  0.00    +0.050 A 
ATOM     20  C   LIG A   1      -8.551  -0.777 124.061  0.00  0.00    +0.012 A 
BRANCH  17  21
ATOM     21  O   LIG A   1      -5.404  -3.443 124.618  0.00  0.00    -0.491 OA
ATOM     22  C   LIG A   1      -4.562  -3.693 123.496  0.00  0.00    +0.277 C 
ENDBRANCH  17  21
BRANCH  18  23
ATOM     23  O   LIG A   1      -7.927  -4.335 124.472  0.00  0.00    -0.503 OA
ATOM     24  H   LIG A   1      -8.627  -4.412 125.150  0.00  0.00    +0.292 HD
ENDBRANCH  18  23
ENDBRANCH  14  15
ENDBRANCH   1  13
TORSDOF 7
ENDMDL
MODEL 7
REMARK VINA RESULT:      -6.6      9.085     10.949
REMARK  Name = NuBBE_1846
REMARK  8 active torsions:
REMARK  status: ('A' for Active; 'I' for Inactive)
REMARK    1  A    between atoms: O_1  and  C_2
REMARK    2  A    between atoms: C_3  and  C_4
REMARK    3  A    between atoms: C_4  and  C_5
REMARK    4  A    between atoms: C_6  and  C_7
REMARK    5  A    between atoms: C_9  and  O_10
REMARK    6  A    between atoms: O_10  and  C_11
REMARK    7  A    between atoms: C_12  and  O_13
REMARK    8  A    between atoms: C_19  and  O_20
REMARK                            x       y       z     vdW  Elec       q    Type
REMARK                         _______ _______ _______ _____ _____    ______ ____
ROOT
ATOM      1  C   LIG A   1      -8.598  -1.185 123.262  0.00  0.00    +0.190 C 
ATOM      2  O   LIG A   1      -9.725  -1.617 123.066  0.00  0.00    -0.287 OA
ENDROOT
BRANCH   1   4
ATOM      3  C   LIG A   1      -7.592  -3.235 124.284  0.00  0.00    +0.131 A 
ATOM      4  C   LIG A   1      -7.456  -2.129 123.428  0.00  0.00    +0.063 A 
ATOM      5  C   LIG A   1      -6.248  -1.956 122.732  0.00  0.00    +0.019 A 
ATOM      6  C   LIG A   1      -5.192  -2.857 122.908  0.00  0.00    +0.046 A 
ATOM      7  C   LIG A   1      -5.356  -3.951 123.752  0.00  0.00    +0.120 A 
ATOM      8  C   LIG A   1      -6.550  -4.149 124.434  0.00  0.00    +0.091 A 
BRANCH   3   9
ATOM      9  O   LIG A   1      -8.714  -3.465 125.035  0.00  0.00    -0.506 OA
ATOM     10  H   LIG A   1      -9.311  -2.691 124.947  0.00  0.00    +0.292 HD
ENDBRANCH   3   9
BRANCH   7  11
ATOM     11  O   LIG A   1      -4.356  -4.858 123.940  0.00  0.00    -0.507 OA
ATOM     12  H   LIG A   1      -3.742  -4.522 124.614  0.00  0.00    +0.292 HD
ENDBRANCH   7  11
ENDBRANCH   1   4
BRANCH   1  13
ATOM     13  C   LIG A   1      -8.331   0.268 123.451  0.00  0.00    +0.052 C 
ATOM     14  C   LIG A   1      -7.529   0.710 124.432  0.00  0.00    +0.012 C 
BRANCH  14  15
ATOM     15  C   LIG A   1      -7.187   2.134 124.601  0.00  0.00    -0.021 A 
ATOM     16  C   LIG A   1      -6.383   2.772 123.641  0.00  0.00    +0.057 A 
ATOM     17  C   LIG A   1      -6.063   4.127 123.773  0.00  0.00    +0.162 A 
ATOM     18  C   LIG A   1      -6.581   4.847 124.852  0.00  0.00    +0.159 A 
ATOM     19  C   LIG A   1      -7.383   4.240 125.806  0.00  0.00    +0.050 A 
ATOM     20  C   LIG A   1      -7.690   2.887 125.676  0.00  0.00    +0.012 A 
BRANCH  17  21
ATOM     21  O   LIG A   1      -5.296   4.853 122.897  0.00  0.00    -0.491 OA
ATOM     22  C   LIG A   1      -5.189   4.306 121.586  0.00  0.00    +0.277 C 
ENDBRANCH  17  21
BRANCH  18  23
ATOM     23  O   LIG A   1      -6.299   6.177 125.001  0.00  0.00    -0.503 OA
ATOM     24  H   LIG A   1      -5.833   6.244 125.857  0.00  0.00    +0.292 HD
ENDBRANCH  18  23
ENDBRANCH  14  15
ENDBRANCH   1  13
TORSDOF 7
ENDMDL
MODEL 8
REMARK VINA RESULT:      -6.5      9.333     10.007
REMARK  Name = NuBBE_1846
REMARK  8 active torsions:
REMARK  status: ('A' for Active; 'I' for Inactive)
REMARK    1  A    between atoms: O_1  and  C_2
REMARK    2  A    between atoms: C_3  and  C_4
REMARK    3  A    between atoms: C_4  and  C_5
REMARK    4  A    between atoms: C_6  and  C_7
REMARK    5  A    between atoms: C_9  and  O_10
REMARK    6  A    between atoms: O_10  and  C_11
REMARK    7  A    between atoms: C_12  and  O_13
REMARK    8  A    between atoms: C_19  and  O_20
REMARK                            x       y       z     vdW  Elec       q    Type
REMARK                         _______ _______ _______ _____ _____    ______ ____
ROOT
ATOM      1  C   LIG A   1      -9.080  -1.353 124.193  0.00  0.00    +0.190 C 
ATOM      2  O   LIG A   1      -9.482  -2.212 123.420  0.00  0.00    -0.287 OA
ENDROOT
BRANCH   1   4
ATOM      3  C   LIG A   1      -9.752   0.732 122.985  0.00  0.00    +0.131 A 
ATOM      4  C   LIG A   1      -8.770   0.016 123.688  0.00  0.00    +0.063 A 
ATOM      5  C   LIG A   1      -7.523   0.621 123.916  0.00  0.00    +0.019 A 
ATOM      6  C   LIG A   1      -7.259   1.906 123.430  0.00  0.00    +0.046 A 
ATOM      7  C   LIG A   1      -8.252   2.600 122.748  0.00  0.00    +0.120 A 
ATOM      8  C   LIG A   1      -9.499   2.025 122.529  0.00  0.00    +0.091 A 
BRANCH   3   9
ATOM      9  O   LIG A   1     -10.982   0.212 122.678  0.00  0.00    -0.506 OA
ATOM     10  H   LIG A   1     -11.155   0.366 121.724  0.00  0.00    +0.292 HD
ENDBRANCH   3   9
BRANCH   7  11
ATOM     11  O   LIG A   1      -8.038   3.859 122.270  0.00  0.00    -0.507 OA
ATOM     12  H   LIG A   1      -8.551   4.493 122.799  0.00  0.00    +0.292 HD
ENDBRANCH   7  11
ENDBRANCH   1   4
BRANCH   1  13
ATOM     13  C   LIG A   1      -8.781  -1.653 125.620  0.00  0.00    +0.052 C 
ATOM     14  C   LIG A   1      -7.730  -2.409 125.971  0.00  0.00    +0.012 C 
BRANCH  14  15
ATOM     15  C   LIG A   1      -7.364  -2.665 127.375  0.00  0.00    -0.021 A 
ATOM     16  C   LIG A   1      -6.053  -2.401 127.808  0.00  0.00    +0.057 A 
ATOM     17  C   LIG A   1      -5.690  -2.618 129.142  0.00  0.00    +0.162 A 
ATOM     18  C   LIG A   1      -6.657  -3.066 130.046  0.00  0.00    +0.159 A 
ATOM     19  C   LIG A   1      -7.957  -3.324 129.643  0.00  0.00    +0.050 A 
ATOM     20  C   LIG A   1      -8.311  -3.117 128.310  0.00  0.00    +0.012 A 
BRANCH  17  21
ATOM     21  O   LIG A   1      -4.448  -2.389 129.676  0.00  0.00    -0.491 OA
ATOM     22  C   LIG A   1      -3.447  -3.336 129.315  0.00  0.00    +0.277 C 
ENDBRANCH  17  21
BRANCH  18  23
ATOM     23  O   LIG A   1      -6.337  -3.273 131.360  0.00  0.00    -0.503 OA
ATOM     24  H   LIG A   1      -6.507  -2.417 131.801  0.00  0.00    +0.292 HD
ENDBRANCH  18  23
ENDBRANCH  14  15
ENDBRANCH   1  13
TORSDOF 7
ENDMDL
MODEL 9
REMARK VINA RESULT:      -6.5      9.196     11.428
REMARK  Name = NuBBE_1846
REMARK  8 active torsions:
REMARK  status: ('A' for Active; 'I' for Inactive)
REMARK    1  A    between atoms: O_1  and  C_2
REMARK    2  A    between atoms: C_3  and  C_4
REMARK    3  A    between atoms: C_4  and  C_5
REMARK    4  A    between atoms: C_6  and  C_7
REMARK    5  A    between atoms: C_9  and  O_10
REMARK    6  A    between atoms: O_10  and  C_11
REMARK    7  A    between atoms: C_12  and  O_13
REMARK    8  A    between atoms: C_19  and  O_20
REMARK                            x       y       z     vdW  Elec       q    Type
REMARK                         _______ _______ _______ _____ _____    ______ ____
ROOT
ATOM      1  C   LIG A   1      -7.261   2.005 124.952  0.00  0.00    +0.190 C 
ATOM      2  O   LIG A   1      -7.627   2.382 126.057  0.00  0.00    -0.287 OA
ENDROOT
BRANCH   1   4
ATOM      3  C   LIG A   1      -5.782   0.034 125.383  0.00  0.00    +0.131 A 
ATOM      4  C   LIG A   1      -6.905   0.573 124.734  0.00  0.00    +0.063 A 
ATOM      5  C   LIG A   1      -7.678  -0.261 123.910  0.00  0.00    +0.019 A 
ATOM      6  C   LIG A   1      -7.319  -1.601 123.722  0.00  0.00    +0.046 A 
ATOM      7  C   LIG A   1      -6.210  -2.115 124.385  0.00  0.00    +0.120 A 
ATOM      8  C   LIG A   1      -5.444  -1.309 125.219  0.00  0.00    +0.091 A 
BRANCH   3   9
ATOM      9  O   LIG A   1      -4.945   0.777 126.172  0.00  0.00    -0.506 OA
ATOM     10  H   LIG A   1      -5.492   1.310 126.789  0.00  0.00    +0.292 HD
ENDBRANCH   3   9
BRANCH   7  11
ATOM     11  O   LIG A   1      -5.837  -3.418 124.238  0.00  0.00    -0.507 OA
ATOM     12  H   LIG A   1      -5.009  -3.570 124.724  0.00  0.00    +0.292 HD
ENDBRANCH   7  11
ENDBRANCH   1   4
BRANCH   1  13
ATOM     13  C   LIG A   1      -7.050   2.954 123.824  0.00  0.00    +0.052 C 
ATOM     14  C   LIG A   1      -6.326   2.610 122.748  0.00  0.00    +0.012 C 
BRANCH  14  15
ATOM     15  C   LIG A   1      -6.158   3.498 121.583  0.00  0.00    -0.021 A 
ATOM     16  C   LIG A   1      -7.183   3.583 120.624  0.00  0.00    +0.057 A 
ATOM     17  C   LIG A   1      -7.052   4.433 119.522  0.00  0.00    +0.162 A 
ATOM     18  C   LIG A   1      -5.907   5.224 119.404  0.00  0.00    +0.159 A 
ATOM     19  C   LIG A   1      -4.888   5.163 120.342  0.00  0.00    +0.050 A 
ATOM     20  C   LIG A   1      -5.018   4.305 121.432  0.00  0.00    +0.012 A 
BRANCH  17  21
ATOM     21  O   LIG A   1      -7.987   4.603 118.532  0.00  0.00    -0.491 OA
ATOM     22  C   LIG A   1      -9.333   4.339 118.916  0.00  0.00    +0.277 C 
ENDBRANCH  17  21
BRANCH  18  23
ATOM     23  O   LIG A   1      -5.756   6.077 118.345  0.00  0.00    -0.503 OA
ATOM     24  H   LIG A   1      -5.686   6.967 118.743  0.00  0.00    +0.292 HD
ENDBRANCH  18  23
ENDBRANCH  14  15
ENDBRANCH   1  13
TORSDOF 7
ENDMDL
