MODEL 1
REMARK VINA RESULT:      -8.4      0.000      0.000
REMARK  Name = NuBBE_1056
REMARK  12 active torsions:
REMARK  status: ('A' for Active; 'I' for Inactive)
REMARK    1  A    between atoms: C_1  and  C_2
REMARK    2  A    between atoms: C_2  and  C_40
REMARK    3  A    between atoms: C_3  and  C_35
REMARK    4  A    between atoms: C_5  and  C_34
REMARK    5  A    between atoms: C_7  and  C_13
REMARK    6  A    between atoms: C_14  and  O_16
REMARK    7  A    between atoms: C_18  and  C_19
REMARK    8  A    between atoms: C_21  and  O_33
REMARK    9  A    between atoms: C_25  and  C_27
REMARK   10  A    between atoms: C_35  and  C_36
REMARK   11  A    between atoms: C_36  and  O_37
REMARK   12  A    between atoms: O_37  and  C_38
REMARK                            x       y       z     vdW  Elec       q    Type
REMARK                         _______ _______ _______ _____ _____    ______ ____
ROOT
ATOM      1  C   LIG A   1      -7.660  -4.137 125.097  0.00  0.00    +0.019 C 
ATOM      2  C   LIG A   1      -7.589  -2.637 124.730  0.00  0.00    +0.032 C 
ATOM      3  C   LIG A   1      -6.882  -1.699 125.839  0.00  0.00    +0.027 C 
ATOM      4  C   LIG A   1      -7.219  -0.145 125.541  0.00  0.00    +0.042 C 
ATOM      5  C   LIG A   1      -6.731   0.907 126.571  0.00  0.00    +0.062 C 
ATOM      6  C   LIG A   1      -8.006   1.302 127.303  0.00  0.00    +0.127 C 
ATOM      7  O   LIG A   1      -9.168   0.901 126.515  0.00  0.00    -0.488 OA
ATOM      8  C   LIG A   1      -8.729  -0.082 125.645  0.00  0.00    +0.109 C 
ATOM      9  C   LIG A   1      -9.576  -0.984 125.146  0.00  0.00    +0.088 C 
ATOM     10  C   LIG A   1      -9.051  -2.197 124.482  0.00  0.00    +0.165 C 
ATOM     11  O   LIG A   1      -9.823  -2.855 123.783  0.00  0.00    -0.292 OA
ATOM     12  C   LIG A   1      -8.253   0.996 128.746  0.00  0.00    +0.057 C 
ATOM     13  C   LIG A   1      -5.288   0.896 126.997  0.00  0.00    +0.127 C 
ATOM     14  C   LIG A   1      -5.121   1.979 128.068  0.00  0.00    +0.043 C 
ATOM     15  C   LIG A   1      -6.065   3.144 127.660  0.00  0.00    +0.025 C 
ATOM     16  C   LIG A   1      -6.737   3.813 128.883  0.00  0.00    +0.016 C 
ATOM     17  C   LIG A   1      -7.152   2.431 126.755  0.00  0.00    +0.069 C 
ATOM     18  C   LIG A   1      -7.563   3.322 125.574  0.00  0.00    +0.234 C 
ATOM     19  C   LIG A   1      -7.454   4.826 125.878  0.00  0.00    +0.337 C 
ATOM     20  O   LIG A   1      -6.282   5.250 126.412  0.00  0.00    -0.454 OA
ATOM     21  C   LIG A   1      -5.322   4.245 126.811  0.00  0.00    +0.216 C 
ATOM     22  O   LIG A   1      -8.366   5.609 125.617  0.00  0.00    -0.248 OA
ATOM     23  C   LIG A   1      -6.755   0.286 124.137  0.00  0.00    +0.020 C 
ATOM     24  C   LIG A   1      -6.832  -2.604 123.374  0.00  0.00    +0.019 C 
ENDROOT
BRANCH  21  25
ATOM     25  C   LIG A   1      -4.141   4.921 127.486  0.00  0.00    +0.031 A 
ATOM     26  C   LIG A   1      -2.866   4.396 127.621  0.00  0.00    +0.202 A 
ATOM     27  O   LIG A   1      -2.029   5.264 128.237  0.00  0.00    -0.471 OA
ATOM     28  C   LIG A   1      -2.741   6.389 128.482  0.00  0.00    +0.195 A 
ATOM     29  C   LIG A   1      -4.037   6.240 128.039  0.00  0.00    +0.048 A 
ENDBRANCH  21  25
BRANCH  13  30
ATOM     30  O   LIG A   1      -4.508   1.287 125.865  0.00  0.00    -0.391 OA
ATOM     31  H   LIG A   1      -4.481   2.259 125.834  0.00  0.00    +0.210 HD
ENDBRANCH  13  30
BRANCH  18  32
ATOM     32  O   LIG A   1      -8.871   3.030 125.099  0.00  0.00    -0.380 OA
ATOM     33  H   LIG A   1      -8.950   3.425 124.208  0.00  0.00    +0.210 HD
ENDBRANCH  18  32
BRANCH   3  34
ATOM     34  C   LIG A   1      -7.265  -2.100 127.311  0.00  0.00    +0.126 C 
BRANCH  34  35
ATOM     35  C   LIG A   1      -6.196  -2.590 128.285  0.00  0.00    +0.307 C 
ATOM     36  O   LIG A   1      -5.007  -2.413 128.114  0.00  0.00    -0.251 OA
BRANCH  35  37
ATOM     37  O   LIG A   1      -6.739  -3.320 129.298  0.00  0.00    -0.468 OA
ATOM     38  C   LIG A   1      -8.172  -3.317 129.314  0.00  0.00    +0.280 C 
ENDBRANCH  35  37
ENDBRANCH  34  35
ENDBRANCH   3  34
TORSDOF 6
ENDMDL
MODEL 2
REMARK VINA RESULT:      -8.1      2.380      4.930
REMARK  Name = NuBBE_1056
REMARK  12 active torsions:
REMARK  status: ('A' for Active; 'I' for Inactive)
REMARK    1  A    between atoms: C_1  and  C_2
REMARK    2  A    between atoms: C_2  and  C_40
REMARK    3  A    between atoms: C_3  and  C_35
REMARK    4  A    between atoms: C_5  and  C_34
REMARK    5  A    between atoms: C_7  and  C_13
REMARK    6  A    between atoms: C_14  and  O_16
REMARK    7  A    between atoms: C_18  and  C_19
REMARK    8  A    between atoms: C_21  and  O_33
REMARK    9  A    between atoms: C_25  and  C_27
REMARK   10  A    between atoms: C_35  and  C_36
REMARK   11  A    between atoms: C_36  and  O_37
REMARK   12  A    between atoms: O_37  and  C_38
REMARK                            x       y       z     vdW  Elec       q    Type
REMARK                         _______ _______ _______ _____ _____    ______ ____
ROOT
ATOM      1  C   LIG A   1      -8.423  -1.842 122.819  0.00  0.00    +0.019 C 
ATOM      2  C   LIG A   1      -8.020  -1.604 124.291  0.00  0.00    +0.032 C 
ATOM      3  C   LIG A   1      -8.025  -0.056 124.756  0.00  0.00    +0.027 C 
ATOM      4  C   LIG A   1      -7.219   0.103 126.150  0.00  0.00    +0.042 C 
ATOM      5  C   LIG A   1      -7.007   1.539 126.698  0.00  0.00    +0.062 C 
ATOM      6  C   LIG A   1      -5.538   1.813 126.408  0.00  0.00    +0.127 C 
ATOM      7  O   LIG A   1      -4.845   0.553 126.154  0.00  0.00    -0.488 OA
ATOM      8  C   LIG A   1      -5.821  -0.366 125.806  0.00  0.00    +0.109 C 
ATOM      9  C   LIG A   1      -5.524  -1.433 125.063  0.00  0.00    +0.088 C 
ATOM     10  C   LIG A   1      -6.610  -2.223 124.444  0.00  0.00    +0.165 C 
ATOM     11  O   LIG A   1      -6.339  -3.347 124.019  0.00  0.00    -0.292 OA
ATOM     12  C   LIG A   1      -5.072   2.844 125.430  0.00  0.00    +0.057 C 
ATOM     13  C   LIG A   1      -8.195   2.452 126.828  0.00  0.00    +0.127 C 
ATOM     14  C   LIG A   1      -7.675   3.811 127.309  0.00  0.00    +0.043 C 
ATOM     15  C   LIG A   1      -6.498   3.507 128.278  0.00  0.00    +0.025 C 
ATOM     16  C   LIG A   1      -5.344   4.529 128.140  0.00  0.00    +0.016 C 
ATOM     17  C   LIG A   1      -6.018   2.068 127.826  0.00  0.00    +0.069 C 
ATOM     18  C   LIG A   1      -5.612   1.212 129.035  0.00  0.00    +0.234 C 
ATOM     19  C   LIG A   1      -5.073   2.039 130.214  0.00  0.00    +0.337 C 
ATOM     20  O   LIG A   1      -5.829   3.094 130.607  0.00  0.00    -0.454 OA
ATOM     21  C   LIG A   1      -6.963   3.452 129.783  0.00  0.00    +0.216 C 
ATOM     22  O   LIG A   1      -4.031   1.741 130.795  0.00  0.00    -0.248 OA
ATOM     23  C   LIG A   1      -7.823  -0.767 127.267  0.00  0.00    +0.020 C 
ATOM     24  C   LIG A   1      -9.021  -2.460 125.113  0.00  0.00    +0.019 C 
ENDROOT
BRANCH  21  25
ATOM     25  C   LIG A   1      -7.599   4.719 130.330  0.00  0.00    +0.031 A 
ATOM     26  C   LIG A   1      -8.955   4.996 130.381  0.00  0.00    +0.202 A 
ATOM     27  O   LIG A   1      -9.200   6.194 130.963  0.00  0.00    -0.471 OA
ATOM     28  C   LIG A   1      -8.002   6.702 131.335  0.00  0.00    +0.195 A 
ATOM     29  C   LIG A   1      -6.987   5.841 130.979  0.00  0.00    +0.048 A 
ENDBRANCH  21  25
BRANCH  13  30
ATOM     30  O   LIG A   1      -9.029   1.922 127.860  0.00  0.00    -0.391 OA
ATOM     31  H   LIG A   1      -9.369   2.664 128.389  0.00  0.00    +0.210 HD
ENDBRANCH  13  30
BRANCH  18  32
ATOM     32  O   LIG A   1      -4.669   0.202 128.697  0.00  0.00    -0.380 OA
ATOM     33  H   LIG A   1      -4.341   0.403 127.798  0.00  0.00    +0.210 HD
ENDBRANCH  18  32
BRANCH   3  34
ATOM     34  C   LIG A   1      -7.466   0.915 123.652  0.00  0.00    +0.126 C 
BRANCH  34  35
ATOM     35  C   LIG A   1      -8.336   2.040 123.095  0.00  0.00    +0.307 C 
ATOM     36  O   LIG A   1      -9.441   1.858 122.627  0.00  0.00    -0.251 OA
BRANCH  35  37
ATOM     37  O   LIG A   1      -7.678   3.232 123.106  0.00  0.00    -0.468 OA
ATOM     38  C   LIG A   1      -6.722   3.379 122.048  0.00  0.00    +0.280 C 
ENDBRANCH  35  37
ENDBRANCH  34  35
ENDBRANCH   3  34
TORSDOF 6
ENDMDL
MODEL 3
REMARK VINA RESULT:      -7.9      2.858      8.161
REMARK  Name = NuBBE_1056
REMARK  12 active torsions:
REMARK  status: ('A' for Active; 'I' for Inactive)
REMARK    1  A    between atoms: C_1  and  C_2
REMARK    2  A    between atoms: C_2  and  C_40
REMARK    3  A    between atoms: C_3  and  C_35
REMARK    4  A    between atoms: C_5  and  C_34
REMARK    5  A    between atoms: C_7  and  C_13
REMARK    6  A    between atoms: C_14  and  O_16
REMARK    7  A    between atoms: C_18  and  C_19
REMARK    8  A    between atoms: C_21  and  O_33
REMARK    9  A    between atoms: C_25  and  C_27
REMARK   10  A    between atoms: C_35  and  C_36
REMARK   11  A    between atoms: C_36  and  O_37
REMARK   12  A    between atoms: O_37  and  C_38
REMARK                            x       y       z     vdW  Elec       q    Type
REMARK                         _______ _______ _______ _____ _____    ______ ____
ROOT
ATOM      1  C   LIG A   1      -2.829   7.491 132.045  0.00  0.00    +0.019 C 
ATOM      2  C   LIG A   1      -2.842   6.248 131.128  0.00  0.00    +0.032 C 
ATOM      3  C   LIG A   1      -4.299   5.831 130.568  0.00  0.00    +0.027 C 
ATOM      4  C   LIG A   1      -4.251   4.328 129.972  0.00  0.00    +0.042 C 
ATOM      5  C   LIG A   1      -5.587   3.700 129.497  0.00  0.00    +0.062 C 
ATOM      6  C   LIG A   1      -5.919   2.703 130.600  0.00  0.00    +0.127 C 
ATOM      7  O   LIG A   1      -4.721   2.427 131.387  0.00  0.00    -0.488 OA
ATOM      8  C   LIG A   1      -3.856   3.485 131.166  0.00  0.00    +0.109 C 
ATOM      9  C   LIG A   1      -2.919   3.803 132.061  0.00  0.00    +0.088 C 
ATOM     10  C   LIG A   1      -2.222   5.104 131.965  0.00  0.00    +0.165 C 
ATOM     11  O   LIG A   1      -1.180   5.252 132.605  0.00  0.00    -0.292 OA
ATOM     12  C   LIG A   1      -7.093   2.850 131.514  0.00  0.00    +0.057 C 
ATOM     13  C   LIG A   1      -6.457   4.470 128.542  0.00  0.00    +0.127 C 
ATOM     14  C   LIG A   1      -7.731   3.648 128.321  0.00  0.00    +0.043 C 
ATOM     15  C   LIG A   1      -7.295   2.156 128.342  0.00  0.00    +0.025 C 
ATOM     16  C   LIG A   1      -8.338   1.248 129.036  0.00  0.00    +0.016 C 
ATOM     17  C   LIG A   1      -5.947   2.184 129.173  0.00  0.00    +0.069 C 
ATOM     18  C   LIG A   1      -4.919   1.196 128.599  0.00  0.00    +0.234 C 
ATOM     19  C   LIG A   1      -5.561  -0.024 127.918  0.00  0.00    +0.337 C 
ATOM     20  O   LIG A   1      -6.535   0.235 127.010  0.00  0.00    -0.454 OA
ATOM     21  C   LIG A   1      -7.003   1.599 126.896  0.00  0.00    +0.216 C 
ATOM     22  O   LIG A   1      -5.188  -1.171 128.154  0.00  0.00    -0.248 OA
ATOM     23  C   LIG A   1      -3.212   4.190 128.843  0.00  0.00    +0.020 C 
ATOM     24  C   LIG A   1      -1.858   6.602 129.979  0.00  0.00    +0.019 C 
ENDROOT
BRANCH  21  25
ATOM     25  C   LIG A   1      -8.164   1.650 125.917  0.00  0.00    +0.031 A 
ATOM     26  C   LIG A   1      -8.357   2.600 124.928  0.00  0.00    +0.202 A 
ATOM     27  O   LIG A   1      -9.468   2.343 124.197  0.00  0.00    -0.471 OA
ATOM     28  C   LIG A   1      -9.997   1.193 124.678  0.00  0.00    +0.195 A 
ATOM     29  C   LIG A   1      -9.238   0.721 125.726  0.00  0.00    +0.048 A 
ENDBRANCH  21  25
BRANCH  13  30
ATOM     30  O   LIG A   1      -5.765   4.534 127.293  0.00  0.00    -0.391 OA
ATOM     31  H   LIG A   1      -6.420   4.471 126.578  0.00  0.00    +0.210 HD
ENDBRANCH  13  30
BRANCH  18  32
ATOM     32  O   LIG A   1      -3.983   0.754 129.575  0.00  0.00    -0.380 OA
ATOM     33  H   LIG A   1      -3.530  -0.029 129.205  0.00  0.00    +0.210 HD
ENDBRANCH  18  32
BRANCH   3  34
ATOM     34  C   LIG A   1      -5.435   5.988 131.645  0.00  0.00    +0.126 C 
BRANCH  34  35
ATOM     35  C   LIG A   1      -6.720   6.744 131.315  0.00  0.00    +0.307 C 
ATOM     36  O   LIG A   1      -6.778   7.628 130.484  0.00  0.00    -0.251 OA
BRANCH  35  37
ATOM     37  O   LIG A   1      -7.745   6.368 132.128  0.00  0.00    -0.468 OA
ATOM     38  C   LIG A   1      -9.027   6.372 131.487  0.00  0.00    +0.280 C 
ENDBRANCH  35  37
ENDBRANCH  34  35
ENDBRANCH   3  34
TORSDOF 6
ENDMDL
MODEL 4
REMARK VINA RESULT:      -7.7      3.023      8.243
REMARK  Name = NuBBE_1056
REMARK  12 active torsions:
REMARK  status: ('A' for Active; 'I' for Inactive)
REMARK    1  A    between atoms: C_1  and  C_2
REMARK    2  A    between atoms: C_2  and  C_40
REMARK    3  A    between atoms: C_3  and  C_35
REMARK    4  A    between atoms: C_5  and  C_34
REMARK    5  A    between atoms: C_7  and  C_13
REMARK    6  A    between atoms: C_14  and  O_16
REMARK    7  A    between atoms: C_18  and  C_19
REMARK    8  A    between atoms: C_21  and  O_33
REMARK    9  A    between atoms: C_25  and  C_27
REMARK   10  A    between atoms: C_35  and  C_36
REMARK   11  A    between atoms: C_36  and  O_37
REMARK   12  A    between atoms: O_37  and  C_38
REMARK                            x       y       z     vdW  Elec       q    Type
REMARK                         _______ _______ _______ _____ _____    ______ ____
ROOT
ATOM      1  C   LIG A   1      -1.949   6.472 131.603  0.00  0.00    +0.019 C 
ATOM      2  C   LIG A   1      -2.763   5.193 131.900  0.00  0.00    +0.032 C 
ATOM      3  C   LIG A   1      -3.462   4.517 130.610  0.00  0.00    +0.027 C 
ATOM      4  C   LIG A   1      -4.585   3.454 131.086  0.00  0.00    +0.042 C 
ATOM      5  C   LIG A   1      -5.457   2.789 129.989  0.00  0.00    +0.062 C 
ATOM      6  C   LIG A   1      -6.799   3.494 130.129  0.00  0.00    +0.127 C 
ATOM      7  O   LIG A   1      -6.873   4.152 131.430  0.00  0.00    -0.488 OA
ATOM      8  C   LIG A   1      -5.568   4.302 131.867  0.00  0.00    +0.109 C 
ATOM      9  C   LIG A   1      -5.242   5.258 132.738  0.00  0.00    +0.088 C 
ATOM     10  C   LIG A   1      -3.820   5.605 132.952  0.00  0.00    +0.165 C 
ATOM     11  O   LIG A   1      -3.528   6.264 133.950  0.00  0.00    -0.292 OA
ATOM     12  C   LIG A   1      -7.365   4.397 129.080  0.00  0.00    +0.057 C 
ATOM     13  C   LIG A   1      -4.778   2.140 128.813  0.00  0.00    +0.127 C 
ATOM     14  C   LIG A   1      -5.879   1.649 127.866  0.00  0.00    +0.043 C 
ATOM     15  C   LIG A   1      -7.051   1.175 128.771  0.00  0.00    +0.025 C 
ATOM     16  C   LIG A   1      -8.435   1.519 128.169  0.00  0.00    +0.016 C 
ATOM     17  C   LIG A   1      -6.819   1.976 130.117  0.00  0.00    +0.069 C 
ATOM     18  C   LIG A   1      -7.152   1.113 131.342  0.00  0.00    +0.234 C 
ATOM     19  C   LIG A   1      -8.239   0.060 131.069  0.00  0.00    +0.337 C 
ATOM     20  O   LIG A   1      -8.064  -0.716 129.970  0.00  0.00    -0.454 OA
ATOM     21  C   LIG A   1      -6.987  -0.372 129.069  0.00  0.00    +0.216 C 
ATOM     22  O   LIG A   1      -9.197  -0.097 131.824  0.00  0.00    -0.248 OA
ATOM     23  C   LIG A   1      -3.991   2.351 131.981  0.00  0.00    +0.020 C 
ATOM     24  C   LIG A   1      -1.747   4.234 132.579  0.00  0.00    +0.019 C 
ENDROOT
BRANCH  21  25
ATOM     25  C   LIG A   1      -7.038  -1.286 127.856  0.00  0.00    +0.031 A 
ATOM     26  C   LIG A   1      -5.952  -1.728 127.119  0.00  0.00    +0.202 A 
ATOM     27  O   LIG A   1      -6.329  -2.563 126.122  0.00  0.00    -0.471 OA
ATOM     28  C   LIG A   1      -7.672  -2.708 126.218  0.00  0.00    +0.195 A 
ATOM     29  C   LIG A   1      -8.159  -1.956 127.264  0.00  0.00    +0.048 A 
ENDBRANCH  21  25
BRANCH  13  30
ATOM     30  O   LIG A   1      -4.089   0.988 129.303  0.00  0.00    -0.391 OA
ATOM     31  H   LIG A   1      -4.738   0.401 129.727  0.00  0.00    +0.210 HD
ENDBRANCH  13  30
BRANCH  18  32
ATOM     32  O   LIG A   1      -7.524   1.891 132.474  0.00  0.00    -0.380 OA
ATOM     33  H   LIG A   1      -8.366   1.525 132.811  0.00  0.00    +0.210 HD
ENDBRANCH  18  32
BRANCH   3  34
ATOM     34  C   LIG A   1      -4.058   5.578 129.613  0.00  0.00    +0.126 C 
BRANCH  34  35
ATOM     35  C   LIG A   1      -3.723   5.517 128.124  0.00  0.00    +0.307 C 
ATOM     36  O   LIG A   1      -4.539   5.724 127.249  0.00  0.00    -0.251 OA
BRANCH  35  37
ATOM     37  O   LIG A   1      -2.440   5.112 127.915  0.00  0.00    -0.468 OA
ATOM     38  C   LIG A   1      -2.325   3.947 127.088  0.00  0.00    +0.280 C 
ENDBRANCH  35  37
ENDBRANCH  34  35
ENDBRANCH   3  34
TORSDOF 6
ENDMDL
MODEL 5
REMARK VINA RESULT:      -7.7      3.265      6.102
REMARK  Name = NuBBE_1056
REMARK  12 active torsions:
REMARK  status: ('A' for Active; 'I' for Inactive)
REMARK    1  A    between atoms: C_1  and  C_2
REMARK    2  A    between atoms: C_2  and  C_40
REMARK    3  A    between atoms: C_3  and  C_35
REMARK    4  A    between atoms: C_5  and  C_34
REMARK    5  A    between atoms: C_7  and  C_13
REMARK    6  A    between atoms: C_14  and  O_16
REMARK    7  A    between atoms: C_18  and  C_19
REMARK    8  A    between atoms: C_21  and  O_33
REMARK    9  A    between atoms: C_25  and  C_27
REMARK   10  A    between atoms: C_35  and  C_36
REMARK   11  A    between atoms: C_36  and  O_37
REMARK   12  A    between atoms: O_37  and  C_38
REMARK                            x       y       z     vdW  Elec       q    Type
REMARK                         _______ _______ _______ _____ _____    ______ ____
ROOT
ATOM      1  C   LIG A   1      -5.611  -5.052 130.759  0.00  0.00    +0.019 C 
ATOM      2  C   LIG A   1      -5.592  -3.632 131.366  0.00  0.00    +0.032 C 
ATOM      3  C   LIG A   1      -6.426  -2.526 130.534  0.00  0.00    +0.027 C 
ATOM      4  C   LIG A   1      -6.012  -1.040 131.024  0.00  0.00    +0.042 C 
ATOM      5  C   LIG A   1      -6.616   0.164 130.256  0.00  0.00    +0.062 C 
ATOM      6  C   LIG A   1      -5.448   0.670 129.419  0.00  0.00    +0.127 C 
ATOM      7  O   LIG A   1      -4.197   0.146 129.958  0.00  0.00    -0.488 OA
ATOM      8  C   LIG A   1      -4.531  -0.964 130.715  0.00  0.00    +0.109 C 
ATOM      9  C   LIG A   1      -3.644  -1.936 130.937  0.00  0.00    +0.088 C 
ATOM     10  C   LIG A   1      -4.099  -3.239 131.468  0.00  0.00    +0.165 C 
ATOM     11  O   LIG A   1      -3.252  -4.002 131.935  0.00  0.00    -0.292 OA
ATOM     12  C   LIG A   1      -5.416   0.599 127.926  0.00  0.00    +0.057 C 
ATOM     13  C   LIG A   1      -8.104   0.223 130.046  0.00  0.00    +0.127 C 
ATOM     14  C   LIG A   1      -8.396   1.465 129.195  0.00  0.00    +0.043 C 
ATOM     15  C   LIG A   1      -7.374   2.548 129.643  0.00  0.00    +0.025 C 
ATOM     16  C   LIG A   1      -6.867   3.404 128.458  0.00  0.00    +0.016 C 
ATOM     17  C   LIG A   1      -6.188   1.697 130.257  0.00  0.00    +0.069 C 
ATOM     18  C   LIG A   1      -5.592   2.386 131.494  0.00  0.00    +0.234 C 
ATOM     19  C   LIG A   1      -5.705   3.919 131.451  0.00  0.00    +0.337 C 
ATOM     20  O   LIG A   1      -6.930   4.426 131.166  0.00  0.00    -0.454 OA
ATOM     21  C   LIG A   1      -7.962   3.499 130.755  0.00  0.00    +0.216 C 
ATOM     22  O   LIG A   1      -4.747   4.649 131.699  0.00  0.00    -0.248 OA
ATOM     23  C   LIG A   1      -6.262  -0.840 132.530  0.00  0.00    +0.020 C 
ATOM     24  C   LIG A   1      -6.148  -3.816 132.805  0.00  0.00    +0.019 C 
ENDROOT
BRANCH  21  25
ATOM     25  C   LIG A   1      -9.210   4.277 130.373  0.00  0.00    +0.031 A 
ATOM     26  C   LIG A   1     -10.516   3.827 130.476  0.00  0.00    +0.202 A 
ATOM     27  O   LIG A   1     -11.404   4.775 130.091  0.00  0.00    -0.471 OA
ATOM     28  C   LIG A   1     -10.687   5.876 129.765  0.00  0.00    +0.195 A 
ATOM     29  C   LIG A   1      -9.340   5.632 129.924  0.00  0.00    +0.048 A 
ENDBRANCH  21  25
BRANCH  13  30
ATOM     30  O   LIG A   1      -8.706   0.429 131.326  0.00  0.00    -0.391 OA
ATOM     31  H   LIG A   1      -9.540   0.913 131.196  0.00  0.00    +0.210 HD
ENDBRANCH  13  30
BRANCH  18  32
ATOM     32  O   LIG A   1      -4.236   2.019 131.722  0.00  0.00    -0.380 OA
ATOM     33  H   LIG A   1      -3.726   2.297 130.935  0.00  0.00    +0.210 HD
ENDBRANCH  18  32
BRANCH   3  34
ATOM     34  C   LIG A   1      -6.266  -2.685 128.978  0.00  0.00    +0.126 C 
BRANCH  34  35
ATOM     35  C   LIG A   1      -7.493  -2.859 128.085  0.00  0.00    +0.307 C 
ATOM     36  O   LIG A   1      -8.480  -3.481 128.422  0.00  0.00    -0.251 OA
BRANCH  35  37
ATOM     37  O   LIG A   1      -7.295  -2.316 126.852  0.00  0.00    -0.468 OA
ATOM     38  C   LIG A   1      -8.246  -1.302 126.503  0.00  0.00    +0.280 C 
ENDBRANCH  35  37
ENDBRANCH  34  35
ENDBRANCH   3  34
TORSDOF 6
ENDMDL
MODEL 6
REMARK VINA RESULT:      -7.6      2.475      4.977
REMARK  Name = NuBBE_1056
REMARK  12 active torsions:
REMARK  status: ('A' for Active; 'I' for Inactive)
REMARK    1  A    between atoms: C_1  and  C_2
REMARK    2  A    between atoms: C_2  and  C_40
REMARK    3  A    between atoms: C_3  and  C_35
REMARK    4  A    between atoms: C_5  and  C_34
REMARK    5  A    between atoms: C_7  and  C_13
REMARK    6  A    between atoms: C_14  and  O_16
REMARK    7  A    between atoms: C_18  and  C_19
REMARK    8  A    between atoms: C_21  and  O_33
REMARK    9  A    between atoms: C_25  and  C_27
REMARK   10  A    between atoms: C_35  and  C_36
REMARK   11  A    between atoms: C_36  and  O_37
REMARK   12  A    between atoms: O_37  and  C_38
REMARK                            x       y       z     vdW  Elec       q    Type
REMARK                         _______ _______ _______ _____ _____    ______ ____
ROOT
ATOM      1  C   LIG A   1      -4.033  -2.834 131.311  0.00  0.00    +0.019 C 
ATOM      2  C   LIG A   1      -4.617  -2.826 129.880  0.00  0.00    +0.032 C 
ATOM      3  C   LIG A   1      -4.857  -1.356 129.253  0.00  0.00    +0.027 C 
ATOM      4  C   LIG A   1      -5.819  -1.461 127.957  0.00  0.00    +0.042 C 
ATOM      5  C   LIG A   1      -6.268  -0.137 127.285  0.00  0.00    +0.062 C 
ATOM      6  C   LIG A   1      -7.721   0.002 127.718  0.00  0.00    +0.127 C 
ATOM      7  O   LIG A   1      -8.218  -1.287 128.188  0.00  0.00    -0.488 OA
ATOM      8  C   LIG A   1      -7.103  -2.040 128.514  0.00  0.00    +0.109 C 
ATOM      9  C   LIG A   1      -7.182  -3.035 129.399  0.00  0.00    +0.088 C 
ATOM     10  C   LIG A   1      -5.945  -3.615 129.966  0.00  0.00    +0.165 C 
ATOM     11  O   LIG A   1      -6.025  -4.702 130.540  0.00  0.00    -0.292 OA
ATOM     12  C   LIG A   1      -8.208   1.086 128.626  0.00  0.00    +0.057 C 
ATOM     13  C   LIG A   1      -5.226   0.883 126.916  0.00  0.00    +0.127 C 
ATOM     14  C   LIG A   1      -5.962   2.105 126.355  0.00  0.00    +0.043 C 
ATOM     15  C   LIG A   1      -7.187   1.553 125.573  0.00  0.00    +0.025 C 
ATOM     16  C   LIG A   1      -8.440   2.446 125.736  0.00  0.00    +0.016 C 
ATOM     17  C   LIG A   1      -7.431   0.134 126.233  0.00  0.00    +0.069 C 
ATOM     18  C   LIG A   1      -7.850  -0.903 125.181  0.00  0.00    +0.234 C 
ATOM     19  C   LIG A   1      -8.611  -0.293 123.992  0.00  0.00    +0.337 C 
ATOM     20  O   LIG A   1      -8.040   0.785 123.400  0.00  0.00    -0.454 OA
ATOM     21  C   LIG A   1      -6.880   1.367 124.038  0.00  0.00    +0.216 C 
ATOM     22  O   LIG A   1      -9.662  -0.777 123.577  0.00  0.00    -0.248 OA
ATOM     23  C   LIG A   1      -5.231  -2.388 126.876  0.00  0.00    +0.020 C 
ATOM     24  C   LIG A   1      -3.608  -3.657 129.043  0.00  0.00    +0.019 C 
ENDROOT
BRANCH  21  25
ATOM     25  C   LIG A   1      -6.471   2.621 123.284  0.00  0.00    +0.031 A 
ATOM     26  C   LIG A   1      -5.762   3.691 123.803  0.00  0.00    +0.202 A 
ATOM     27  O   LIG A   1      -5.522   4.636 122.863  0.00  0.00    -0.471 OA
ATOM     28  C   LIG A   1      -6.043   4.176 121.702  0.00  0.00    +0.195 A 
ATOM     29  C   LIG A   1      -6.631   2.946 121.897  0.00  0.00    +0.048 A 
ENDBRANCH  21  25
BRANCH  13  30
ATOM     30  O   LIG A   1      -4.446   0.328 125.854  0.00  0.00    -0.391 OA
ATOM     31  H   LIG A   1      -3.519   0.285 126.147  0.00  0.00    +0.210 HD
ENDBRANCH  13  30
BRANCH  18  32
ATOM     32  O   LIG A   1      -8.616  -1.965 125.737  0.00  0.00    -0.380 OA
ATOM     33  H   LIG A   1      -8.267  -2.132 126.636  0.00  0.00    +0.210 HD
ENDBRANCH  18  32
BRANCH   3  34
ATOM     34  C   LIG A   1      -5.414  -0.327 130.304  0.00  0.00    +0.126 C 
BRANCH  34  35
ATOM     35  C   LIG A   1      -4.500   0.733 130.912  0.00  0.00    +0.307 C 
ATOM     36  O   LIG A   1      -4.086   0.682 132.053  0.00  0.00    -0.251 OA
BRANCH  35  37
ATOM     37  O   LIG A   1      -4.295   1.770 130.053  0.00  0.00    -0.468 OA
ATOM     38  C   LIG A   1      -5.260   2.824 130.173  0.00  0.00    +0.280 C 
ENDBRANCH  35  37
ENDBRANCH  34  35
ENDBRANCH   3  34
TORSDOF 6
ENDMDL
MODEL 7
REMARK VINA RESULT:      -7.6      2.548      7.975
REMARK  Name = NuBBE_1056
REMARK  12 active torsions:
REMARK  status: ('A' for Active; 'I' for Inactive)
REMARK    1  A    between atoms: C_1  and  C_2
REMARK    2  A    between atoms: C_2  and  C_40
REMARK    3  A    between atoms: C_3  and  C_35
REMARK    4  A    between atoms: C_5  and  C_34
REMARK    5  A    between atoms: C_7  and  C_13
REMARK    6  A    between atoms: C_14  and  O_16
REMARK    7  A    between atoms: C_18  and  C_19
REMARK    8  A    between atoms: C_21  and  O_33
REMARK    9  A    between atoms: C_25  and  C_27
REMARK   10  A    between atoms: C_35  and  C_36
REMARK   11  A    between atoms: C_36  and  O_37
REMARK   12  A    between atoms: O_37  and  C_38
REMARK                            x       y       z     vdW  Elec       q    Type
REMARK                         _______ _______ _______ _____ _____    ______ ____
ROOT
ATOM      1  C   LIG A   1      -4.634   6.987 130.371  0.00  0.00    +0.019 C 
ATOM      2  C   LIG A   1      -4.286   5.578 129.838  0.00  0.00    +0.032 C 
ATOM      3  C   LIG A   1      -5.555   4.603 129.618  0.00  0.00    +0.027 C 
ATOM      4  C   LIG A   1      -5.051   3.073 129.454  0.00  0.00    +0.042 C 
ATOM      5  C   LIG A   1      -6.134   1.967 129.356  0.00  0.00    +0.062 C 
ATOM      6  C   LIG A   1      -6.079   1.299 130.723  0.00  0.00    +0.127 C 
ATOM      7  O   LIG A   1      -4.823   1.639 131.385  0.00  0.00    -0.488 OA
ATOM      8  C   LIG A   1      -4.355   2.786 130.768  0.00  0.00    +0.109 C 
ATOM      9  C   LIG A   1      -3.533   3.621 131.406  0.00  0.00    +0.088 C 
ATOM     10  C   LIG A   1      -3.295   4.976 130.864  0.00  0.00    +0.165 C 
ATOM     11  O   LIG A   1      -2.330   5.611 131.291  0.00  0.00    -0.292 OA
ATOM     12  C   LIG A   1      -7.198   1.363 131.713  0.00  0.00    +0.057 C 
ATOM     13  C   LIG A   1      -7.245   2.121 128.354  0.00  0.00    +0.127 C 
ATOM     14  C   LIG A   1      -8.196   0.933 128.542  0.00  0.00    +0.043 C 
ATOM     15  C   LIG A   1      -7.302  -0.285 128.910  0.00  0.00    +0.025 C 
ATOM     16  C   LIG A   1      -7.967  -1.205 129.961  0.00  0.00    +0.016 C 
ATOM     17  C   LIG A   1      -6.000   0.389 129.511  0.00  0.00    +0.069 C 
ATOM     18  C   LIG A   1      -4.736  -0.378 129.094  0.00  0.00    +0.234 C 
ATOM     19  C   LIG A   1      -4.980  -1.878 128.866  0.00  0.00    +0.337 C 
ATOM     20  O   LIG A   1      -6.024  -2.205 128.063  0.00  0.00    -0.454 OA
ATOM     21  C   LIG A   1      -6.909  -1.141 127.646  0.00  0.00    +0.216 C 
ATOM     22  O   LIG A   1      -4.248  -2.737 129.354  0.00  0.00    -0.248 OA
ATOM     23  C   LIG A   1      -4.073   2.913 128.276  0.00  0.00    +0.020 C 
ATOM     24  C   LIG A   1      -3.518   5.841 128.514  0.00  0.00    +0.019 C 
ENDROOT
BRANCH  21  25
ATOM     25  C   LIG A   1      -8.066  -1.732 126.858  0.00  0.00    +0.031 A 
ATOM     26  C   LIG A   1      -8.750  -1.115 125.824  0.00  0.00    +0.202 A 
ATOM     27  O   LIG A   1      -9.703  -1.923 125.301  0.00  0.00    -0.471 OA
ATOM     28  C   LIG A   1      -9.628  -3.100 125.967  0.00  0.00    +0.195 A 
ATOM     29  C   LIG A   1      -8.641  -3.043 126.926  0.00  0.00    +0.048 A 
ENDBRANCH  21  25
BRANCH  13  30
ATOM     30  O   LIG A   1      -6.665   2.005 127.053  0.00  0.00    -0.391 OA
ATOM     31  H   LIG A   1      -6.694   1.070 126.789  0.00  0.00    +0.210 HD
ENDBRANCH  13  30
BRANCH  18  32
ATOM     32  O   LIG A   1      -3.666  -0.208 130.016  0.00  0.00    -0.380 OA
ATOM     33  H   LIG A   1      -3.398   0.732 129.976  0.00  0.00    +0.210 HD
ENDBRANCH  18  32
BRANCH   3  34
ATOM     34  C   LIG A   1      -6.632   4.736 130.755  0.00  0.00    +0.126 C 
BRANCH  34  35
ATOM     35  C   LIG A   1      -8.070   5.129 130.421  0.00  0.00    +0.307 C 
ATOM     36  O   LIG A   1      -8.355   5.980 129.603  0.00  0.00    -0.251 OA
BRANCH  35  37
ATOM     37  O   LIG A   1      -8.964   4.478 131.216  0.00  0.00    -0.468 OA
ATOM     38  C   LIG A   1      -9.914   3.685 130.494  0.00  0.00    +0.280 C 
ENDBRANCH  35  37
ENDBRANCH  34  35
ENDBRANCH   3  34
TORSDOF 6
ENDMDL
MODEL 8
REMARK VINA RESULT:      -7.5      4.797      7.613
REMARK  Name = NuBBE_1056
REMARK  12 active torsions:
REMARK  status: ('A' for Active; 'I' for Inactive)
REMARK    1  A    between atoms: C_1  and  C_2
REMARK    2  A    between atoms: C_2  and  C_40
REMARK    3  A    between atoms: C_3  and  C_35
REMARK    4  A    between atoms: C_5  and  C_34
REMARK    5  A    between atoms: C_7  and  C_13
REMARK    6  A    between atoms: C_14  and  O_16
REMARK    7  A    between atoms: C_18  and  C_19
REMARK    8  A    between atoms: C_21  and  O_33
REMARK    9  A    between atoms: C_25  and  C_27
REMARK   10  A    between atoms: C_35  and  C_36
REMARK   11  A    between atoms: C_36  and  O_37
REMARK   12  A    between atoms: O_37  and  C_38
REMARK                            x       y       z     vdW  Elec       q    Type
REMARK                         _______ _______ _______ _____ _____    ______ ____
ROOT
ATOM      1  C   LIG A   1      -5.091  -1.156 134.279  0.00  0.00    +0.019 C 
ATOM      2  C   LIG A   1      -5.192   0.377 134.123  0.00  0.00    +0.032 C 
ATOM      3  C   LIG A   1      -6.457   0.891 133.258  0.00  0.00    +0.027 C 
ATOM      4  C   LIG A   1      -6.240   2.437 132.831  0.00  0.00    +0.042 C 
ATOM      5  C   LIG A   1      -7.294   3.076 131.888  0.00  0.00    +0.062 C 
ATOM      6  C   LIG A   1      -6.574   3.138 130.548  0.00  0.00    +0.127 C 
ATOM      7  O   LIG A   1      -5.136   2.997 130.756  0.00  0.00    -0.488 OA
ATOM      8  C   LIG A   1      -4.978   2.400 131.995  0.00  0.00    +0.109 C 
ATOM      9  C   LIG A   1      -3.879   1.701 132.284  0.00  0.00    +0.088 C 
ATOM     10  C   LIG A   1      -3.860   0.821 133.473  0.00  0.00    +0.165 C 
ATOM     11  O   LIG A   1      -2.768   0.423 133.881  0.00  0.00    -0.292 OA
ATOM     12  C   LIG A   1      -6.987   2.334 129.356  0.00  0.00    +0.057 C 
ATOM     13  C   LIG A   1      -8.751   2.970 132.245  0.00  0.00    +0.127 C 
ATOM     14  C   LIG A   1      -9.547   3.611 131.103  0.00  0.00    +0.043 C 
ATOM     15  C   LIG A   1      -8.694   4.809 130.597  0.00  0.00    +0.025 C 
ATOM     16  C   LIG A   1      -8.770   4.977 129.061  0.00  0.00    +0.016 C 
ATOM     17  C   LIG A   1      -7.224   4.419 131.038  0.00  0.00    +0.069 C 
ATOM     18  C   LIG A   1      -6.440   5.654 131.508  0.00  0.00    +0.234 C 
ATOM     19  C   LIG A   1      -6.886   6.956 130.824  0.00  0.00    +0.337 C 
ATOM     20  O   LIG A   1      -8.219   7.210 130.819  0.00  0.00    -0.454 OA
ATOM     21  C   LIG A   1      -9.103   6.166 131.288  0.00  0.00    +0.216 C 
ATOM     22  O   LIG A   1      -6.078   7.746 130.339  0.00  0.00    -0.248 OA
ATOM     23  C   LIG A   1      -6.054   3.352 134.055  0.00  0.00    +0.020 C 
ATOM     24  C   LIG A   1      -5.227   0.915 135.579  0.00  0.00    +0.019 C 
ENDROOT
BRANCH  21  25
ATOM     25  C   LIG A   1     -10.544   6.605 131.091  0.00  0.00    +0.031 A 
ATOM     26  C   LIG A   1     -11.580   6.439 131.995  0.00  0.00    +0.202 A 
ATOM     27  O   LIG A   1     -12.736   6.975 131.538  0.00  0.00    -0.471 OA
ATOM     28  C   LIG A   1     -12.460   7.534 130.336  0.00  0.00    +0.195 A 
ATOM     29  C   LIG A   1     -11.134   7.345 130.015  0.00  0.00    +0.048 A 
ENDBRANCH  21  25
BRANCH  13  30
ATOM     30  O   LIG A   1      -8.962   3.764 133.414  0.00  0.00    -0.391 OA
ATOM     31  H   LIG A   1      -8.643   4.665 133.232  0.00  0.00    +0.210 HD
ENDBRANCH  13  30
BRANCH  18  32
ATOM     32  O   LIG A   1      -5.034   5.498 131.356  0.00  0.00    -0.380 OA
ATOM     33  H   LIG A   1      -4.832   4.552 131.504  0.00  0.00    +0.210 HD
ENDBRANCH  18  32
BRANCH   3  34
ATOM     34  C   LIG A   1      -6.751  -0.017 132.008  0.00  0.00    +0.126 C 
BRANCH  34  35
ATOM     35  C   LIG A   1      -8.006  -0.885 131.958  0.00  0.00    +0.307 C 
ATOM     36  O   LIG A   1      -9.131  -0.428 131.914  0.00  0.00    -0.251 OA
BRANCH  35  37
ATOM     37  O   LIG A   1      -7.705  -2.208 132.064  0.00  0.00    -0.468 OA
ATOM     38  C   LIG A   1      -7.561  -2.875 130.803  0.00  0.00    +0.280 C 
ENDBRANCH  35  37
ENDBRANCH  34  35
ENDBRANCH   3  34
TORSDOF 6
ENDMDL
MODEL 9
REMARK VINA RESULT:      -7.5      2.901      5.863
REMARK  Name = NuBBE_1056
REMARK  12 active torsions:
REMARK  status: ('A' for Active; 'I' for Inactive)
REMARK    1  A    between atoms: C_1  and  C_2
REMARK    2  A    between atoms: C_2  and  C_40
REMARK    3  A    between atoms: C_3  and  C_35
REMARK    4  A    between atoms: C_5  and  C_34
REMARK    5  A    between atoms: C_7  and  C_13
REMARK    6  A    between atoms: C_14  and  O_16
REMARK    7  A    between atoms: C_18  and  C_19
REMARK    8  A    between atoms: C_21  and  O_33
REMARK    9  A    between atoms: C_25  and  C_27
REMARK   10  A    between atoms: C_35  and  C_36
REMARK   11  A    between atoms: C_36  and  O_37
REMARK   12  A    between atoms: O_37  and  C_38
REMARK                            x       y       z     vdW  Elec       q    Type
REMARK                         _______ _______ _______ _____ _____    ______ ____
ROOT
ATOM      1  C   LIG A   1      -6.895   2.440 122.652  0.00  0.00    +0.019 C 
ATOM      2  C   LIG A   1      -7.484   1.783 123.921  0.00  0.00    +0.032 C 
ATOM      3  C   LIG A   1      -7.127   2.537 125.304  0.00  0.00    +0.027 C 
ATOM      4  C   LIG A   1      -7.442   1.564 126.559  0.00  0.00    +0.042 C 
ATOM      5  C   LIG A   1      -7.048   2.064 127.973  0.00  0.00    +0.062 C 
ATOM      6  C   LIG A   1      -5.810   1.243 128.305  0.00  0.00    +0.127 C 
ATOM      7  O   LIG A   1      -5.742   0.081 127.424  0.00  0.00    -0.488 OA
ATOM      8  C   LIG A   1      -6.531   0.377 126.325  0.00  0.00    +0.109 C 
ATOM      9  C   LIG A   1      -6.318  -0.214 125.148  0.00  0.00    +0.088 C 
ATOM     10  C   LIG A   1      -6.948   0.331 123.927  0.00  0.00    +0.165 C 
ATOM     11  O   LIG A   1      -6.981  -0.383 122.924  0.00  0.00    -0.292 OA
ATOM     12  C   LIG A   1      -4.445   1.837 128.452  0.00  0.00    +0.057 C 
ATOM     13  C   LIG A   1      -7.499   3.430 128.415  0.00  0.00    +0.127 C 
ATOM     14  C   LIG A   1      -6.898   3.681 129.803  0.00  0.00    +0.043 C 
ATOM     15  C   LIG A   1      -6.901   2.307 130.533  0.00  0.00    +0.025 C 
ATOM     16  C   LIG A   1      -5.643   2.105 131.410  0.00  0.00    +0.016 C 
ATOM     17  C   LIG A   1      -6.918   1.264 129.342  0.00  0.00    +0.069 C 
ATOM     18  C   LIG A   1      -7.802   0.053 129.677  0.00  0.00    +0.234 C 
ATOM     19  C   LIG A   1      -7.865  -0.258 131.182  0.00  0.00    +0.337 C 
ATOM     20  O   LIG A   1      -8.149   0.783 132.002  0.00  0.00    -0.454 OA
ATOM     21  C   LIG A   1      -8.189   2.106 131.419  0.00  0.00    +0.216 C 
ATOM     22  O   LIG A   1      -7.702  -1.397 131.617  0.00  0.00    -0.248 OA
ATOM     23  C   LIG A   1      -8.916   1.119 126.585  0.00  0.00    +0.020 C 
ATOM     24  C   LIG A   1      -9.014   1.738 123.662  0.00  0.00    +0.019 C 
ENDROOT
BRANCH  21  25
ATOM     25  C   LIG A   1      -8.406   3.131 132.520  0.00  0.00    +0.031 A 
ATOM     26  C   LIG A   1      -9.205   4.260 132.440  0.00  0.00    +0.202 A 
ATOM     27  O   LIG A   1      -9.217   4.949 133.605  0.00  0.00    -0.471 OA
ATOM     28  C   LIG A   1      -8.451   4.255 134.480  0.00  0.00    +0.195 A 
ATOM     29  C   LIG A   1      -7.934   3.131 133.873  0.00  0.00    +0.048 A 
ENDBRANCH  21  25
BRANCH  13  30
ATOM     30  O   LIG A   1      -8.919   3.381 128.565  0.00  0.00    -0.391 OA
ATOM     31  H   LIG A   1      -9.322   3.838 127.806  0.00  0.00    +0.210 HD
ENDBRANCH  13  30
BRANCH  18  32
ATOM     32  O   LIG A   1      -7.415  -1.118 128.968  0.00  0.00    -0.380 OA
ATOM     33  H   LIG A   1      -6.503  -1.335 129.247  0.00  0.00    +0.210 HD
ENDBRANCH  18  32
BRANCH   3  34
ATOM     34  C   LIG A   1      -5.648   3.070 125.345  0.00  0.00    +0.126 C 
BRANCH  34  35
ATOM     35  C   LIG A   1      -5.353   4.512 125.752  0.00  0.00    +0.307 C 
ATOM     36  O   LIG A   1      -6.077   5.445 125.469  0.00  0.00    -0.251 OA
BRANCH  35  37
ATOM     37  O   LIG A   1      -4.148   4.620 126.376  0.00  0.00    -0.468 OA
ATOM     38  C   LIG A   1      -4.175   5.433 127.556  0.00  0.00    +0.280 C 
ENDBRANCH  35  37
ENDBRANCH  34  35
ENDBRANCH   3  34
TORSDOF 6
ENDMDL
