MODEL 1
REMARK VINA RESULT:      -4.1      0.000      0.000
REMARK  Name = NuBBE_603
REMARK  6 active torsions:
REMARK  status: ('A' for Active; 'I' for Inactive)
REMARK    1  A    between atoms: O_1  and  C_2
REMARK    2  A    between atoms: C_2  and  C_3
REMARK    3  A    between atoms: C_3  and  C_4
REMARK    4  A    between atoms: C_4  and  C_5
REMARK    5  A    between atoms: C_4  and  O_7
REMARK    6  A    between atoms: C_5  and  O_6
REMARK                            x       y       z     vdW  Elec       q    Type
REMARK                         _______ _______ _______ _____ _____    ______ ____
ROOT
ATOM      1  C   LIG A   1     -11.796   6.942 129.547  0.00  0.00    +0.167 C 
ENDROOT
BRANCH   1   2
ATOM      2  C   LIG A   1     -12.100   7.850 128.370  0.00  0.00    -0.021 C 
ATOM      3  C   LIG A   1     -13.052   8.816 128.457  0.00  0.00    +0.012 C 
BRANCH   2   4
ATOM      4  C   LIG A   1     -11.260   7.750 127.138  0.00  0.00    +0.189 C 
BRANCH   4   5
ATOM      5  O   LIG A   1     -11.725   6.670 126.334  0.00  0.00    -0.391 OA
ATOM      6  H   LIG A   1     -12.238   7.070 125.607  0.00  0.00    +0.210 HD
ENDBRANCH   4   5
ENDBRANCH   2   4
ENDBRANCH   1   2
BRANCH   1   7
ATOM      7  O   LIG A   1     -11.977   5.595 129.110  0.00  0.00    -0.385 OA
ATOM      8  H   LIG A   1     -11.177   5.121 129.408  0.00  0.00    +0.210 HD
ENDBRANCH   1   7
BRANCH   1   9
ATOM      9  C   LIG A   1     -12.618   7.175 130.841  0.00  0.00    +0.191 C 
BRANCH   9  10
ATOM     10  O   LIG A   1     -12.240   6.244 131.859  0.00  0.00    -0.392 OA
ATOM     11  H   LIG A   1     -13.004   5.627 131.918  0.00  0.00    +0.209 HD
ENDBRANCH   9  10
ENDBRANCH   1   9
TORSDOF 6
ENDMDL
MODEL 2
REMARK VINA RESULT:      -4.1      2.524      3.766
REMARK  Name = NuBBE_603
REMARK  6 active torsions:
REMARK  status: ('A' for Active; 'I' for Inactive)
REMARK    1  A    between atoms: O_1  and  C_2
REMARK    2  A    between atoms: C_2  and  C_3
REMARK    3  A    between atoms: C_3  and  C_4
REMARK    4  A    between atoms: C_4  and  C_5
REMARK    5  A    between atoms: C_4  and  O_7
REMARK    6  A    between atoms: C_5  and  O_6
REMARK                            x       y       z     vdW  Elec       q    Type
REMARK                         _______ _______ _______ _____ _____    ______ ____
ROOT
ATOM      1  C   LIG A   1     -11.257   7.874 127.812  0.00  0.00    +0.167 C 
ENDROOT
BRANCH   1   2
ATOM      2  C   LIG A   1     -12.647   8.099 128.375  0.00  0.00    -0.021 C 
ATOM      3  C   LIG A   1     -13.697   7.330 127.982  0.00  0.00    +0.012 C 
BRANCH   2   4
ATOM      4  C   LIG A   1     -12.838   9.107 129.461  0.00  0.00    +0.189 C 
BRANCH   4   5
ATOM      5  O   LIG A   1     -13.092  10.384 128.883  0.00  0.00    -0.391 OA
ATOM      6  H   LIG A   1     -12.283  10.631 128.397  0.00  0.00    +0.210 HD
ENDBRANCH   4   5
ENDBRANCH   2   4
ENDBRANCH   1   2
BRANCH   1   7
ATOM      7  O   LIG A   1     -10.520   9.084 127.986  0.00  0.00    -0.385 OA
ATOM      8  H   LIG A   1      -9.800   8.857 128.606  0.00  0.00    +0.210 HD
ENDBRANCH   1   7
BRANCH   1   9
ATOM      9  C   LIG A   1     -11.166   7.428 126.329  0.00  0.00    +0.191 C 
BRANCH   9  10
ATOM     10  O   LIG A   1     -10.266   6.326 126.183  0.00  0.00    -0.392 OA
ATOM     11  H   LIG A   1     -10.347   6.073 125.236  0.00  0.00    +0.209 HD
ENDBRANCH   9  10
ENDBRANCH   1   9
TORSDOF 6
ENDMDL
MODEL 3
REMARK VINA RESULT:      -4.0      2.122      2.478
REMARK  Name = NuBBE_603
REMARK  6 active torsions:
REMARK  status: ('A' for Active; 'I' for Inactive)
REMARK    1  A    between atoms: O_1  and  C_2
REMARK    2  A    between atoms: C_2  and  C_3
REMARK    3  A    between atoms: C_3  and  C_4
REMARK    4  A    between atoms: C_4  and  C_5
REMARK    5  A    between atoms: C_4  and  O_7
REMARK    6  A    between atoms: C_5  and  O_6
REMARK                            x       y       z     vdW  Elec       q    Type
REMARK                         _______ _______ _______ _____ _____    ______ ____
ROOT
ATOM      1  C   LIG A   1     -11.223   8.078 128.747  0.00  0.00    +0.167 C 
ENDROOT
BRANCH   1   2
ATOM      2  C   LIG A   1     -12.392   7.349 128.112  0.00  0.00    -0.021 C 
ATOM      3  C   LIG A   1     -13.449   6.933 128.859  0.00  0.00    +0.012 C 
BRANCH   2   4
ATOM      4  C   LIG A   1     -12.429   7.188 126.627  0.00  0.00    +0.189 C 
BRANCH   4   5
ATOM      5  O   LIG A   1     -11.229   6.559 126.189  0.00  0.00    -0.391 OA
ATOM      6  H   LIG A   1     -11.061   6.887 125.285  0.00  0.00    +0.210 HD
ENDBRANCH   4   5
ENDBRANCH   2   4
ENDBRANCH   1   2
BRANCH   1   7
ATOM      7  O   LIG A   1     -10.612   8.878 127.735  0.00  0.00    -0.385 OA
ATOM      8  H   LIG A   1      -9.652   8.734 127.842  0.00  0.00    +0.210 HD
ENDBRANCH   1   7
BRANCH   1   9
ATOM      9  C   LIG A   1     -10.140   7.203 129.430  0.00  0.00    +0.191 C 
BRANCH   9  10
ATOM     10  O   LIG A   1      -9.660   6.195 128.536  0.00  0.00    -0.392 OA
ATOM     11  H   LIG A   1      -8.827   5.879 128.953  0.00  0.00    +0.209 HD
ENDBRANCH   9  10
ENDBRANCH   1   9
TORSDOF 6
ENDMDL
MODEL 4
REMARK VINA RESULT:      -4.0      1.318      3.408
REMARK  Name = NuBBE_603
REMARK  6 active torsions:
REMARK  status: ('A' for Active; 'I' for Inactive)
REMARK    1  A    between atoms: O_1  and  C_2
REMARK    2  A    between atoms: C_2  and  C_3
REMARK    3  A    between atoms: C_3  and  C_4
REMARK    4  A    between atoms: C_4  and  C_5
REMARK    5  A    between atoms: C_4  and  O_7
REMARK    6  A    between atoms: C_5  and  O_6
REMARK                            x       y       z     vdW  Elec       q    Type
REMARK                         _______ _______ _______ _____ _____    ______ ____
ROOT
ATOM      1  C   LIG A   1     -11.082   7.897 127.913  0.00  0.00    +0.167 C 
ENDROOT
BRANCH   1   2
ATOM      2  C   LIG A   1     -12.368   8.055 128.702  0.00  0.00    -0.021 C 
ATOM      3  C   LIG A   1     -13.147   9.160 128.563  0.00  0.00    +0.012 C 
BRANCH   2   4
ATOM      4  C   LIG A   1     -12.838   6.925 129.561  0.00  0.00    +0.189 C 
BRANCH   4   5
ATOM      5  O   LIG A   1     -12.206   5.719 129.144  0.00  0.00    -0.391 OA
ATOM      6  H   LIG A   1     -12.435   5.600 128.203  0.00  0.00    +0.210 HD
ENDBRANCH   4   5
ENDBRANCH   2   4
ENDBRANCH   1   2
BRANCH   1   7
ATOM      7  O   LIG A   1     -10.317   9.089 128.094  0.00  0.00    -0.385 OA
ATOM      8  H   LIG A   1      -9.881   9.244 127.234  0.00  0.00    +0.210 HD
ENDBRANCH   1   7
BRANCH   1   9
ATOM      9  C   LIG A   1     -11.223   7.605 126.397  0.00  0.00    +0.191 C 
BRANCH   9  10
ATOM     10  O   LIG A   1     -12.143   6.534 126.167  0.00  0.00    -0.392 OA
ATOM     11  H   LIG A   1     -12.781   6.899 125.514  0.00  0.00    +0.209 HD
ENDBRANCH   9  10
ENDBRANCH   1   9
TORSDOF 6
ENDMDL
MODEL 5
REMARK VINA RESULT:      -4.0      9.376     10.672
REMARK  Name = NuBBE_603
REMARK  6 active torsions:
REMARK  status: ('A' for Active; 'I' for Inactive)
REMARK    1  A    between atoms: O_1  and  C_2
REMARK    2  A    between atoms: C_2  and  C_3
REMARK    3  A    between atoms: C_3  and  C_4
REMARK    4  A    between atoms: C_4  and  C_5
REMARK    5  A    between atoms: C_4  and  O_7
REMARK    6  A    between atoms: C_5  and  O_6
REMARK                            x       y       z     vdW  Elec       q    Type
REMARK                         _______ _______ _______ _____ _____    ______ ____
ROOT
ATOM      1  C   LIG A   1      -6.258   3.985 121.080  0.00  0.00    +0.167 C 
ENDROOT
BRANCH   1   2
ATOM      2  C   LIG A   1      -6.500   4.611 119.720  0.00  0.00    -0.021 C 
ATOM      3  C   LIG A   1      -7.627   4.336 119.011  0.00  0.00    +0.012 C 
BRANCH   2   4
ATOM      4  C   LIG A   1      -5.536   5.631 119.206  0.00  0.00    +0.189 C 
BRANCH   4   5
ATOM      5  O   LIG A   1      -4.766   6.143 120.289  0.00  0.00    -0.391 OA
ATOM      6  H   LIG A   1      -5.089   5.693 121.092  0.00  0.00    +0.210 HD
ENDBRANCH   4   5
ENDBRANCH   2   4
ENDBRANCH   1   2
BRANCH   1   7
ATOM      7  O   LIG A   1      -5.037   3.247 121.004  0.00  0.00    -0.385 OA
ATOM      8  H   LIG A   1      -4.459   3.772 120.417  0.00  0.00    +0.210 HD
ENDBRANCH   1   7
BRANCH   1   9
ATOM      9  C   LIG A   1      -7.376   3.067 121.637  0.00  0.00    +0.191 C 
BRANCH   9  10
ATOM     10  O   LIG A   1      -8.325   3.822 122.395  0.00  0.00    -0.392 OA
ATOM     11  H   LIG A   1      -9.141   3.806 121.847  0.00  0.00    +0.209 HD
ENDBRANCH   9  10
ENDBRANCH   1   9
TORSDOF 6
ENDMDL
MODEL 6
REMARK VINA RESULT:      -4.0      1.604      2.884
REMARK  Name = NuBBE_603
REMARK  6 active torsions:
REMARK  status: ('A' for Active; 'I' for Inactive)
REMARK    1  A    between atoms: O_1  and  C_2
REMARK    2  A    between atoms: C_2  and  C_3
REMARK    3  A    between atoms: C_3  and  C_4
REMARK    4  A    between atoms: C_4  and  C_5
REMARK    5  A    between atoms: C_4  and  O_7
REMARK    6  A    between atoms: C_5  and  O_6
REMARK                            x       y       z     vdW  Elec       q    Type
REMARK                         _______ _______ _______ _____ _____    ______ ____
ROOT
ATOM      1  C   LIG A   1     -12.888   7.004 128.393  0.00  0.00    +0.167 C 
ENDROOT
BRANCH   1   2
ATOM      2  C   LIG A   1     -12.137   8.134 129.070  0.00  0.00    -0.021 C 
ATOM      3  C   LIG A   1     -12.741   9.325 129.324  0.00  0.00    +0.012 C 
BRANCH   2   4
ATOM      4  C   LIG A   1     -10.748   7.891 129.566  0.00  0.00    +0.189 C 
BRANCH   4   5
ATOM      5  O   LIG A   1      -9.907   7.550 128.468  0.00  0.00    -0.391 OA
ATOM      6  H   LIG A   1      -9.830   8.355 127.921  0.00  0.00    +0.210 HD
ENDBRANCH   4   5
ENDBRANCH   2   4
ENDBRANCH   1   2
BRANCH   1   7
ATOM      7  O   LIG A   1     -12.326   5.775 128.854  0.00  0.00    -0.385 OA
ATOM      8  H   LIG A   1     -11.360   5.896 128.787  0.00  0.00    +0.210 HD
ENDBRANCH   1   7
BRANCH   1   9
ATOM      9  C   LIG A   1     -12.908   7.007 126.843  0.00  0.00    +0.191 C 
BRANCH   9  10
ATOM     10  O   LIG A   1     -11.649   6.580 126.316  0.00  0.00    -0.392 OA
ATOM     11  H   LIG A   1     -11.694   6.815 125.362  0.00  0.00    +0.209 HD
ENDBRANCH   9  10
ENDBRANCH   1   9
TORSDOF 6
ENDMDL
MODEL 7
REMARK VINA RESULT:      -4.0      2.631      3.323
REMARK  Name = NuBBE_603
REMARK  6 active torsions:
REMARK  status: ('A' for Active; 'I' for Inactive)
REMARK    1  A    between atoms: O_1  and  C_2
REMARK    2  A    between atoms: C_2  and  C_3
REMARK    3  A    between atoms: C_3  and  C_4
REMARK    4  A    between atoms: C_4  and  C_5
REMARK    5  A    between atoms: C_4  and  O_7
REMARK    6  A    between atoms: C_5  and  O_6
REMARK                            x       y       z     vdW  Elec       q    Type
REMARK                         _______ _______ _______ _____ _____    ______ ____
ROOT
ATOM      1  C   LIG A   1     -12.920   9.069 129.106  0.00  0.00    +0.167 C 
ENDROOT
BRANCH   1   2
ATOM      2  C   LIG A   1     -12.849   7.717 129.789  0.00  0.00    -0.021 C 
ATOM      3  C   LIG A   1     -12.861   7.614 131.144  0.00  0.00    +0.012 C 
BRANCH   2   4
ATOM      4  C   LIG A   1     -12.881   6.478 128.954  0.00  0.00    +0.189 C 
BRANCH   4   5
ATOM      5  O   LIG A   1     -11.716   6.428 128.137  0.00  0.00    -0.391 OA
ATOM      6  H   LIG A   1     -12.000   6.067 127.275  0.00  0.00    +0.210 HD
ENDBRANCH   4   5
ENDBRANCH   2   4
ENDBRANCH   1   2
BRANCH   1   7
ATOM      7  O   LIG A   1     -11.693   9.261 128.401  0.00  0.00    -0.385 OA
ATOM      8  H   LIG A   1     -11.782  10.131 127.966  0.00  0.00    +0.210 HD
ENDBRANCH   1   7
BRANCH   1   9
ATOM      9  C   LIG A   1     -13.186  10.299 130.013  0.00  0.00    +0.191 C 
BRANCH   9  10
ATOM     10  O   LIG A   1     -13.177  11.507 129.248  0.00  0.00    -0.392 OA
ATOM     11  H   LIG A   1     -12.733  12.161 129.834  0.00  0.00    +0.209 HD
ENDBRANCH   9  10
ENDBRANCH   1   9
TORSDOF 6
ENDMDL
MODEL 8
REMARK VINA RESULT:      -3.8      1.526      3.620
REMARK  Name = NuBBE_603
REMARK  6 active torsions:
REMARK  status: ('A' for Active; 'I' for Inactive)
REMARK    1  A    between atoms: O_1  and  C_2
REMARK    2  A    between atoms: C_2  and  C_3
REMARK    3  A    between atoms: C_3  and  C_4
REMARK    4  A    between atoms: C_4  and  C_5
REMARK    5  A    between atoms: C_4  and  O_7
REMARK    6  A    between atoms: C_5  and  O_6
REMARK                            x       y       z     vdW  Elec       q    Type
REMARK                         _______ _______ _______ _____ _____    ______ ____
ROOT
ATOM      1  C   LIG A   1     -10.952   8.349 128.081  0.00  0.00    +0.167 C 
ENDROOT
BRANCH   1   2
ATOM      2  C   LIG A   1     -10.855   7.554 129.369  0.00  0.00    -0.021 C 
ATOM      3  C   LIG A   1      -9.650   7.282 129.937  0.00  0.00    +0.012 C 
BRANCH   2   4
ATOM      4  C   LIG A   1     -12.110   7.162 130.079  0.00  0.00    +0.189 C 
BRANCH   4   5
ATOM      5  O   LIG A   1     -12.923   6.381 129.208  0.00  0.00    -0.391 OA
ATOM      6  H   LIG A   1     -12.961   6.864 128.361  0.00  0.00    +0.210 HD
ENDBRANCH   4   5
ENDBRANCH   2   4
ENDBRANCH   1   2
BRANCH   1   7
ATOM      7  O   LIG A   1     -12.224   9.000 128.071  0.00  0.00    -0.385 OA
ATOM      8  H   LIG A   1     -12.032   9.936 128.269  0.00  0.00    +0.210 HD
ENDBRANCH   1   7
BRANCH   1   9
ATOM      9  C   LIG A   1     -10.769   7.564 126.757  0.00  0.00    +0.191 C 
BRANCH   9  10
ATOM     10  O   LIG A   1     -11.876   6.688 126.527  0.00  0.00    -0.392 OA
ATOM     11  H   LIG A   1     -11.528   5.795 126.749  0.00  0.00    +0.209 HD
ENDBRANCH   9  10
ENDBRANCH   1   9
TORSDOF 6
ENDMDL
MODEL 9
REMARK VINA RESULT:      -3.8      1.526      3.547
REMARK  Name = NuBBE_603
REMARK  6 active torsions:
REMARK  status: ('A' for Active; 'I' for Inactive)
REMARK    1  A    between atoms: O_1  and  C_2
REMARK    2  A    between atoms: C_2  and  C_3
REMARK    3  A    between atoms: C_3  and  C_4
REMARK    4  A    between atoms: C_4  and  C_5
REMARK    5  A    between atoms: C_4  and  O_7
REMARK    6  A    between atoms: C_5  and  O_6
REMARK                            x       y       z     vdW  Elec       q    Type
REMARK                         _______ _______ _______ _____ _____    ______ ____
ROOT
ATOM      1  C   LIG A   1     -11.042   7.083 129.497  0.00  0.00    +0.167 C 
ENDROOT
BRANCH   1   2
ATOM      2  C   LIG A   1     -12.187   7.882 130.089  0.00  0.00    -0.021 C 
ATOM      3  C   LIG A   1     -12.693   8.967 129.446  0.00  0.00    +0.012 C 
BRANCH   2   4
ATOM      4  C   LIG A   1     -12.841   7.398 131.344  0.00  0.00    +0.189 C 
BRANCH   4   5
ATOM      5  O   LIG A   1     -12.189   6.213 131.790  0.00  0.00    -0.391 OA
ATOM      6  H   LIG A   1     -12.554   6.015 132.673  0.00  0.00    +0.210 HD
ENDBRANCH   4   5
ENDBRANCH   2   4
ENDBRANCH   1   2
BRANCH   1   7
ATOM      7  O   LIG A   1      -9.900   7.286 130.329  0.00  0.00    -0.385 OA
ATOM      8  H   LIG A   1      -9.929   6.562 130.983  0.00  0.00    +0.210 HD
ENDBRANCH   1   7
BRANCH   1   9
ATOM      9  C   LIG A   1     -10.663   7.388 128.025  0.00  0.00    +0.191 C 
BRANCH   9  10
ATOM     10  O   LIG A   1      -9.772   6.394 127.512  0.00  0.00    -0.392 OA
ATOM     11  H   LIG A   1     -10.322   5.881 126.879  0.00  0.00    +0.209 HD
ENDBRANCH   9  10
ENDBRANCH   1   9
TORSDOF 6
ENDMDL
