MODEL 1
REMARK VINA RESULT:      -5.4      0.000      0.000
REMARK  Name = NuBBE_2138
REMARK  3 active torsions:
REMARK  status: ('A' for Active; 'I' for Inactive)
REMARK    1  A    between atoms: C_1  and  C_2
REMARK    2  A    between atoms: C_2  and  C_3
REMARK    3  A    between atoms: C_3  and  C_4
REMARK                            x       y       z     vdW  Elec       q    Type
REMARK                         _______ _______ _______ _____ _____    ______ ____
ROOT
ATOM      1  C   LIG A   1      -6.785  -2.770 124.006  0.00  0.00    -0.073 C 
ATOM      2  C   LIG A   1      -7.281  -1.890 123.120  0.00  0.00    -0.028 C 
ATOM      3  C   LIG A   1      -8.724  -1.840 122.706  0.00  0.00    +0.027 C 
ATOM      4  C   LIG A   1      -9.527  -3.063 123.150  0.00  0.00    +0.004 C 
ATOM      5  C   LIG A   1      -9.169  -3.471 124.573  0.00  0.00    +0.005 C 
ATOM      6  C   LIG A   1      -7.674  -3.775 124.705  0.00  0.00    +0.030 C 
ENDROOT
BRANCH   1   7
ATOM      7  C   LIG A   1      -5.317  -2.784 124.383  0.00  0.00    +0.030 C 
BRANCH   7   9
ATOM      8  C   LIG A   1      -4.329  -4.944 123.526  0.00  0.00    +0.004 C 
ATOM      9  C   LIG A   1      -4.431  -3.439 123.321  0.00  0.00    +0.001 C 
ENDBRANCH   7   9
ENDBRANCH   1   7
TORSDOF 2
ENDMDL
MODEL 2
REMARK VINA RESULT:      -5.0     13.074     14.537
REMARK  Name = NuBBE_2138
REMARK  3 active torsions:
REMARK  status: ('A' for Active; 'I' for Inactive)
REMARK    1  A    between atoms: C_1  and  C_2
REMARK    2  A    between atoms: C_2  and  C_3
REMARK    3  A    between atoms: C_3  and  C_4
REMARK                            x       y       z     vdW  Elec       q    Type
REMARK                         _______ _______ _______ _____ _____    ______ ____
ROOT
ATOM      1  C   LIG A   1     -12.504   8.695 128.950  0.00  0.00    -0.073 C 
ATOM      2  C   LIG A   1     -11.499   8.563 128.069  0.00  0.00    -0.028 C 
ATOM      3  C   LIG A   1     -10.549   7.398 128.046  0.00  0.00    +0.027 C 
ATOM      4  C   LIG A   1     -10.636   6.520 129.295  0.00  0.00    +0.004 C 
ATOM      5  C   LIG A   1     -12.084   6.300 129.715  0.00  0.00    +0.005 C 
ATOM      6  C   LIG A   1     -12.792   7.630 129.986  0.00  0.00    +0.030 C 
ENDROOT
BRANCH   1   7
ATOM      7  C   LIG A   1     -13.428   9.896 128.935  0.00  0.00    +0.030 C 
BRANCH   7   9
ATOM      8  C   LIG A   1     -13.802  12.164 129.982  0.00  0.00    +0.004 C 
ATOM      9  C   LIG A   1     -13.352  10.728 130.217  0.00  0.00    +0.001 C 
ENDBRANCH   7   9
ENDBRANCH   1   7
TORSDOF 2
ENDMDL
MODEL 3
REMARK VINA RESULT:      -4.9      1.294      1.919
REMARK  Name = NuBBE_2138
REMARK  3 active torsions:
REMARK  status: ('A' for Active; 'I' for Inactive)
REMARK    1  A    between atoms: C_1  and  C_2
REMARK    2  A    between atoms: C_2  and  C_3
REMARK    3  A    between atoms: C_3  and  C_4
REMARK                            x       y       z     vdW  Elec       q    Type
REMARK                         _______ _______ _______ _____ _____    ______ ____
ROOT
ATOM      1  C   LIG A   1      -6.776  -2.761 124.174  0.00  0.00    -0.073 C 
ATOM      2  C   LIG A   1      -8.034  -3.079 123.827  0.00  0.00    -0.028 C 
ATOM      3  C   LIG A   1      -9.171  -3.189 124.804  0.00  0.00    +0.027 C 
ATOM      4  C   LIG A   1      -8.718  -3.200 126.265  0.00  0.00    +0.004 C 
ATOM      5  C   LIG A   1      -7.616  -2.177 126.508  0.00  0.00    +0.005 C 
ATOM      6  C   LIG A   1      -6.407  -2.436 125.605  0.00  0.00    +0.030 C 
ENDROOT
BRANCH   1   7
ATOM      7  C   LIG A   1      -5.663  -2.672 123.148  0.00  0.00    +0.030 C 
BRANCH   7   9
ATOM      8  C   LIG A   1      -4.440  -4.851 123.518  0.00  0.00    +0.004 C 
ATOM      9  C   LIG A   1      -4.364  -3.334 123.614  0.00  0.00    +0.001 C 
ENDBRANCH   7   9
ENDBRANCH   1   7
TORSDOF 2
ENDMDL
MODEL 4
REMARK VINA RESULT:      -4.8     12.160     13.353
REMARK  Name = NuBBE_2138
REMARK  3 active torsions:
REMARK  status: ('A' for Active; 'I' for Inactive)
REMARK    1  A    between atoms: C_1  and  C_2
REMARK    2  A    between atoms: C_2  and  C_3
REMARK    3  A    between atoms: C_3  and  C_4
REMARK                            x       y       z     vdW  Elec       q    Type
REMARK                         _______ _______ _______ _____ _____    ______ ____
ROOT
ATOM      1  C   LIG A   1     -11.605   7.931 129.685  0.00  0.00    -0.073 C 
ATOM      2  C   LIG A   1     -10.289   7.771 129.462  0.00  0.00    -0.028 C 
ATOM      3  C   LIG A   1      -9.394   6.907 130.306  0.00  0.00    +0.027 C 
ATOM      4  C   LIG A   1     -10.042   6.459 131.617  0.00  0.00    +0.004 C 
ATOM      5  C   LIG A   1     -11.494   6.051 131.404  0.00  0.00    +0.005 C 
ATOM      6  C   LIG A   1     -12.311   7.199 130.805  0.00  0.00    +0.030 C 
ENDROOT
BRANCH   1   7
ATOM      7  C   LIG A   1     -12.461   8.822 128.808  0.00  0.00    +0.030 C 
BRANCH   7   9
ATOM      8  C   LIG A   1     -12.912   7.077 127.038  0.00  0.00    +0.004 C 
ATOM      9  C   LIG A   1     -13.531   8.050 128.032  0.00  0.00    +0.001 C 
ENDBRANCH   7   9
ENDBRANCH   1   7
TORSDOF 2
ENDMDL
MODEL 5
REMARK VINA RESULT:      -4.8      6.214      8.092
REMARK  Name = NuBBE_2138
REMARK  3 active torsions:
REMARK  status: ('A' for Active; 'I' for Inactive)
REMARK    1  A    between atoms: C_1  and  C_2
REMARK    2  A    between atoms: C_2  and  C_3
REMARK    3  A    between atoms: C_3  and  C_4
REMARK                            x       y       z     vdW  Elec       q    Type
REMARK                         _______ _______ _______ _____ _____    ______ ____
ROOT
ATOM      1  C   LIG A   1      -7.588   3.676 121.094  0.00  0.00    -0.073 C 
ATOM      2  C   LIG A   1      -7.770   4.152 119.850  0.00  0.00    -0.028 C 
ATOM      3  C   LIG A   1      -6.682   4.781 119.025  0.00  0.00    +0.027 C 
ATOM      4  C   LIG A   1      -5.422   5.106 119.827  0.00  0.00    +0.004 C 
ATOM      5  C   LIG A   1      -5.075   3.978 120.791  0.00  0.00    +0.005 C 
ATOM      6  C   LIG A   1      -6.228   3.699 121.758  0.00  0.00    +0.030 C 
ENDROOT
BRANCH   1   7
ATOM      7  C   LIG A   1      -8.722   3.059 121.887  0.00  0.00    +0.030 C 
BRANCH   7   9
ATOM      8  C   LIG A   1      -9.431   2.012 124.074  0.00  0.00    +0.004 C 
ATOM      9  C   LIG A   1      -8.379   2.853 123.365  0.00  0.00    +0.001 C 
ENDBRANCH   7   9
ENDBRANCH   1   7
TORSDOF 2
ENDMDL
MODEL 6
REMARK VINA RESULT:      -4.7     12.367     13.746
REMARK  Name = NuBBE_2138
REMARK  3 active torsions:
REMARK  status: ('A' for Active; 'I' for Inactive)
REMARK    1  A    between atoms: C_1  and  C_2
REMARK    2  A    between atoms: C_2  and  C_3
REMARK    3  A    between atoms: C_3  and  C_4
REMARK                            x       y       z     vdW  Elec       q    Type
REMARK                         _______ _______ _______ _____ _____    ______ ____
ROOT
ATOM      1  C   LIG A   1     -11.898   7.042 130.028  0.00  0.00    -0.073 C 
ATOM      2  C   LIG A   1     -12.011   6.671 131.315  0.00  0.00    -0.028 C 
ATOM      3  C   LIG A   1     -10.841   6.326 132.194  0.00  0.00    +0.027 C 
ATOM      4  C   LIG A   1      -9.534   6.145 131.422  0.00  0.00    +0.004 C 
ATOM      5  C   LIG A   1      -9.375   7.212 130.347  0.00  0.00    +0.005 C 
ATOM      6  C   LIG A   1     -10.547   7.188 129.363  0.00  0.00    +0.030 C 
ENDROOT
BRANCH   1   7
ATOM      7  C   LIG A   1     -13.112   7.371 129.183  0.00  0.00    +0.030 C 
BRANCH   7   9
ATOM      8  C   LIG A   1     -13.138   9.883 129.441  0.00  0.00    +0.004 C 
ATOM      9  C   LIG A   1     -12.999   8.720 128.468  0.00  0.00    +0.001 C 
ENDBRANCH   7   9
ENDBRANCH   1   7
TORSDOF 2
ENDMDL
MODEL 7
REMARK VINA RESULT:      -4.7     12.409     12.768
REMARK  Name = NuBBE_2138
REMARK  3 active torsions:
REMARK  status: ('A' for Active; 'I' for Inactive)
REMARK    1  A    between atoms: C_1  and  C_2
REMARK    2  A    between atoms: C_2  and  C_3
REMARK    3  A    between atoms: C_3  and  C_4
REMARK                            x       y       z     vdW  Elec       q    Type
REMARK                         _______ _______ _______ _____ _____    ______ ____
ROOT
ATOM      1  C   LIG A   1     -11.047   7.099 129.966  0.00  0.00    -0.073 C 
ATOM      2  C   LIG A   1     -12.320   6.670 129.922  0.00  0.00    -0.028 C 
ATOM      3  C   LIG A   1     -13.336   7.160 128.929  0.00  0.00    +0.027 C 
ATOM      4  C   LIG A   1     -12.887   8.404 128.163  0.00  0.00    +0.004 C 
ATOM      5  C   LIG A   1     -11.424   8.299 127.749  0.00  0.00    +0.005 C 
ATOM      6  C   LIG A   1     -10.515   8.101 128.965  0.00  0.00    +0.030 C 
ENDROOT
BRANCH   1   7
ATOM      7  C   LIG A   1     -10.063   6.579 130.995  0.00  0.00    +0.030 C 
BRANCH   7   9
ATOM      8  C   LIG A   1      -7.647   6.379 131.704  0.00  0.00    +0.004 C 
ATOM      9  C   LIG A   1      -8.620   7.007 130.716  0.00  0.00    +0.001 C 
ENDBRANCH   7   9
ENDBRANCH   1   7
TORSDOF 2
ENDMDL
MODEL 8
REMARK VINA RESULT:      -4.6      1.518      3.897
REMARK  Name = NuBBE_2138
REMARK  3 active torsions:
REMARK  status: ('A' for Active; 'I' for Inactive)
REMARK    1  A    between atoms: C_1  and  C_2
REMARK    2  A    between atoms: C_2  and  C_3
REMARK    3  A    between atoms: C_3  and  C_4
REMARK                            x       y       z     vdW  Elec       q    Type
REMARK                         _______ _______ _______ _____ _____    ______ ____
ROOT
ATOM      1  C   LIG A   1      -7.618  -3.139 124.267  0.00  0.00    -0.073 C 
ATOM      2  C   LIG A   1      -6.340  -3.552 124.316  0.00  0.00    -0.028 C 
ATOM      3  C   LIG A   1      -5.238  -2.971 123.475  0.00  0.00    +0.027 C 
ATOM      4  C   LIG A   1      -5.744  -2.074 122.345  0.00  0.00    +0.004 C 
ATOM      5  C   LIG A   1      -6.879  -1.175 122.819  0.00  0.00    +0.005 C 
ATOM      6  C   LIG A   1      -8.047  -1.998 123.370  0.00  0.00    +0.030 C 
ENDROOT
BRANCH   1   7
ATOM      7  C   LIG A   1      -8.694  -3.766 125.130  0.00  0.00    +0.030 C 
BRANCH   7   9
ATOM      8  C   LIG A   1      -8.849  -3.826 127.651  0.00  0.00    +0.004 C 
ATOM      9  C   LIG A   1      -8.985  -2.965 126.402  0.00  0.00    +0.001 C 
ENDBRANCH   7   9
ENDBRANCH   1   7
TORSDOF 2
ENDMDL
MODEL 9
REMARK VINA RESULT:      -4.6      2.235      3.833
REMARK  Name = NuBBE_2138
REMARK  3 active torsions:
REMARK  status: ('A' for Active; 'I' for Inactive)
REMARK    1  A    between atoms: C_1  and  C_2
REMARK    2  A    between atoms: C_2  and  C_3
REMARK    3  A    between atoms: C_3  and  C_4
REMARK                            x       y       z     vdW  Elec       q    Type
REMARK                         _______ _______ _______ _____ _____    ______ ____
ROOT
ATOM      1  C   LIG A   1      -8.463  -3.235 125.663  0.00  0.00    -0.073 C 
ATOM      2  C   LIG A   1      -9.373  -3.329 124.678  0.00  0.00    -0.028 C 
ATOM      3  C   LIG A   1      -9.100  -2.962 123.247  0.00  0.00    +0.027 C 
ATOM      4  C   LIG A   1      -7.794  -2.191 123.055  0.00  0.00    +0.004 C 
ATOM      5  C   LIG A   1      -6.675  -2.781 123.904  0.00  0.00    +0.005 C 
ATOM      6  C   LIG A   1      -7.046  -2.781 125.390  0.00  0.00    +0.030 C 
ENDROOT
BRANCH   1   7
ATOM      7  C   LIG A   1      -8.793  -3.610 127.094  0.00  0.00    +0.030 C 
BRANCH   7   9
ATOM      8  C   LIG A   1      -7.562  -3.504 129.297  0.00  0.00    +0.004 C 
ATOM      9  C   LIG A   1      -8.113  -2.705 128.124  0.00  0.00    +0.001 C 
ENDBRANCH   7   9
ENDBRANCH   1   7
TORSDOF 2
ENDMDL
