MODEL 1
REMARK VINA RESULT:      -9.4      0.000      0.000
REMARK  Name = NuBBE_1583
REMARK  10 active torsions:
REMARK  status: ('A' for Active; 'I' for Inactive)
REMARK    1  A    between atoms: C_1  and  C_2
REMARK    2  A    between atoms: C_6  and  C_10
REMARK    3  A    between atoms: C_13  and  C_18
REMARK    4  A    between atoms: C_16  and  O_17
REMARK    5  A    between atoms: C_20  and  C_22
REMARK    6  A    between atoms: C_20  and  C_23
REMARK    7  A    between atoms: C_28  and  C_29
REMARK    8  A    between atoms: C_33  and  O_35
REMARK    9  A    between atoms: C_36  and  C_37
REMARK   10  A    between atoms: C_36  and  C_38
REMARK                            x       y       z     vdW  Elec       q    Type
REMARK                         _______ _______ _______ _____ _____    ______ ____
ROOT
ATOM      1  C   LIG A   1      -8.173  -0.341 129.821  0.00  0.00    +0.014 C 
ATOM      2  C   LIG A   1      -7.689  -0.177 131.287  0.00  0.00    +0.003 C 
ATOM      3  C   LIG A   1      -8.336   1.114 131.880  0.00  0.00    -0.015 C 
ATOM      4  C   LIG A   1      -7.745   2.437 131.481  0.00  0.00    -0.019 C 
ATOM      5  C   LIG A   1      -7.622   1.971 132.919  0.00  0.00    +0.016 C 
ATOM      6  C   LIG A   1      -8.914   3.341 131.047  0.00  0.00    +0.004 C 
ATOM      7  C   LIG A   1     -10.134   2.749 131.782  0.00  0.00    +0.005 C 
ATOM      8  C   LIG A   1      -9.855   1.240 131.866  0.00  0.00    +0.008 C 
ATOM      9  C   LIG A   1      -6.524   2.439 130.595  0.00  0.00    +0.008 C 
ATOM     10  C   LIG A   1      -5.558   1.256 130.772  0.00  0.00    +0.005 C 
ATOM     11  C   LIG A   1      -6.124  -0.056 131.383  0.00  0.00    +0.004 C 
ATOM     12  C   LIG A   1      -5.291  -1.364 131.030  0.00  0.00    -0.025 C 
ATOM     13  C   LIG A   1      -5.324  -1.669 129.515  0.00  0.00    +0.012 C 
ATOM     14  C   LIG A   1      -5.849  -2.537 131.922  0.00  0.00    +0.010 C 
ATOM     15  C   LIG A   1      -7.379  -2.705 131.739  0.00  0.00    +0.036 C 
ATOM     16  C   LIG A   1      -8.150  -1.425 132.103  0.00  0.00    +0.122 C 
ATOM     17  C   LIG A   1      -5.031  -3.875 131.886  0.00  0.00    +0.027 C 
ATOM     18  C   LIG A   1      -5.505  -4.806 133.031  0.00  0.00    +0.019 C 
ATOM     19  C   LIG A   1      -5.136  -4.673 130.579  0.00  0.00    +0.019 C 
ATOM     20  C   LIG A   1      -3.546  -3.553 132.135  0.00  0.00    +0.139 C 
ATOM     21  O   LIG A   1      -2.818  -4.284 132.807  0.00  0.00    -0.297 OA
ATOM     22  C   LIG A   1      -2.940  -2.383 131.392  0.00  0.00    +0.075 C 
ATOM     23  C   LIG A   1      -3.811  -1.136 131.457  0.00  0.00    +0.015 C 
ENDROOT
BRANCH   6  24
ATOM     24  C   LIG A   1      -8.634   4.844 131.238  0.00  0.00    +0.051 C 
ATOM     25  C   LIG A   1      -9.773   5.703 131.774  0.00  0.00    +0.043 C 
ATOM     26  C   LIG A   1     -10.066   6.723 130.686  0.00  0.00    +0.153 C 
ATOM     27  O   LIG A   1      -8.845   6.856 129.950  0.00  0.00    -0.345 OA
ATOM     28  C   LIG A   1      -8.135   5.622 130.015  0.00  0.00    +0.251 C 
BRANCH  26  29
ATOM     29  C   LIG A   1     -11.227   6.319 129.816  0.00  0.00    +0.179 C 
ATOM     30  C   LIG A   1     -11.975   7.275 128.898  0.00  0.00    +0.093 C 
ATOM     31  O   LIG A   1     -11.012   6.337 128.395  0.00  0.00    -0.363 OA
ATOM     32  C   LIG A   1     -13.388   6.943 128.525  0.00  0.00    +0.044 C 
ATOM     33  C   LIG A   1     -11.571   8.709 128.765  0.00  0.00    +0.044 C 
ENDBRANCH  26  29
BRANCH  28  34
ATOM     34  O   LIG A   1      -8.294   4.948 128.788  0.00  0.00    -0.367 OA
ATOM     35  H   LIG A   1      -9.182   5.221 128.483  0.00  0.00    +0.212 HD
ENDBRANCH  28  34
ENDBRANCH   6  24
BRANCH  16  36
ATOM     36  O   LIG A   1      -7.956  -1.226 133.510  0.00  0.00    -0.391 OA
ATOM     37  H   LIG A   1      -8.430  -1.936 133.974  0.00  0.00    +0.210 HD
ENDBRANCH  16  36
TORSDOF 4
ENDMDL
MODEL 2
REMARK VINA RESULT:      -8.9      4.835      8.872
REMARK  Name = NuBBE_1583
REMARK  10 active torsions:
REMARK  status: ('A' for Active; 'I' for Inactive)
REMARK    1  A    between atoms: C_1  and  C_2
REMARK    2  A    between atoms: C_6  and  C_10
REMARK    3  A    between atoms: C_13  and  C_18
REMARK    4  A    between atoms: C_16  and  O_17
REMARK    5  A    between atoms: C_20  and  C_22
REMARK    6  A    between atoms: C_20  and  C_23
REMARK    7  A    between atoms: C_28  and  C_29
REMARK    8  A    between atoms: C_33  and  O_35
REMARK    9  A    between atoms: C_36  and  C_37
REMARK   10  A    between atoms: C_36  and  C_38
REMARK                            x       y       z     vdW  Elec       q    Type
REMARK                         _______ _______ _______ _____ _____    ______ ____
ROOT
ATOM      1  C   LIG A   1      -5.169  -2.120 127.836  0.00  0.00    +0.014 C 
ATOM      2  C   LIG A   1      -6.513  -1.369 128.031  0.00  0.00    +0.003 C 
ATOM      3  C   LIG A   1      -6.779  -1.220 129.563  0.00  0.00    -0.015 C 
ATOM      4  C   LIG A   1      -7.283  -2.426 130.303  0.00  0.00    -0.019 C 
ATOM      5  C   LIG A   1      -8.189  -1.221 130.142  0.00  0.00    +0.016 C 
ATOM      6  C   LIG A   1      -6.406  -2.585 131.559  0.00  0.00    +0.004 C 
ATOM      7  C   LIG A   1      -5.865  -1.164 131.816  0.00  0.00    +0.005 C 
ATOM      8  C   LIG A   1      -5.723  -0.533 130.421  0.00  0.00    +0.008 C 
ATOM      9  C   LIG A   1      -7.572  -3.682 129.518  0.00  0.00    +0.008 C 
ATOM     10  C   LIG A   1      -8.064  -3.479 128.076  0.00  0.00    +0.005 C 
ATOM     11  C   LIG A   1      -7.719  -2.135 127.375  0.00  0.00    +0.004 C 
ATOM     12  C   LIG A   1      -7.738  -2.194 125.785  0.00  0.00    -0.025 C 
ATOM     13  C   LIG A   1      -6.645  -3.139 125.237  0.00  0.00    +0.012 C 
ATOM     14  C   LIG A   1      -7.618  -0.715 125.256  0.00  0.00    +0.010 C 
ATOM     15  C   LIG A   1      -6.368  -0.008 125.837  0.00  0.00    +0.036 C 
ATOM     16  C   LIG A   1      -6.393   0.041 127.374  0.00  0.00    +0.122 C 
ATOM     17  C   LIG A   1      -7.826  -0.521 123.712  0.00  0.00    +0.027 C 
ATOM     18  C   LIG A   1      -7.995   0.987 123.395  0.00  0.00    +0.019 C 
ATOM     19  C   LIG A   1      -6.690  -1.047 122.826  0.00  0.00    +0.019 C 
ATOM     20  C   LIG A   1      -9.128  -1.231 123.296  0.00  0.00    +0.139 C 
ATOM     21  O   LIG A   1      -9.894  -0.761 122.454  0.00  0.00    -0.297 OA
ATOM     22  C   LIG A   1      -9.379  -2.623 123.830  0.00  0.00    +0.075 C 
ATOM     23  C   LIG A   1      -9.128  -2.727 125.329  0.00  0.00    +0.015 C 
ENDROOT
BRANCH   6  24
ATOM     24  C   LIG A   1      -7.122  -3.290 132.727  0.00  0.00    +0.051 C 
ATOM     25  C   LIG A   1      -7.751  -2.405 133.795  0.00  0.00    +0.043 C 
ATOM     26  C   LIG A   1      -7.035  -2.751 135.090  0.00  0.00    +0.153 C 
ATOM     27  O   LIG A   1      -6.559  -4.091 134.917  0.00  0.00    -0.345 OA
ATOM     28  C   LIG A   1      -6.306  -4.310 133.531  0.00  0.00    +0.251 C 
BRANCH  26  29
ATOM     29  C   LIG A   1      -5.930  -1.781 135.415  0.00  0.00    +0.179 C 
ATOM     30  C   LIG A   1      -5.739  -1.134 136.778  0.00  0.00    +0.093 C 
ATOM     31  O   LIG A   1      -4.921  -2.227 136.336  0.00  0.00    -0.363 OA
ATOM     32  C   LIG A   1      -5.008   0.172 136.849  0.00  0.00    +0.044 C 
ATOM     33  C   LIG A   1      -6.636  -1.458 137.931  0.00  0.00    +0.044 C 
ENDBRANCH  26  29
BRANCH  28  34
ATOM     34  O   LIG A   1      -4.917  -4.250 133.314  0.00  0.00    -0.367 OA
ATOM     35  H   LIG A   1      -4.803  -3.480 132.722  0.00  0.00    +0.212 HD
ENDBRANCH  28  34
ENDBRANCH   6  24
BRANCH  16  36
ATOM     36  O   LIG A   1      -7.503   0.877 127.731  0.00  0.00    -0.391 OA
ATOM     37  H   LIG A   1      -7.356   1.747 127.325  0.00  0.00    +0.210 HD
ENDBRANCH  16  36
TORSDOF 4
ENDMDL
MODEL 3
REMARK VINA RESULT:      -8.9      4.659      6.987
REMARK  Name = NuBBE_1583
REMARK  10 active torsions:
REMARK  status: ('A' for Active; 'I' for Inactive)
REMARK    1  A    between atoms: C_1  and  C_2
REMARK    2  A    between atoms: C_6  and  C_10
REMARK    3  A    between atoms: C_13  and  C_18
REMARK    4  A    between atoms: C_16  and  O_17
REMARK    5  A    between atoms: C_20  and  C_22
REMARK    6  A    between atoms: C_20  and  C_23
REMARK    7  A    between atoms: C_28  and  C_29
REMARK    8  A    between atoms: C_33  and  O_35
REMARK    9  A    between atoms: C_36  and  C_37
REMARK   10  A    between atoms: C_36  and  C_38
REMARK                            x       y       z     vdW  Elec       q    Type
REMARK                         _______ _______ _______ _____ _____    ______ ____
ROOT
ATOM      1  C   LIG A   1      -4.819  -1.431 131.346  0.00  0.00    +0.014 C 
ATOM      2  C   LIG A   1      -5.753  -2.632 131.041  0.00  0.00    +0.003 C 
ATOM      3  C   LIG A   1      -6.136  -2.589 129.528  0.00  0.00    -0.015 C 
ATOM      4  C   LIG A   1      -7.182  -1.598 129.102  0.00  0.00    -0.019 C 
ATOM      5  C   LIG A   1      -7.488  -3.082 129.023  0.00  0.00    +0.016 C 
ATOM      6  C   LIG A   1      -6.623  -0.847 127.880  0.00  0.00    +0.004 C 
ATOM      7  C   LIG A   1      -5.588  -1.824 127.285  0.00  0.00    +0.005 C 
ATOM      8  C   LIG A   1      -5.018  -2.584 128.493  0.00  0.00    +0.008 C 
ATOM      9  C   LIG A   1      -7.851  -0.759 130.163  0.00  0.00    +0.008 C 
ATOM     10  C   LIG A   1      -8.021  -1.420 131.540  0.00  0.00    +0.005 C 
ATOM     11  C   LIG A   1      -7.067  -2.593 131.903  0.00  0.00    +0.004 C 
ATOM     12  C   LIG A   1      -6.897  -2.849 133.464  0.00  0.00    -0.025 C 
ATOM     13  C   LIG A   1      -6.221  -1.649 134.167  0.00  0.00    +0.012 C 
ATOM     14  C   LIG A   1      -6.114  -4.205 133.639  0.00  0.00    +0.010 C 
ATOM     15  C   LIG A   1      -4.775  -4.187 132.862  0.00  0.00    +0.036 C 
ATOM     16  C   LIG A   1      -4.982  -3.952 131.355  0.00  0.00    +0.122 C 
ATOM     17  C   LIG A   1      -6.017  -4.756 135.105  0.00  0.00    +0.027 C 
ATOM     18  C   LIG A   1      -5.513  -6.221 135.078  0.00  0.00    +0.019 C 
ATOM     19  C   LIG A   1      -5.087  -3.972 136.040  0.00  0.00    +0.019 C 
ATOM     20  C   LIG A   1      -7.428  -4.763 135.725  0.00  0.00    +0.139 C 
ATOM     21  O   LIG A   1      -7.815  -5.664 136.469  0.00  0.00    -0.297 OA
ATOM     22  C   LIG A   1      -8.293  -3.538 135.531  0.00  0.00    +0.075 C 
ATOM     23  C   LIG A   1      -8.309  -3.057 134.087  0.00  0.00    +0.015 C 
ENDROOT
BRANCH   6  24
ATOM     24  C   LIG A   1      -7.713  -0.309 126.933  0.00  0.00    +0.051 C 
ATOM     25  C   LIG A   1      -8.247  -1.263 125.872  0.00  0.00    +0.043 C 
ATOM     26  C   LIG A   1      -7.911  -0.622 124.536  0.00  0.00    +0.153 C 
ATOM     27  O   LIG A   1      -7.816   0.782 124.800  0.00  0.00    -0.345 OA
ATOM     28  C   LIG A   1      -7.387   0.966 126.147  0.00  0.00    +0.251 C 
BRANCH  26  29
ATOM     29  C   LIG A   1      -6.653  -1.183 123.927  0.00  0.00    +0.179 C 
ATOM     30  C   LIG A   1      -6.369  -2.671 123.781  0.00  0.00    +0.093 C 
ATOM     31  O   LIG A   1      -6.787  -1.865 122.669  0.00  0.00    -0.363 OA
ATOM     32  C   LIG A   1      -4.941  -3.117 123.696  0.00  0.00    +0.044 C 
ATOM     33  C   LIG A   1      -7.365  -3.703 124.207  0.00  0.00    +0.044 C 
ENDBRANCH  26  29
BRANCH  28  34
ATOM     34  O   LIG A   1      -6.023   1.317 126.139  0.00  0.00    -0.367 OA
ATOM     35  H   LIG A   1      -5.974   2.062 125.508  0.00  0.00    +0.212 HD
ENDBRANCH  28  34
ENDBRANCH   6  24
BRANCH  16  36
ATOM     36  O   LIG A   1      -5.691  -5.098 130.864  0.00  0.00    -0.391 OA
ATOM     37  H   LIG A   1      -5.031  -5.768 130.622  0.00  0.00    +0.210 HD
ENDBRANCH  16  36
TORSDOF 4
ENDMDL
MODEL 4
REMARK VINA RESULT:      -8.9      4.370      6.028
REMARK  Name = NuBBE_1583
REMARK  10 active torsions:
REMARK  status: ('A' for Active; 'I' for Inactive)
REMARK    1  A    between atoms: C_1  and  C_2
REMARK    2  A    between atoms: C_6  and  C_10
REMARK    3  A    between atoms: C_13  and  C_18
REMARK    4  A    between atoms: C_16  and  O_17
REMARK    5  A    between atoms: C_20  and  C_22
REMARK    6  A    between atoms: C_20  and  C_23
REMARK    7  A    between atoms: C_28  and  C_29
REMARK    8  A    between atoms: C_33  and  O_35
REMARK    9  A    between atoms: C_36  and  C_37
REMARK   10  A    between atoms: C_36  and  C_38
REMARK                            x       y       z     vdW  Elec       q    Type
REMARK                         _______ _______ _______ _____ _____    ______ ____
ROOT
ATOM      1  C   LIG A   1      -7.714  -0.083 130.253  0.00  0.00    +0.014 C 
ATOM      2  C   LIG A   1      -6.382  -0.553 129.609  0.00  0.00    +0.003 C 
ATOM      3  C   LIG A   1      -6.299   0.030 128.163  0.00  0.00    -0.015 C 
ATOM      4  C   LIG A   1      -7.115  -0.639 127.094  0.00  0.00    -0.019 C 
ATOM      5  C   LIG A   1      -5.601  -0.716 127.031  0.00  0.00    +0.016 C 
ATOM      6  C   LIG A   1      -7.876   0.470 126.344  0.00  0.00    +0.004 C 
ATOM      7  C   LIG A   1      -7.022   1.732 126.583  0.00  0.00    +0.005 C 
ATOM      8  C   LIG A   1      -6.407   1.539 127.979  0.00  0.00    +0.008 C 
ATOM      9  C   LIG A   1      -7.904  -1.872 127.459  0.00  0.00    +0.008 C 
ATOM     10  C   LIG A   1      -7.294  -2.768 128.549  0.00  0.00    +0.005 C 
ATOM     11  C   LIG A   1      -6.282  -2.120 129.536  0.00  0.00    +0.004 C 
ATOM     12  C   LIG A   1      -6.128  -2.885 130.922  0.00  0.00    -0.025 C 
ATOM     13  C   LIG A   1      -7.443  -2.857 131.737  0.00  0.00    +0.012 C 
ATOM     14  C   LIG A   1      -4.903  -2.248 131.681  0.00  0.00    +0.010 C 
ATOM     15  C   LIG A   1      -5.067  -0.715 131.830  0.00  0.00    +0.036 C 
ATOM     16  C   LIG A   1      -5.198  -0.011 130.469  0.00  0.00    +0.122 C 
ATOM     17  C   LIG A   1      -4.442  -2.991 132.984  0.00  0.00    +0.027 C 
ATOM     18  C   LIG A   1      -3.061  -2.450 133.431  0.00  0.00    +0.019 C 
ATOM     19  C   LIG A   1      -5.391  -2.862 134.183  0.00  0.00    +0.019 C 
ATOM     20  C   LIG A   1      -4.272  -4.489 132.665  0.00  0.00    +0.139 C 
ATOM     21  O   LIG A   1      -3.363  -5.165 133.147  0.00  0.00    -0.297 OA
ATOM     22  C   LIG A   1      -5.355  -5.170 131.859  0.00  0.00    +0.075 C 
ATOM     23  C   LIG A   1      -5.759  -4.369 130.629  0.00  0.00    +0.015 C 
ENDROOT
BRANCH   6  24
ATOM     24  C   LIG A   1      -8.212   0.110 124.885  0.00  0.00    +0.051 C 
ATOM     25  C   LIG A   1      -7.101   0.268 123.854  0.00  0.00    +0.043 C 
ATOM     26  C   LIG A   1      -7.603   1.304 122.863  0.00  0.00    +0.153 C 
ATOM     27  O   LIG A   1      -9.032   1.238 122.933  0.00  0.00    -0.345 OA
ATOM     28  C   LIG A   1      -9.406   0.829 124.246  0.00  0.00    +0.251 C 
BRANCH  26  29
ATOM     29  C   LIG A   1      -7.072   2.683 123.152  0.00  0.00    +0.179 C 
ATOM     30  C   LIG A   1      -6.112   3.434 122.241  0.00  0.00    +0.093 C 
ATOM     31  O   LIG A   1      -7.512   3.745 122.288  0.00  0.00    -0.363 OA
ATOM     32  C   LIG A   1      -5.241   4.494 122.845  0.00  0.00    +0.044 C 
ATOM     33  C   LIG A   1      -5.649   2.853 120.942  0.00  0.00    +0.044 C 
ENDBRANCH  26  29
BRANCH  28  34
ATOM     34  O   LIG A   1      -9.857   1.958 124.956  0.00  0.00    -0.367 OA
ATOM     35  H   LIG A   1     -10.767   2.098 124.624  0.00  0.00    +0.212 HD
ENDBRANCH  28  34
ENDBRANCH   6  24
BRANCH  16  36
ATOM     36  O   LIG A   1      -3.943  -0.195 129.799  0.00  0.00    -0.391 OA
ATOM     37  H   LIG A   1      -3.261   0.252 130.328  0.00  0.00    +0.210 HD
ENDBRANCH  16  36
TORSDOF 4
ENDMDL
MODEL 5
REMARK VINA RESULT:      -8.7      3.946      9.547
REMARK  Name = NuBBE_1583
REMARK  10 active torsions:
REMARK  status: ('A' for Active; 'I' for Inactive)
REMARK    1  A    between atoms: C_1  and  C_2
REMARK    2  A    between atoms: C_6  and  C_10
REMARK    3  A    between atoms: C_13  and  C_18
REMARK    4  A    between atoms: C_16  and  O_17
REMARK    5  A    between atoms: C_20  and  C_22
REMARK    6  A    between atoms: C_20  and  C_23
REMARK    7  A    between atoms: C_28  and  C_29
REMARK    8  A    between atoms: C_33  and  O_35
REMARK    9  A    between atoms: C_36  and  C_37
REMARK   10  A    between atoms: C_36  and  C_38
REMARK                            x       y       z     vdW  Elec       q    Type
REMARK                         _______ _______ _______ _____ _____    ______ ____
ROOT
ATOM      1  C   LIG A   1      -7.908   0.562 129.140  0.00  0.00    +0.014 C 
ATOM      2  C   LIG A   1      -7.291  -0.085 127.871  0.00  0.00    +0.003 C 
ATOM      3  C   LIG A   1      -6.966  -1.579 128.186  0.00  0.00    -0.015 C 
ATOM      4  C   LIG A   1      -5.735  -1.868 128.998  0.00  0.00    -0.019 C 
ATOM      5  C   LIG A   1      -5.785  -2.301 127.545  0.00  0.00    +0.016 C 
ATOM      6  C   LIG A   1      -6.150  -2.838 130.120  0.00  0.00    +0.004 C 
ATOM      7  C   LIG A   1      -7.405  -3.538 129.559  0.00  0.00    +0.005 C 
ATOM      8  C   LIG A   1      -8.091  -2.482 128.678  0.00  0.00    +0.008 C 
ATOM      9  C   LIG A   1      -4.850  -0.713 129.396  0.00  0.00    +0.008 C 
ATOM     10  C   LIG A   1      -4.787   0.463 128.408  0.00  0.00    +0.005 C 
ATOM     11  C   LIG A   1      -5.973   0.642 127.419  0.00  0.00    +0.004 C 
ATOM     12  C   LIG A   1      -6.139   2.116 126.845  0.00  0.00    -0.025 C 
ATOM     13  C   LIG A   1      -6.490   3.126 127.962  0.00  0.00    +0.012 C 
ATOM     14  C   LIG A   1      -7.208   2.057 125.689  0.00  0.00    +0.010 C 
ATOM     15  C   LIG A   1      -8.535   1.427 126.181  0.00  0.00    +0.036 C 
ATOM     16  C   LIG A   1      -8.336  -0.002 126.715  0.00  0.00    +0.122 C 
ATOM     17  C   LIG A   1      -7.375   3.367 124.842  0.00  0.00    +0.027 C 
ATOM     18  C   LIG A   1      -8.207   3.062 123.571  0.00  0.00    +0.019 C 
ATOM     19  C   LIG A   1      -8.062   4.532 125.565  0.00  0.00    +0.019 C 
ATOM     20  C   LIG A   1      -5.983   3.840 124.383  0.00  0.00    +0.139 C 
ATOM     21  O   LIG A   1      -5.788   4.327 123.269  0.00  0.00    -0.297 OA
ATOM     22  C   LIG A   1      -4.865   3.844 125.400  0.00  0.00    +0.075 C 
ATOM     23  C   LIG A   1      -4.792   2.547 126.194  0.00  0.00    +0.015 C 
ENDROOT
BRANCH   6  24
ATOM     24  C   LIG A   1      -5.001  -3.736 130.616  0.00  0.00    +0.051 C 
ATOM     25  C   LIG A   1      -5.365  -5.142 131.077  0.00  0.00    +0.043 C 
ATOM     26  C   LIG A   1      -4.968  -5.210 132.542  0.00  0.00    +0.153 C 
ATOM     27  O   LIG A   1      -3.928  -4.239 132.701  0.00  0.00    -0.345 OA
ATOM     28  C   LIG A   1      -4.132  -3.192 131.756  0.00  0.00    +0.251 C 
BRANCH  26  29
ATOM     29  C   LIG A   1      -6.133  -4.969 133.466  0.00  0.00    +0.179 C 
ATOM     30  C   LIG A   1      -6.206  -5.481 134.897  0.00  0.00    +0.093 C 
ATOM     31  O   LIG A   1      -5.901  -4.111 134.596  0.00  0.00    -0.363 OA
ATOM     32  C   LIG A   1      -7.556  -5.674 135.515  0.00  0.00    +0.044 C 
ATOM     33  C   LIG A   1      -5.076  -6.246 135.512  0.00  0.00    +0.044 C 
ENDBRANCH  26  29
BRANCH  28  34
ATOM     34  O   LIG A   1      -4.677  -2.081 132.427  0.00  0.00    -0.367 OA
ATOM     35  H   LIG A   1      -5.312  -2.474 133.059  0.00  0.00    +0.212 HD
ENDBRANCH  28  34
ENDBRANCH   6  24
BRANCH  16  36
ATOM     36  O   LIG A   1      -7.931  -0.797 125.591  0.00  0.00    -0.391 OA
ATOM     37  H   LIG A   1      -7.160  -0.365 125.190  0.00  0.00    +0.210 HD
ENDBRANCH  16  36
TORSDOF 4
ENDMDL
MODEL 6
REMARK VINA RESULT:      -8.6      4.835      7.093
REMARK  Name = NuBBE_1583
REMARK  10 active torsions:
REMARK  status: ('A' for Active; 'I' for Inactive)
REMARK    1  A    between atoms: C_1  and  C_2
REMARK    2  A    between atoms: C_6  and  C_10
REMARK    3  A    between atoms: C_13  and  C_18
REMARK    4  A    between atoms: C_16  and  O_17
REMARK    5  A    between atoms: C_20  and  C_22
REMARK    6  A    between atoms: C_20  and  C_23
REMARK    7  A    between atoms: C_28  and  C_29
REMARK    8  A    between atoms: C_33  and  O_35
REMARK    9  A    between atoms: C_36  and  C_37
REMARK   10  A    between atoms: C_36  and  C_38
REMARK                            x       y       z     vdW  Elec       q    Type
REMARK                         _______ _______ _______ _____ _____    ______ ____
ROOT
ATOM      1  C   LIG A   1      -5.409   1.324 126.305  0.00  0.00    +0.014 C 
ATOM      2  C   LIG A   1      -6.937   1.319 126.581  0.00  0.00    +0.003 C 
ATOM      3  C   LIG A   1      -7.232   2.316 127.746  0.00  0.00    -0.015 C 
ATOM      4  C   LIG A   1      -6.922   1.864 129.145  0.00  0.00    -0.019 C 
ATOM      5  C   LIG A   1      -8.366   2.086 128.738  0.00  0.00    +0.016 C 
ATOM      6  C   LIG A   1      -6.115   2.991 129.817  0.00  0.00    +0.004 C 
ATOM      7  C   LIG A   1      -6.516   4.255 129.029  0.00  0.00    +0.005 C 
ATOM      8  C   LIG A   1      -6.781   3.764 127.597  0.00  0.00    +0.008 C 
ATOM      9  C   LIG A   1      -6.418   0.457 129.350  0.00  0.00    +0.008 C 
ATOM     10  C   LIG A   1      -6.942  -0.600 128.364  0.00  0.00    +0.005 C 
ATOM     11  C   LIG A   1      -7.461  -0.108 126.983  0.00  0.00    +0.004 C 
ATOM     12  C   LIG A   1      -7.449  -1.213 125.840  0.00  0.00    -0.025 C 
ATOM     13  C   LIG A   1      -6.011  -1.672 125.505  0.00  0.00    +0.012 C 
ATOM     14  C   LIG A   1      -8.228  -0.624 124.604  0.00  0.00    +0.010 C 
ATOM     15  C   LIG A   1      -7.634   0.736 124.160  0.00  0.00    +0.036 C 
ATOM     16  C   LIG A   1      -7.675   1.782 125.287  0.00  0.00    +0.122 C 
ATOM     17  C   LIG A   1      -8.518  -1.629 123.434  0.00  0.00    +0.027 C 
ATOM     18  C   LIG A   1      -9.546  -1.007 122.456  0.00  0.00    +0.019 C 
ATOM     19  C   LIG A   1      -7.295  -2.042 122.605  0.00  0.00    +0.019 C 
ATOM     20  C   LIG A   1      -9.151  -2.904 124.023  0.00  0.00    +0.139 C 
ATOM     21  O   LIG A   1     -10.051  -3.517 123.448  0.00  0.00    -0.297 OA
ATOM     22  C   LIG A   1      -8.529  -3.495 125.268  0.00  0.00    +0.075 C 
ATOM     23  C   LIG A   1      -8.258  -2.447 126.339  0.00  0.00    +0.015 C 
ENDROOT
BRANCH   6  24
ATOM     24  C   LIG A   1      -6.271   3.033 131.348  0.00  0.00    +0.051 C 
ATOM     25  C   LIG A   1      -6.633   4.374 131.976  0.00  0.00    +0.043 C 
ATOM     26  C   LIG A   1      -5.475   4.724 132.895  0.00  0.00    +0.153 C 
ATOM     27  O   LIG A   1      -4.880   3.472 133.252  0.00  0.00    -0.345 OA
ATOM     28  C   LIG A   1      -5.080   2.549 132.184  0.00  0.00    +0.251 C 
BRANCH  26  29
ATOM     29  C   LIG A   1      -4.495   5.670 132.253  0.00  0.00    +0.179 C 
ATOM     30  C   LIG A   1      -3.557   6.581 133.030  0.00  0.00    +0.093 C 
ATOM     31  O   LIG A   1      -3.099   5.369 132.413  0.00  0.00    -0.363 OA
ATOM     32  C   LIG A   1      -3.054   7.823 132.359  0.00  0.00    +0.044 C 
ATOM     33  C   LIG A   1      -3.515   6.569 134.526  0.00  0.00    +0.044 C 
ENDBRANCH  26  29
BRANCH  28  34
ATOM     34  O   LIG A   1      -3.874   2.423 131.468  0.00  0.00    -0.367 OA
ATOM     35  H   LIG A   1      -3.254   3.012 131.944  0.00  0.00    +0.212 HD
ENDBRANCH  28  34
ENDBRANCH   6  24
BRANCH  16  36
ATOM     36  O   LIG A   1      -9.063   2.039 125.545  0.00  0.00    -0.391 OA
ATOM     37  H   LIG A   1      -9.566   1.268 125.235  0.00  0.00    +0.210 HD
ENDBRANCH  16  36
TORSDOF 4
ENDMDL
MODEL 7
REMARK VINA RESULT:      -8.6      5.549      8.255
REMARK  Name = NuBBE_1583
REMARK  10 active torsions:
REMARK  status: ('A' for Active; 'I' for Inactive)
REMARK    1  A    between atoms: C_1  and  C_2
REMARK    2  A    between atoms: C_6  and  C_10
REMARK    3  A    between atoms: C_13  and  C_18
REMARK    4  A    between atoms: C_16  and  O_17
REMARK    5  A    between atoms: C_20  and  C_22
REMARK    6  A    between atoms: C_20  and  C_23
REMARK    7  A    between atoms: C_28  and  C_29
REMARK    8  A    between atoms: C_33  and  O_35
REMARK    9  A    between atoms: C_36  and  C_37
REMARK   10  A    between atoms: C_36  and  C_38
REMARK                            x       y       z     vdW  Elec       q    Type
REMARK                         _______ _______ _______ _____ _____    ______ ____
ROOT
ATOM      1  C   LIG A   1      -3.231   2.897 127.033  0.00  0.00    +0.014 C 
ATOM      2  C   LIG A   1      -4.539   3.672 127.345  0.00  0.00    +0.003 C 
ATOM      3  C   LIG A   1      -4.253   4.680 128.502  0.00  0.00    -0.015 C 
ATOM      4  C   LIG A   1      -4.180   4.133 129.900  0.00  0.00    -0.019 C 
ATOM      5  C   LIG A   1      -5.320   5.060 129.523  0.00  0.00    +0.016 C 
ATOM      6  C   LIG A   1      -2.894   4.691 130.537  0.00  0.00    +0.004 C 
ATOM      7  C   LIG A   1      -2.616   5.983 129.742  0.00  0.00    +0.005 C 
ATOM      8  C   LIG A   1      -3.132   5.696 128.323  0.00  0.00    +0.008 C 
ATOM      9  C   LIG A   1      -4.459   2.666 130.113  0.00  0.00    +0.008 C 
ATOM     10  C   LIG A   1      -5.474   2.024 129.153  0.00  0.00    +0.005 C 
ATOM     11  C   LIG A   1      -5.706   2.711 127.778  0.00  0.00    +0.004 C 
ATOM     12  C   LIG A   1      -6.290   1.754 126.650  0.00  0.00    -0.025 C 
ATOM     13  C   LIG A   1      -5.296   0.627 126.289  0.00  0.00    +0.012 C 
ATOM     14  C   LIG A   1      -6.693   2.658 125.424  0.00  0.00    +0.010 C 
ATOM     15  C   LIG A   1      -5.501   3.526 124.948  0.00  0.00    +0.036 C 
ATOM     16  C   LIG A   1      -4.973   4.446 126.062  0.00  0.00    +0.122 C 
ATOM     17  C   LIG A   1      -7.486   1.941 124.275  0.00  0.00    +0.027 C 
ATOM     18  C   LIG A   1      -8.078   3.001 123.312  0.00  0.00    +0.019 C 
ATOM     19  C   LIG A   1      -6.666   0.963 123.424  0.00  0.00    +0.019 C 
ATOM     20  C   LIG A   1      -8.664   1.168 124.896  0.00  0.00    +0.139 C 
ATOM     21  O   LIG A   1      -9.766   1.099 124.351  0.00  0.00    -0.297 OA
ATOM     22  C   LIG A   1      -8.397   0.342 126.135  0.00  0.00    +0.075 C 
ATOM     23  C   LIG A   1      -7.601   1.105 127.185  0.00  0.00    +0.015 C 
ENDROOT
BRANCH   6  24
ATOM     24  C   LIG A   1      -2.965   4.807 132.071  0.00  0.00    +0.051 C 
ATOM     25  C   LIG A   1      -3.862   5.896 132.648  0.00  0.00    +0.043 C 
ATOM     26  C   LIG A   1      -2.941   6.816 133.431  0.00  0.00    +0.153 C 
ATOM     27  O   LIG A   1      -1.821   6.005 133.806  0.00  0.00    -0.345 OA
ATOM     28  C   LIG A   1      -1.640   4.992 132.819  0.00  0.00    +0.251 C 
BRANCH  26  29
ATOM     29  C   LIG A   1      -2.537   8.034 132.643  0.00  0.00    +0.179 C 
ATOM     30  C   LIG A   1      -2.113   9.353 133.272  0.00  0.00    +0.093 C 
ATOM     31  O   LIG A   1      -1.158   8.433 132.722  0.00  0.00    -0.363 OA
ATOM     32  C   LIG A   1      -2.270  10.607 132.467  0.00  0.00    +0.044 C 
ATOM     33  C   LIG A   1      -2.028   9.521 134.756  0.00  0.00    +0.044 C 
ENDBRANCH  26  29
BRANCH  28  34
ATOM     34  O   LIG A   1      -0.552   5.352 132.001  0.00  0.00    -0.367 OA
ATOM     35  H   LIG A   1      -0.543   4.666 131.305  0.00  0.00    +0.212 HD
ENDBRANCH  28  34
ENDBRANCH   6  24
BRANCH  16  36
ATOM     36  O   LIG A   1      -6.028   5.375 126.348  0.00  0.00    -0.391 OA
ATOM     37  H   LIG A   1      -6.652   5.348 125.603  0.00  0.00    +0.210 HD
ENDBRANCH  16  36
TORSDOF 4
ENDMDL
MODEL 8
REMARK VINA RESULT:      -8.6      4.123      6.189
REMARK  Name = NuBBE_1583
REMARK  10 active torsions:
REMARK  status: ('A' for Active; 'I' for Inactive)
REMARK    1  A    between atoms: C_1  and  C_2
REMARK    2  A    between atoms: C_6  and  C_10
REMARK    3  A    between atoms: C_13  and  C_18
REMARK    4  A    between atoms: C_16  and  O_17
REMARK    5  A    between atoms: C_20  and  C_22
REMARK    6  A    between atoms: C_20  and  C_23
REMARK    7  A    between atoms: C_28  and  C_29
REMARK    8  A    between atoms: C_33  and  O_35
REMARK    9  A    between atoms: C_36  and  C_37
REMARK   10  A    between atoms: C_36  and  C_38
REMARK                            x       y       z     vdW  Elec       q    Type
REMARK                         _______ _______ _______ _____ _____    ______ ____
ROOT
ATOM      1  C   LIG A   1      -8.212  -1.189 128.954  0.00  0.00    +0.014 C 
ATOM      2  C   LIG A   1      -7.125  -0.321 128.266  0.00  0.00    +0.003 C 
ATOM      3  C   LIG A   1      -6.773   0.871 129.210  0.00  0.00    -0.015 C 
ATOM      4  C   LIG A   1      -7.736   2.024 129.265  0.00  0.00    -0.019 C 
ATOM      5  C   LIG A   1      -6.357   2.234 128.669  0.00  0.00    +0.016 C 
ATOM      6  C   LIG A   1      -8.001   2.322 130.752  0.00  0.00    +0.004 C 
ATOM      7  C   LIG A   1      -6.750   1.773 131.469  0.00  0.00    +0.005 C 
ATOM      8  C   LIG A   1      -6.307   0.565 130.628  0.00  0.00    +0.008 C 
ATOM      9  C   LIG A   1      -8.940   1.997 128.356  0.00  0.00    +0.008 C 
ATOM     10  C   LIG A   1      -8.749   1.297 127.001  0.00  0.00    +0.005 C 
ATOM     11  C   LIG A   1      -7.610   0.246 126.882  0.00  0.00    +0.004 C 
ATOM     12  C   LIG A   1      -7.806  -0.813 125.713  0.00  0.00    -0.025 C 
ATOM     13  C   LIG A   1      -9.047  -1.703 125.952  0.00  0.00    +0.012 C 
ATOM     14  C   LIG A   1      -6.463  -1.626 125.580  0.00  0.00    +0.010 C 
ATOM     15  C   LIG A   1      -6.053  -2.261 126.933  0.00  0.00    +0.036 C 
ATOM     16  C   LIG A   1      -5.859  -1.205 128.034  0.00  0.00    +0.122 C 
ATOM     17  C   LIG A   1      -6.363  -2.588 124.344  0.00  0.00    +0.027 C 
ATOM     18  C   LIG A   1      -4.898  -3.065 124.173  0.00  0.00    +0.019 C 
ATOM     19  C   LIG A   1      -7.243  -3.843 124.417  0.00  0.00    +0.019 C 
ATOM     20  C   LIG A   1      -6.747  -1.804 123.076  0.00  0.00    +0.139 C 
ATOM     21  O   LIG A   1      -6.173  -1.973 121.999  0.00  0.00    -0.297 OA
ATOM     22  C   LIG A   1      -7.972  -0.920 123.132  0.00  0.00    +0.075 C 
ATOM     23  C   LIG A   1      -8.001  -0.041 124.375  0.00  0.00    +0.015 C 
ENDROOT
BRANCH   6  24
ATOM     24  C   LIG A   1      -8.387   3.787 131.029  0.00  0.00    +0.051 C 
ATOM     25  C   LIG A   1      -7.265   4.746 131.405  0.00  0.00    +0.043 C 
ATOM     26  C   LIG A   1      -7.599   5.243 132.802  0.00  0.00    +0.153 C 
ATOM     27  O   LIG A   1      -9.020   5.118 132.921  0.00  0.00    -0.345 OA
ATOM     28  C   LIG A   1      -9.455   4.036 132.101  0.00  0.00    +0.251 C 
BRANCH  26  29
ATOM     29  C   LIG A   1      -6.859   4.487 133.874  0.00  0.00    +0.179 C 
ATOM     30  C   LIG A   1      -6.836   4.893 135.340  0.00  0.00    +0.093 C 
ATOM     31  O   LIG A   1      -7.655   3.815 134.864  0.00  0.00    -0.363 OA
ATOM     32  C   LIG A   1      -5.683   4.443 136.185  0.00  0.00    +0.044 C 
ATOM     33  C   LIG A   1      -7.600   6.081 135.835  0.00  0.00    +0.044 C 
ENDBRANCH  26  29
BRANCH  28  34
ATOM     34  O   LIG A   1      -9.725   2.928 132.927  0.00  0.00    -0.367 OA
ATOM     35  H   LIG A   1      -9.666   2.163 132.321  0.00  0.00    +0.212 HD
ENDBRANCH  28  34
ENDBRANCH   6  24
BRANCH  16  36
ATOM     36  O   LIG A   1      -4.736  -0.408 127.632  0.00  0.00    -0.391 OA
ATOM     37  H   LIG A   1      -5.063   0.269 127.016  0.00  0.00    +0.210 HD
ENDBRANCH  16  36
TORSDOF 4
ENDMDL
MODEL 9
REMARK VINA RESULT:      -8.6      3.840      5.807
REMARK  Name = NuBBE_1583
REMARK  10 active torsions:
REMARK  status: ('A' for Active; 'I' for Inactive)
REMARK    1  A    between atoms: C_1  and  C_2
REMARK    2  A    between atoms: C_6  and  C_10
REMARK    3  A    between atoms: C_13  and  C_18
REMARK    4  A    between atoms: C_16  and  O_17
REMARK    5  A    between atoms: C_20  and  C_22
REMARK    6  A    between atoms: C_20  and  C_23
REMARK    7  A    between atoms: C_28  and  C_29
REMARK    8  A    between atoms: C_33  and  O_35
REMARK    9  A    between atoms: C_36  and  C_37
REMARK   10  A    between atoms: C_36  and  C_38
REMARK                            x       y       z     vdW  Elec       q    Type
REMARK                         _______ _______ _______ _____ _____    ______ ____
ROOT
ATOM      1  C   LIG A   1      -5.531   0.739 127.909  0.00  0.00    +0.014 C 
ATOM      2  C   LIG A   1      -7.065   0.908 127.739  0.00  0.00    +0.003 C 
ATOM      3  C   LIG A   1      -7.577   1.901 128.831  0.00  0.00    -0.015 C 
ATOM      4  C   LIG A   1      -7.735   1.376 130.230  0.00  0.00    -0.019 C 
ATOM      5  C   LIG A   1      -8.967   1.780 129.443  0.00  0.00    +0.016 C 
ATOM      6  C   LIG A   1      -7.042   2.380 131.170  0.00  0.00    +0.004 C 
ATOM      7  C   LIG A   1      -7.062   3.704 130.379  0.00  0.00    +0.005 C 
ATOM      8  C   LIG A   1      -6.952   3.289 128.904  0.00  0.00    +0.008 C 
ATOM      9  C   LIG A   1      -7.464  -0.086 130.484  0.00  0.00    +0.008 C 
ATOM     10  C   LIG A   1      -7.789  -1.045 129.327  0.00  0.00    +0.005 C 
ATOM     11  C   LIG A   1      -7.830  -0.457 127.889  0.00  0.00    +0.004 C 
ATOM     12  C   LIG A   1      -7.606  -1.524 126.731  0.00  0.00    -0.025 C 
ATOM     13  C   LIG A   1      -6.189  -2.140 126.791  0.00  0.00    +0.012 C 
ATOM     14  C   LIG A   1      -7.926  -0.813 125.362  0.00  0.00    +0.010 C 
ATOM     15  C   LIG A   1      -7.089   0.479 125.189  0.00  0.00    +0.036 C 
ATOM     16  C   LIG A   1      -7.344   1.491 126.319  0.00  0.00    +0.122 C 
ATOM     17  C   LIG A   1      -7.971  -1.743 124.099  0.00  0.00    +0.027 C 
ATOM     18  C   LIG A   1      -8.599  -0.976 122.909  0.00  0.00    +0.019 C 
ATOM     19  C   LIG A   1      -6.610  -2.275 123.629  0.00  0.00    +0.019 C 
ATOM     20  C   LIG A   1      -8.878  -2.949 124.406  0.00  0.00    +0.139 C 
ATOM     21  O   LIG A   1      -9.633  -3.435 123.563  0.00  0.00    -0.297 OA
ATOM     22  C   LIG A   1      -8.709  -3.644 125.738  0.00  0.00    +0.075 C 
ATOM     23  C   LIG A   1      -8.650  -2.666 126.903  0.00  0.00    +0.015 C 
ENDROOT
BRANCH   6  24
ATOM     24  C   LIG A   1      -7.629   2.398 132.594  0.00  0.00    +0.051 C 
ATOM     25  C   LIG A   1      -8.992   3.054 132.778  0.00  0.00    +0.043 C 
ATOM     26  C   LIG A   1      -8.765   4.216 133.730  0.00  0.00    +0.153 C 
ATOM     27  O   LIG A   1      -7.606   3.862 134.493  0.00  0.00    -0.345 OA
ATOM     28  C   LIG A   1      -6.769   3.030 133.695  0.00  0.00    +0.251 C 
BRANCH  26  29
ATOM     29  C   LIG A   1      -8.605   5.528 133.008  0.00  0.00    +0.179 C 
ATOM     30  C   LIG A   1      -9.442   5.947 131.808  0.00  0.00    +0.093 C 
ATOM     31  O   LIG A   1      -9.686   6.469 133.123  0.00  0.00    -0.363 OA
ATOM     32  C   LIG A   1      -8.869   6.954 130.859  0.00  0.00    +0.044 C 
ATOM     33  C   LIG A   1     -10.536   5.077 131.275  0.00  0.00    +0.044 C 
ENDBRANCH  26  29
BRANCH  28  34
ATOM     34  O   LIG A   1      -5.688   3.800 133.224  0.00  0.00    -0.367 OA
ATOM     35  H   LIG A   1      -4.908   3.232 133.378  0.00  0.00    +0.212 HD
ENDBRANCH  28  34
ENDBRANCH   6  24
BRANCH  16  36
ATOM     36  O   LIG A   1      -8.711   1.904 126.187  0.00  0.00    -0.391 OA
ATOM     37  H   LIG A   1      -9.004   2.229 127.054  0.00  0.00    +0.210 HD
ENDBRANCH  16  36
TORSDOF 4
ENDMDL
