MODEL 1
REMARK VINA RESULT:      -5.1      0.000      0.000
REMARK  Name = NuBBE_2137
REMARK  2 active torsions:
REMARK  status: ('A' for Active; 'I' for Inactive)
REMARK    1  A    between atoms: C_1  and  C_2
REMARK    2  A    between atoms: C_2  and  C_3
REMARK                            x       y       z     vdW  Elec       q    Type
REMARK                         _______ _______ _______ _____ _____    ______ ____
ROOT
ATOM      1  C   LIG A   1      -6.414  -2.898 123.631  0.00  0.00    -0.074 C 
ATOM      2  C   LIG A   1      -7.021  -1.968 122.870  0.00  0.00    -0.028 C 
ATOM      3  C   LIG A   1      -8.511  -1.821 122.758  0.00  0.00    +0.027 C 
ATOM      4  C   LIG A   1      -9.278  -3.022 123.310  0.00  0.00    +0.004 C 
ATOM      5  C   LIG A   1      -8.680  -3.494 124.630  0.00  0.00    +0.005 C 
ATOM      6  C   LIG A   1      -7.206  -3.878 124.466  0.00  0.00    +0.030 C 
ENDROOT
BRANCH   1   8
ATOM      7  C   LIG A   1      -4.457  -4.489 123.683  0.00  0.00    +0.008 C 
ATOM      8  C   LIG A   1      -4.911  -3.037 123.661  0.00  0.00    +0.027 C 
ENDBRANCH   1   8
TORSDOF 1
ENDMDL
MODEL 2
REMARK VINA RESULT:      -4.9     12.388     13.859
REMARK  Name = NuBBE_2137
REMARK  2 active torsions:
REMARK  status: ('A' for Active; 'I' for Inactive)
REMARK    1  A    between atoms: C_1  and  C_2
REMARK    2  A    between atoms: C_2  and  C_3
REMARK                            x       y       z     vdW  Elec       q    Type
REMARK                         _______ _______ _______ _____ _____    ______ ____
ROOT
ATOM      1  C   LIG A   1     -12.504   8.635 128.839  0.00  0.00    -0.074 C 
ATOM      2  C   LIG A   1     -13.382   7.888 128.141  0.00  0.00    -0.028 C 
ATOM      3  C   LIG A   1     -13.004   7.035 126.965  0.00  0.00    +0.027 C 
ATOM      4  C   LIG A   1     -11.611   7.346 126.418  0.00  0.00    +0.004 C 
ATOM      5  C   LIG A   1     -10.607   7.528 127.550  0.00  0.00    +0.005 C 
ATOM      6  C   LIG A   1     -11.032   8.657 128.494  0.00  0.00    +0.030 C 
ENDROOT
BRANCH   1   8
ATOM      7  C   LIG A   1     -13.549  10.833 129.500  0.00  0.00    +0.008 C 
ATOM      8  C   LIG A   1     -12.950   9.518 129.979  0.00  0.00    +0.027 C 
ENDBRANCH   1   8
TORSDOF 1
ENDMDL
MODEL 3
REMARK VINA RESULT:      -4.8     11.901     13.097
REMARK  Name = NuBBE_2137
REMARK  2 active torsions:
REMARK  status: ('A' for Active; 'I' for Inactive)
REMARK    1  A    between atoms: C_1  and  C_2
REMARK    2  A    between atoms: C_2  and  C_3
REMARK                            x       y       z     vdW  Elec       q    Type
REMARK                         _______ _______ _______ _____ _____    ______ ____
ROOT
ATOM      1  C   LIG A   1     -12.364   7.535 129.562  0.00  0.00    -0.074 C 
ATOM      2  C   LIG A   1     -11.291   8.255 129.182  0.00  0.00    -0.028 C 
ATOM      3  C   LIG A   1     -10.820   8.366 127.762  0.00  0.00    +0.027 C 
ATOM      4  C   LIG A   1     -11.453   7.329 126.834  0.00  0.00    +0.004 C 
ATOM      5  C   LIG A   1     -12.945   7.189 127.108  0.00  0.00    +0.005 C 
ATOM      6  C   LIG A   1     -13.208   6.780 128.560  0.00  0.00    +0.030 C 
ENDROOT
BRANCH   1   8
ATOM      7  C   LIG A   1     -11.774   6.575 131.820  0.00  0.00    +0.008 C 
ATOM      8  C   LIG A   1     -12.758   7.412 131.015  0.00  0.00    +0.027 C 
ENDBRANCH   1   8
TORSDOF 1
ENDMDL
MODEL 4
REMARK VINA RESULT:      -4.8     13.018     14.336
REMARK  Name = NuBBE_2137
REMARK  2 active torsions:
REMARK  status: ('A' for Active; 'I' for Inactive)
REMARK    1  A    between atoms: C_1  and  C_2
REMARK    2  A    between atoms: C_2  and  C_3
REMARK                            x       y       z     vdW  Elec       q    Type
REMARK                         _______ _______ _______ _____ _____    ______ ____
ROOT
ATOM      1  C   LIG A   1     -12.493   8.861 129.219  0.00  0.00    -0.074 C 
ATOM      2  C   LIG A   1     -11.423   8.612 128.440  0.00  0.00    -0.028 C 
ATOM      3  C   LIG A   1     -10.369   7.595 128.767  0.00  0.00    +0.027 C 
ATOM      4  C   LIG A   1     -10.429   7.109 130.215  0.00  0.00    +0.004 C 
ATOM      5  C   LIG A   1     -11.868   6.844 130.643  0.00  0.00    +0.005 C 
ATOM      6  C   LIG A   1     -12.728   8.104 130.506  0.00  0.00    +0.030 C 
ENDROOT
BRANCH   1   8
ATOM      7  C   LIG A   1     -13.557  11.039 129.916  0.00  0.00    +0.008 C 
ATOM      8  C   LIG A   1     -13.492   9.936 128.868  0.00  0.00    +0.027 C 
ENDBRANCH   1   8
TORSDOF 1
ENDMDL
MODEL 5
REMARK VINA RESULT:      -4.6     12.512     13.116
REMARK  Name = NuBBE_2137
REMARK  2 active torsions:
REMARK  status: ('A' for Active; 'I' for Inactive)
REMARK    1  A    between atoms: C_1  and  C_2
REMARK    2  A    between atoms: C_2  and  C_3
REMARK                            x       y       z     vdW  Elec       q    Type
REMARK                         _______ _______ _______ _____ _____    ______ ____
ROOT
ATOM      1  C   LIG A   1     -10.836   7.269 130.313  0.00  0.00    -0.074 C 
ATOM      2  C   LIG A   1     -10.116   7.679 129.251  0.00  0.00    -0.028 C 
ATOM      3  C   LIG A   1     -10.681   8.495 128.124  0.00  0.00    +0.027 C 
ATOM      4  C   LIG A   1     -12.209   8.532 128.114  0.00  0.00    +0.004 C 
ATOM      5  C   LIG A   1     -12.760   8.736 129.521  0.00  0.00    +0.005 C 
ATOM      6  C   LIG A   1     -12.297   7.622 130.465  0.00  0.00    +0.030 C 
ENDROOT
BRANCH   1   8
ATOM      7  C   LIG A   1      -8.710   6.498 131.433  0.00  0.00    +0.008 C 
ATOM      8  C   LIG A   1     -10.229   6.401 131.390  0.00  0.00    +0.027 C 
ENDBRANCH   1   8
TORSDOF 1
ENDMDL
MODEL 6
REMARK VINA RESULT:      -4.5     12.477     13.526
REMARK  Name = NuBBE_2137
REMARK  2 active torsions:
REMARK  status: ('A' for Active; 'I' for Inactive)
REMARK    1  A    between atoms: C_1  and  C_2
REMARK    2  A    between atoms: C_2  and  C_3
REMARK                            x       y       z     vdW  Elec       q    Type
REMARK                         _______ _______ _______ _____ _____    ______ ____
ROOT
ATOM      1  C   LIG A   1     -11.954   7.921 129.569  0.00  0.00    -0.074 C 
ATOM      2  C   LIG A   1     -12.508   7.452 130.703  0.00  0.00    -0.028 C 
ATOM      3  C   LIG A   1     -11.771   6.617 131.710  0.00  0.00    +0.027 C 
ATOM      4  C   LIG A   1     -10.449   6.063 131.181  0.00  0.00    +0.004 C 
ATOM      5  C   LIG A   1      -9.683   7.126 130.402  0.00  0.00    +0.005 C 
ATOM      6  C   LIG A   1     -10.507   7.652 129.223  0.00  0.00    +0.030 C 
ENDROOT
BRANCH   1   8
ATOM      7  C   LIG A   1     -13.750   7.842 127.799  0.00  0.00    +0.008 C 
ATOM      8  C   LIG A   1     -12.759   8.709 128.564  0.00  0.00    +0.027 C 
ENDBRANCH   1   8
TORSDOF 1
ENDMDL
MODEL 7
REMARK VINA RESULT:      -4.5     12.487     12.965
REMARK  Name = NuBBE_2137
REMARK  2 active torsions:
REMARK  status: ('A' for Active; 'I' for Inactive)
REMARK    1  A    between atoms: C_1  and  C_2
REMARK    2  A    between atoms: C_2  and  C_3
REMARK                            x       y       z     vdW  Elec       q    Type
REMARK                         _______ _______ _______ _____ _____    ______ ____
ROOT
ATOM      1  C   LIG A   1     -10.770   7.154 130.149  0.00  0.00    -0.074 C 
ATOM      2  C   LIG A   1     -12.105   6.989 130.227  0.00  0.00    -0.028 C 
ATOM      3  C   LIG A   1     -13.082   7.616 129.274  0.00  0.00    +0.027 C 
ATOM      4  C   LIG A   1     -12.465   8.722 128.420  0.00  0.00    +0.004 C 
ATOM      5  C   LIG A   1     -11.090   8.313 127.904  0.00  0.00    +0.005 C 
ATOM      6  C   LIG A   1     -10.138   7.989 129.059  0.00  0.00    +0.030 C 
ENDROOT
BRANCH   1   8
ATOM      7  C   LIG A   1      -8.377   6.874 130.897  0.00  0.00    +0.008 C 
ATOM      8  C   LIG A   1      -9.839   6.546 131.169  0.00  0.00    +0.027 C 
ENDBRANCH   1   8
TORSDOF 1
ENDMDL
MODEL 8
REMARK VINA RESULT:      -4.5      1.613      2.319
REMARK  Name = NuBBE_2137
REMARK  2 active torsions:
REMARK  status: ('A' for Active; 'I' for Inactive)
REMARK    1  A    between atoms: C_1  and  C_2
REMARK    2  A    between atoms: C_2  and  C_3
REMARK                            x       y       z     vdW  Elec       q    Type
REMARK                         _______ _______ _______ _____ _____    ______ ____
ROOT
ATOM      1  C   LIG A   1      -6.345  -3.037 124.576  0.00  0.00    -0.074 C 
ATOM      2  C   LIG A   1      -7.565  -3.564 124.360  0.00  0.00    -0.028 C 
ATOM      3  C   LIG A   1      -8.696  -3.484 125.344  0.00  0.00    +0.027 C 
ATOM      4  C   LIG A   1      -8.249  -3.056 126.741  0.00  0.00    +0.004 C 
ATOM      5  C   LIG A   1      -7.252  -1.905 126.668  0.00  0.00    +0.005 C 
ATOM      6  C   LIG A   1      -6.017  -2.292 125.849  0.00  0.00    +0.030 C 
ENDROOT
BRANCH   1   8
ATOM      7  C   LIG A   1      -4.427  -4.474 123.787  0.00  0.00    +0.008 C 
ATOM      8  C   LIG A   1      -5.227  -3.197 123.573  0.00  0.00    +0.027 C 
ENDBRANCH   1   8
TORSDOF 1
ENDMDL
MODEL 9
REMARK VINA RESULT:      -4.5     12.266     12.927
REMARK  Name = NuBBE_2137
REMARK  2 active torsions:
REMARK  status: ('A' for Active; 'I' for Inactive)
REMARK    1  A    between atoms: C_1  and  C_2
REMARK    2  A    between atoms: C_2  and  C_3
REMARK                            x       y       z     vdW  Elec       q    Type
REMARK                         _______ _______ _______ _____ _____    ______ ____
ROOT
ATOM      1  C   LIG A   1     -10.557   7.679 129.490  0.00  0.00    -0.074 C 
ATOM      2  C   LIG A   1      -9.449   7.239 130.117  0.00  0.00    -0.028 C 
ATOM      3  C   LIG A   1      -9.470   6.415 131.372  0.00  0.00    +0.027 C 
ATOM      4  C   LIG A   1     -10.834   6.404 132.063  0.00  0.00    +0.004 C 
ATOM      5  C   LIG A   1     -11.959   6.233 131.049  0.00  0.00    +0.005 C 
ATOM      6  C   LIG A   1     -11.940   7.354 130.005  0.00  0.00    +0.030 C 
ENDROOT
BRANCH   1   8
ATOM      7  C   LIG A   1     -11.038   7.874 127.022  0.00  0.00    +0.008 C 
ATOM      8  C   LIG A   1     -10.474   8.553 128.262  0.00  0.00    +0.027 C 
ENDBRANCH   1   8
TORSDOF 1
ENDMDL
