MODEL 1
REMARK VINA RESULT:      -7.0      0.000      0.000
REMARK  Name = NuBBE_943
REMARK  6 active torsions:
REMARK  status: ('A' for Active; 'I' for Inactive)
REMARK    1  A    between atoms: N_7  and  C_8
REMARK    2  A    between atoms: C_9  and  O_10
REMARK    3  A    between atoms: O_10  and  C_11
REMARK    4  A    between atoms: C_12  and  O_15
REMARK    5  A    between atoms: C_17  and  C_20
REMARK    6  A    between atoms: C_17  and  C_21
REMARK                            x       y       z     vdW  Elec       q    Type
REMARK                         _______ _______ _______ _____ _____    ______ ____
ROOT
ATOM      1  O   LIG A   1      -9.739  -2.062 123.438  0.00  0.00    -0.267 OA
ATOM      2  C   LIG A   1      -9.286  -1.170 124.161  0.00  0.00    +0.262 A 
ATOM      3  C   LIG A   1      -8.702  -1.538 125.485  0.00  0.00    +0.082 A 
ATOM      4  C   LIG A   1      -8.216  -0.593 126.303  0.00  0.00    +0.143 A 
ATOM      5  C   LIG A   1      -8.236   0.824 125.910  0.00  0.00    +0.045 A 
ATOM      6  C   LIG A   1      -8.735   1.199 124.643  0.00  0.00    +0.101 A 
ATOM      7  N   LIG A   1      -9.295   0.176 123.803  0.00  0.00    -0.307 N 
ATOM      8  C   LIG A   1      -9.973   0.520 122.562  0.00  0.00    +0.152 C 
ATOM      9  C   LIG A   1      -8.661   2.566 124.289  0.00  0.00    +0.185 A 
ATOM     10  C   LIG A   1      -8.233   3.525 125.219  0.00  0.00    +0.161 A 
ATOM     11  C   LIG A   1      -7.772   3.157 126.467  0.00  0.00    +0.050 A 
ATOM     12  C   LIG A   1      -7.757   1.807 126.802  0.00  0.00    +0.017 A 
ATOM     13  O   LIG A   1      -7.662  -0.854 127.542  0.00  0.00    -0.481 OA
ATOM     14  C   LIG A   1      -7.527  -2.219 127.996  0.00  0.00    +0.123 C 
ATOM     15  C   LIG A   1      -8.132  -3.252 127.077  0.00  0.00    +0.020 C 
ATOM     16  C   LIG A   1      -8.679  -2.922 125.902  0.00  0.00    +0.016 C 
ATOM     17  C   LIG A   1      -6.026  -2.486 128.148  0.00  0.00    +0.060 C 
ATOM     18  C   LIG A   1      -8.209  -2.287 129.367  0.00  0.00    +0.060 C 
ENDROOT
BRANCH   9  19
ATOM     19  O   LIG A   1      -9.009   3.038 123.044  0.00  0.00    -0.489 OA
ATOM     20  C   LIG A   1      -7.833   3.168 122.232  0.00  0.00    +0.277 C 
ENDBRANCH   9  19
BRANCH  10  21
ATOM     21  O   LIG A   1      -8.266   4.859 124.917  0.00  0.00    -0.503 OA
ATOM     22  H   LIG A   1      -7.979   5.324 125.725  0.00  0.00    +0.292 HD
ENDBRANCH  10  21
TORSDOF 2
ENDMDL
MODEL 2
REMARK VINA RESULT:      -6.9      2.067      2.621
REMARK  Name = NuBBE_943
REMARK  6 active torsions:
REMARK  status: ('A' for Active; 'I' for Inactive)
REMARK    1  A    between atoms: N_7  and  C_8
REMARK    2  A    between atoms: C_9  and  O_10
REMARK    3  A    between atoms: O_10  and  C_11
REMARK    4  A    between atoms: C_12  and  O_15
REMARK    5  A    between atoms: C_17  and  C_20
REMARK    6  A    between atoms: C_17  and  C_21
REMARK                            x       y       z     vdW  Elec       q    Type
REMARK                         _______ _______ _______ _____ _____    ______ ____
ROOT
ATOM      1  O   LIG A   1     -10.196   0.312 122.062  0.00  0.00    -0.267 OA
ATOM      2  C   LIG A   1      -9.260   0.368 122.864  0.00  0.00    +0.262 A 
ATOM      3  C   LIG A   1      -8.879  -0.861 123.621  0.00  0.00    +0.082 A 
ATOM      4  C   LIG A   1      -7.877  -0.832 124.512  0.00  0.00    +0.143 A 
ATOM      5  C   LIG A   1      -7.124   0.408 124.756  0.00  0.00    +0.045 A 
ATOM      6  C   LIG A   1      -7.427   1.575 124.019  0.00  0.00    +0.101 A 
ATOM      7  N   LIG A   1      -8.535   1.534 123.105  0.00  0.00    -0.307 N 
ATOM      8  C   LIG A   1      -8.999   2.743 122.444  0.00  0.00    +0.152 C 
ATOM      9  C   LIG A   1      -6.622   2.715 124.242  0.00  0.00    +0.185 A 
ATOM     10  C   LIG A   1      -5.650   2.721 125.253  0.00  0.00    +0.161 A 
ATOM     11  C   LIG A   1      -5.377   1.586 125.990  0.00  0.00    +0.050 A 
ATOM     12  C   LIG A   1      -6.101   0.428 125.727  0.00  0.00    +0.017 A 
ATOM     13  O   LIG A   1      -7.468  -1.926 125.250  0.00  0.00    -0.481 OA
ATOM     14  C   LIG A   1      -8.092  -3.211 125.037  0.00  0.00    +0.123 C 
ATOM     15  C   LIG A   1      -9.250  -3.198 124.068  0.00  0.00    +0.020 C 
ATOM     16  C   LIG A   1      -9.609  -2.091 123.410  0.00  0.00    +0.016 C 
ATOM     17  C   LIG A   1      -6.999  -4.150 124.515  0.00  0.00    +0.060 C 
ATOM     18  C   LIG A   1      -8.576  -3.689 126.411  0.00  0.00    +0.060 C 
ENDROOT
BRANCH   9  19
ATOM     19  O   LIG A   1      -6.744   3.874 123.508  0.00  0.00    -0.489 OA
ATOM     20  C   LIG A   1      -5.774   3.879 122.451  0.00  0.00    +0.277 C 
ENDBRANCH   9  19
BRANCH  10  21
ATOM     21  O   LIG A   1      -4.948   3.858 125.545  0.00  0.00    -0.503 OA
ATOM     22  H   LIG A   1      -5.396   4.580 125.066  0.00  0.00    +0.292 HD
ENDBRANCH  10  21
TORSDOF 2
ENDMDL
MODEL 3
REMARK VINA RESULT:      -6.8      8.628     10.446
REMARK  Name = NuBBE_943
REMARK  6 active torsions:
REMARK  status: ('A' for Active; 'I' for Inactive)
REMARK    1  A    between atoms: N_7  and  C_8
REMARK    2  A    between atoms: C_9  and  O_10
REMARK    3  A    between atoms: O_10  and  C_11
REMARK    4  A    between atoms: C_12  and  O_15
REMARK    5  A    between atoms: C_17  and  C_20
REMARK    6  A    between atoms: C_17  and  C_21
REMARK                            x       y       z     vdW  Elec       q    Type
REMARK                         _______ _______ _______ _____ _____    ______ ____
ROOT
ATOM      1  O   LIG A   1      -3.819   4.823 134.010  0.00  0.00    -0.267 OA
ATOM      2  C   LIG A   1      -4.758   5.255 133.336  0.00  0.00    +0.262 A 
ATOM      3  C   LIG A   1      -4.466   6.112 132.149  0.00  0.00    +0.082 A 
ATOM      4  C   LIG A   1      -5.463   6.612 131.405  0.00  0.00    +0.143 A 
ATOM      5  C   LIG A   1      -6.866   6.318 131.734  0.00  0.00    +0.045 A 
ATOM      6  C   LIG A   1      -7.175   5.469 132.820  0.00  0.00    +0.101 A 
ATOM      7  N   LIG A   1      -6.093   4.984 133.632  0.00  0.00    -0.307 N 
ATOM      8  C   LIG A   1      -6.356   4.245 134.857  0.00  0.00    +0.152 C 
ATOM      9  C   LIG A   1      -8.536   5.161 133.043  0.00  0.00    +0.185 A 
ATOM     10  C   LIG A   1      -9.545   5.787 132.295  0.00  0.00    +0.161 A 
ATOM     11  C   LIG A   1      -9.239   6.638 131.253  0.00  0.00    +0.050 A 
ATOM     12  C   LIG A   1      -7.902   6.887 130.962  0.00  0.00    +0.017 A 
ATOM     13  O   LIG A   1      -5.272   7.412 130.295  0.00  0.00    -0.481 OA
ATOM     14  C   LIG A   1      -3.932   7.705 129.841  0.00  0.00    +0.123 C 
ATOM     15  C   LIG A   1      -2.835   7.173 130.731  0.00  0.00    +0.020 C 
ATOM     16  C   LIG A   1      -3.096   6.427 131.809  0.00  0.00    +0.016 C 
ATOM     17  C   LIG A   1      -3.798   7.093 128.443  0.00  0.00    +0.060 C 
ATOM     18  C   LIG A   1      -3.829   9.232 129.754  0.00  0.00    +0.060 C 
ENDROOT
BRANCH   9  19
ATOM     19  O   LIG A   1      -8.955   4.260 133.996  0.00  0.00    -0.489 OA
ATOM     20  C   LIG A   1      -9.179   2.982 133.384  0.00  0.00    +0.277 C 
ENDBRANCH   9  19
BRANCH  10  21
ATOM     21  O   LIG A   1     -10.865   5.576 132.584  0.00  0.00    -0.503 OA
ATOM     22  H   LIG A   1     -11.301   6.445 132.492  0.00  0.00    +0.292 HD
ENDBRANCH  10  21
TORSDOF 2
ENDMDL
MODEL 4
REMARK VINA RESULT:      -6.4      2.861      5.587
REMARK  Name = NuBBE_943
REMARK  6 active torsions:
REMARK  status: ('A' for Active; 'I' for Inactive)
REMARK    1  A    between atoms: N_7  and  C_8
REMARK    2  A    between atoms: C_9  and  O_10
REMARK    3  A    between atoms: O_10  and  C_11
REMARK    4  A    between atoms: C_12  and  O_15
REMARK    5  A    between atoms: C_17  and  C_20
REMARK    6  A    between atoms: C_17  and  C_21
REMARK                            x       y       z     vdW  Elec       q    Type
REMARK                         _______ _______ _______ _____ _____    ______ ____
ROOT
ATOM      1  O   LIG A   1      -4.871   0.495 129.107  0.00  0.00    -0.267 OA
ATOM      2  C   LIG A   1      -5.692  -0.409 128.928  0.00  0.00    +0.262 A 
ATOM      3  C   LIG A   1      -5.863  -1.452 129.982  0.00  0.00    +0.082 A 
ATOM      4  C   LIG A   1      -6.734  -2.458 129.813  0.00  0.00    +0.143 A 
ATOM      5  C   LIG A   1      -7.548  -2.549 128.591  0.00  0.00    +0.045 A 
ATOM      6  C   LIG A   1      -7.446  -1.550 127.597  0.00  0.00    +0.101 A 
ATOM      7  N   LIG A   1      -6.472  -0.509 127.778  0.00  0.00    -0.307 N 
ATOM      8  C   LIG A   1      -6.204   0.451 126.718  0.00  0.00    +0.152 C 
ATOM      9  C   LIG A   1      -8.306  -1.650 126.480  0.00  0.00    +0.185 A 
ATOM     10  C   LIG A   1      -9.129  -2.772 126.305  0.00  0.00    +0.161 A 
ATOM     11  C   LIG A   1      -9.204  -3.761 127.266  0.00  0.00    +0.050 A 
ATOM     12  C   LIG A   1      -8.429  -3.638 128.414  0.00  0.00    +0.017 A 
ATOM     13  O   LIG A   1      -6.947  -3.459 130.741  0.00  0.00    -0.481 OA
ATOM     14  C   LIG A   1      -6.253  -3.426 132.007  0.00  0.00    +0.123 C 
ATOM     15  C   LIG A   1      -5.242  -2.313 132.143  0.00  0.00    +0.020 C 
ATOM     16  C   LIG A   1      -5.069  -1.394 131.189  0.00  0.00    +0.016 C 
ATOM     17  C   LIG A   1      -7.324  -3.280 133.093  0.00  0.00    +0.060 C 
ATOM     18  C   LIG A   1      -5.550  -4.781 132.149  0.00  0.00    +0.060 C 
ENDROOT
BRANCH   9  19
ATOM     19  O   LIG A   1      -8.381  -0.682 125.503  0.00  0.00    -0.489 OA
ATOM     20  C   LIG A   1      -9.468   0.209 125.791  0.00  0.00    +0.277 C 
ENDBRANCH   9  19
BRANCH  10  21
ATOM     21  O   LIG A   1      -9.877  -2.924 125.171  0.00  0.00    -0.503 OA
ATOM     22  H   LIG A   1      -9.277  -2.729 124.426  0.00  0.00    +0.292 HD
ENDBRANCH  10  21
TORSDOF 2
ENDMDL
MODEL 5
REMARK VINA RESULT:      -6.3      2.003      3.660
REMARK  Name = NuBBE_943
REMARK  6 active torsions:
REMARK  status: ('A' for Active; 'I' for Inactive)
REMARK    1  A    between atoms: N_7  and  C_8
REMARK    2  A    between atoms: C_9  and  O_10
REMARK    3  A    between atoms: O_10  and  C_11
REMARK    4  A    between atoms: C_12  and  O_15
REMARK    5  A    between atoms: C_17  and  C_20
REMARK    6  A    between atoms: C_17  and  C_21
REMARK                            x       y       z     vdW  Elec       q    Type
REMARK                         _______ _______ _______ _____ _____    ______ ____
ROOT
ATOM      1  O   LIG A   1      -7.872   0.136 128.866  0.00  0.00    -0.267 OA
ATOM      2  C   LIG A   1      -7.689   0.364 127.668  0.00  0.00    +0.262 A 
ATOM      3  C   LIG A   1      -7.809  -0.758 126.690  0.00  0.00    +0.082 A 
ATOM      4  C   LIG A   1      -7.600  -0.548 125.381  0.00  0.00    +0.143 A 
ATOM      5  C   LIG A   1      -7.261   0.792 124.880  0.00  0.00    +0.045 A 
ATOM      6  C   LIG A   1      -7.190   1.884 125.773  0.00  0.00    +0.101 A 
ATOM      7  N   LIG A   1      -7.369   1.628 127.175  0.00  0.00    -0.307 N 
ATOM      8  C   LIG A   1      -7.144   2.677 128.158  0.00  0.00    +0.152 C 
ATOM      9  C   LIG A   1      -6.934   3.161 125.224  0.00  0.00    +0.185 A 
ATOM     10  C   LIG A   1      -6.628   3.309 123.863  0.00  0.00    +0.161 A 
ATOM     11  C   LIG A   1      -6.671   2.234 122.999  0.00  0.00    +0.050 A 
ATOM     12  C   LIG A   1      -7.005   0.983 123.505  0.00  0.00    +0.017 A 
ATOM     13  O   LIG A   1      -7.692  -1.535 124.418  0.00  0.00    -0.481 OA
ATOM     14  C   LIG A   1      -8.089  -2.871 124.792  0.00  0.00    +0.123 C 
ATOM     15  C   LIG A   1      -8.263  -3.086 126.277  0.00  0.00    +0.020 C 
ATOM     16  C   LIG A   1      -8.130  -2.087 127.156  0.00  0.00    +0.016 C 
ATOM     17  C   LIG A   1      -9.414  -3.154 124.077  0.00  0.00    +0.060 C 
ATOM     18  C   LIG A   1      -7.000  -3.811 124.261  0.00  0.00    +0.060 C 
ENDROOT
BRANCH   9  19
ATOM     19  O   LIG A   1      -6.952   4.317 125.973  0.00  0.00    -0.489 OA
ATOM     20  C   LIG A   1      -8.222   4.967 125.824  0.00  0.00    +0.277 C 
ENDBRANCH   9  19
BRANCH  10  21
ATOM     21  O   LIG A   1      -6.270   4.527 123.352  0.00  0.00    -0.503 OA
ATOM     22  H   LIG A   1      -5.438   4.379 122.865  0.00  0.00    +0.292 HD
ENDBRANCH  10  21
TORSDOF 2
ENDMDL
MODEL 6
REMARK VINA RESULT:      -6.3      2.628      5.350
REMARK  Name = NuBBE_943
REMARK  6 active torsions:
REMARK  status: ('A' for Active; 'I' for Inactive)
REMARK    1  A    between atoms: N_7  and  C_8
REMARK    2  A    between atoms: C_9  and  O_10
REMARK    3  A    between atoms: O_10  and  C_11
REMARK    4  A    between atoms: C_12  and  O_15
REMARK    5  A    between atoms: C_17  and  C_20
REMARK    6  A    between atoms: C_17  and  C_21
REMARK                            x       y       z     vdW  Elec       q    Type
REMARK                         _______ _______ _______ _____ _____    ______ ____
ROOT
ATOM      1  O   LIG A   1      -8.626   3.969 125.149  0.00  0.00    -0.267 OA
ATOM      2  C   LIG A   1      -7.941   2.949 125.262  0.00  0.00    +0.262 A 
ATOM      3  C   LIG A   1      -6.578   3.054 125.863  0.00  0.00    +0.082 A 
ATOM      4  C   LIG A   1      -5.800   1.969 125.985  0.00  0.00    +0.143 A 
ATOM      5  C   LIG A   1      -6.275   0.650 125.542  0.00  0.00    +0.045 A 
ATOM      6  C   LIG A   1      -7.579   0.508 125.017  0.00  0.00    +0.101 A 
ATOM      7  N   LIG A   1      -8.377   1.692 124.849  0.00  0.00    -0.307 N 
ATOM      8  C   LIG A   1      -9.658   1.635 124.163  0.00  0.00    +0.152 C 
ATOM      9  C   LIG A   1      -8.009  -0.795 124.677  0.00  0.00    +0.185 A 
ATOM     10  C   LIG A   1      -7.123  -1.881 124.735  0.00  0.00    +0.161 A 
ATOM     11  C   LIG A   1      -5.840  -1.733 125.222  0.00  0.00    +0.050 A 
ATOM     12  C   LIG A   1      -5.426  -0.473 125.642  0.00  0.00    +0.017 A 
ATOM     13  O   LIG A   1      -4.530   1.987 126.529  0.00  0.00    -0.481 OA
ATOM     14  C   LIG A   1      -3.992   3.217 127.061  0.00  0.00    +0.123 C 
ATOM     15  C   LIG A   1      -4.870   4.429 126.858  0.00  0.00    +0.020 C 
ATOM     16  C   LIG A   1      -6.080   4.340 126.296  0.00  0.00    +0.016 C 
ATOM     17  C   LIG A   1      -3.773   2.990 128.560  0.00  0.00    +0.060 C 
ATOM     18  C   LIG A   1      -2.644   3.437 126.365  0.00  0.00    +0.060 C 
ENDROOT
BRANCH   9  19
ATOM     19  O   LIG A   1      -9.291  -1.078 124.263  0.00  0.00    -0.489 OA
ATOM     20  C   LIG A   1      -9.308  -1.263 122.840  0.00  0.00    +0.277 C 
ENDBRANCH   9  19
BRANCH  10  21
ATOM     21  O   LIG A   1      -7.503  -3.121 124.300  0.00  0.00    -0.503 OA
ATOM     22  H   LIG A   1      -6.744  -3.473 123.798  0.00  0.00    +0.292 HD
ENDBRANCH  10  21
TORSDOF 2
ENDMDL
MODEL 7
REMARK VINA RESULT:      -6.3      2.504      5.916
REMARK  Name = NuBBE_943
REMARK  6 active torsions:
REMARK  status: ('A' for Active; 'I' for Inactive)
REMARK    1  A    between atoms: N_7  and  C_8
REMARK    2  A    between atoms: C_9  and  O_10
REMARK    3  A    between atoms: O_10  and  C_11
REMARK    4  A    between atoms: C_12  and  O_15
REMARK    5  A    between atoms: C_17  and  C_20
REMARK    6  A    between atoms: C_17  and  C_21
REMARK                            x       y       z     vdW  Elec       q    Type
REMARK                         _______ _______ _______ _____ _____    ______ ____
ROOT
ATOM      1  O   LIG A   1      -8.674   2.130 126.784  0.00  0.00    -0.267 OA
ATOM      2  C   LIG A   1      -8.417   0.990 127.179  0.00  0.00    +0.262 A 
ATOM      3  C   LIG A   1      -8.371  -0.128 126.189  0.00  0.00    +0.082 A 
ATOM      4  C   LIG A   1      -8.110  -1.382 126.586  0.00  0.00    +0.143 A 
ATOM      5  C   LIG A   1      -7.853  -1.683 128.003  0.00  0.00    +0.045 A 
ATOM      6  C   LIG A   1      -7.839  -0.641 128.956  0.00  0.00    +0.101 A 
ATOM      7  N   LIG A   1      -8.168   0.687 128.516  0.00  0.00    -0.307 N 
ATOM      8  C   LIG A   1      -8.333   1.769 129.474  0.00  0.00    +0.152 C 
ATOM      9  C   LIG A   1      -7.512  -0.979 130.289  0.00  0.00    +0.185 A 
ATOM     10  C   LIG A   1      -7.343  -2.318 130.669  0.00  0.00    +0.161 A 
ATOM     11  C   LIG A   1      -7.385  -3.336 129.739  0.00  0.00    +0.050 A 
ATOM     12  C   LIG A   1      -7.621  -3.016 128.406  0.00  0.00    +0.017 A 
ATOM     13  O   LIG A   1      -8.051  -2.466 125.732  0.00  0.00    -0.481 OA
ATOM     14  C   LIG A   1      -8.218  -2.271 124.311  0.00  0.00    +0.123 C 
ATOM     15  C   LIG A   1      -8.563  -0.859 123.903  0.00  0.00    +0.020 C 
ATOM     16  C   LIG A   1      -8.631   0.137 124.792  0.00  0.00    +0.016 C 
ATOM     17  C   LIG A   1      -6.898  -2.685 123.652  0.00  0.00    +0.060 C 
ATOM     18  C   LIG A   1      -9.339  -3.221 123.873  0.00  0.00    +0.060 C 
ENDROOT
BRANCH   9  19
ATOM     19  O   LIG A   1      -7.356  -0.039 131.284  0.00  0.00    -0.489 OA
ATOM     20  C   LIG A   1      -5.964   0.271 131.439  0.00  0.00    +0.277 C 
ENDBRANCH   9  19
BRANCH  10  21
ATOM     21  O   LIG A   1      -7.138  -2.655 131.979  0.00  0.00    -0.503 OA
ATOM     22  H   LIG A   1      -6.170  -2.664 132.105  0.00  0.00    +0.292 HD
ENDBRANCH  10  21
TORSDOF 2
ENDMDL
MODEL 8
REMARK VINA RESULT:      -6.2      2.931      5.191
REMARK  Name = NuBBE_943
REMARK  6 active torsions:
REMARK  status: ('A' for Active; 'I' for Inactive)
REMARK    1  A    between atoms: N_7  and  C_8
REMARK    2  A    between atoms: C_9  and  O_10
REMARK    3  A    between atoms: O_10  and  C_11
REMARK    4  A    between atoms: C_12  and  O_15
REMARK    5  A    between atoms: C_17  and  C_20
REMARK    6  A    between atoms: C_17  and  C_21
REMARK                            x       y       z     vdW  Elec       q    Type
REMARK                         _______ _______ _______ _____ _____    ______ ____
ROOT
ATOM      1  O   LIG A   1      -8.744  -4.380 127.858  0.00  0.00    -0.267 OA
ATOM      2  C   LIG A   1      -8.343  -3.234 127.640  0.00  0.00    +0.262 A 
ATOM      3  C   LIG A   1      -8.241  -2.757 126.228  0.00  0.00    +0.082 A 
ATOM      4  C   LIG A   1      -7.794  -1.523 125.954  0.00  0.00    +0.143 A 
ATOM      5  C   LIG A   1      -7.405  -0.607 127.037  0.00  0.00    +0.045 A 
ATOM      6  C   LIG A   1      -7.537  -1.009 128.385  0.00  0.00    +0.101 A 
ATOM      7  N   LIG A   1      -7.973  -2.352 128.654  0.00  0.00    -0.307 N 
ATOM      8  C   LIG A   1      -7.970  -2.878 130.011  0.00  0.00    +0.152 C 
ATOM      9  C   LIG A   1      -7.219  -0.061 129.384  0.00  0.00    +0.185 A 
ATOM     10  C   LIG A   1      -6.665   1.181 129.044  0.00  0.00    +0.161 A 
ATOM     11  C   LIG A   1      -6.510   1.559 127.725  0.00  0.00    +0.050 A 
ATOM     12  C   LIG A   1      -6.898   0.673 126.726  0.00  0.00    +0.017 A 
ATOM     13  O   LIG A   1      -7.671  -1.013 124.676  0.00  0.00    -0.481 OA
ATOM     14  C   LIG A   1      -8.093  -1.802 123.543  0.00  0.00    +0.123 C 
ATOM     15  C   LIG A   1      -8.540  -3.204 123.881  0.00  0.00    +0.020 C 
ATOM     16  C   LIG A   1      -8.606  -3.640 125.143  0.00  0.00    +0.016 C 
ATOM     17  C   LIG A   1      -9.249  -1.042 122.883  0.00  0.00    +0.060 C 
ATOM     18  C   LIG A   1      -6.896  -1.860 122.587  0.00  0.00    +0.060 C 
ENDROOT
BRANCH   9  19
ATOM     19  O   LIG A   1      -7.413  -0.294 130.727  0.00  0.00    -0.489 OA
ATOM     20  C   LIG A   1      -8.652   0.298 131.144  0.00  0.00    +0.277 C 
ENDBRANCH   9  19
BRANCH  10  21
ATOM     21  O   LIG A   1      -6.252   2.055 130.012  0.00  0.00    -0.503 OA
ATOM     22  H   LIG A   1      -7.059   2.327 130.489  0.00  0.00    +0.292 HD
ENDBRANCH  10  21
TORSDOF 2
ENDMDL
MODEL 9
REMARK VINA RESULT:      -6.0      2.310      3.888
REMARK  Name = NuBBE_943
REMARK  6 active torsions:
REMARK  status: ('A' for Active; 'I' for Inactive)
REMARK    1  A    between atoms: N_7  and  C_8
REMARK    2  A    between atoms: C_9  and  O_10
REMARK    3  A    between atoms: O_10  and  C_11
REMARK    4  A    between atoms: C_12  and  O_15
REMARK    5  A    between atoms: C_17  and  C_20
REMARK    6  A    between atoms: C_17  and  C_21
REMARK                            x       y       z     vdW  Elec       q    Type
REMARK                         _______ _______ _______ _____ _____    ______ ____
ROOT
ATOM      1  O   LIG A   1      -7.525   2.112 122.914  0.00  0.00    -0.267 OA
ATOM      2  C   LIG A   1      -7.548   1.577 124.026  0.00  0.00    +0.262 A 
ATOM      3  C   LIG A   1      -7.263   0.115 124.133  0.00  0.00    +0.082 A 
ATOM      4  C   LIG A   1      -7.296  -0.502 125.324  0.00  0.00    +0.143 A 
ATOM      5  C   LIG A   1      -7.602   0.249 126.551  0.00  0.00    +0.045 A 
ATOM      6  C   LIG A   1      -7.826   1.643 126.489  0.00  0.00    +0.101 A 
ATOM      7  N   LIG A   1      -7.834   2.274 125.198  0.00  0.00    -0.307 N 
ATOM      8  C   LIG A   1      -8.222   3.668 125.054  0.00  0.00    +0.152 C 
ATOM      9  C   LIG A   1      -8.042   2.324 127.709  0.00  0.00    +0.185 A 
ATOM     10  C   LIG A   1      -8.162   1.618 128.914  0.00  0.00    +0.161 A 
ATOM     11  C   LIG A   1      -7.970   0.252 128.965  0.00  0.00    +0.050 A 
ATOM     12  C   LIG A   1      -7.672  -0.426 127.788  0.00  0.00    +0.017 A 
ATOM     13  O   LIG A   1      -7.045  -1.849 125.502  0.00  0.00    -0.481 OA
ATOM     14  C   LIG A   1      -6.664  -2.665 124.374  0.00  0.00    +0.123 C 
ATOM     15  C   LIG A   1      -6.689  -1.953 123.043  0.00  0.00    +0.020 C 
ATOM     16  C   LIG A   1      -6.970  -0.650 122.942  0.00  0.00    +0.016 C 
ATOM     17  C   LIG A   1      -5.245  -3.172 124.656  0.00  0.00    +0.060 C 
ATOM     18  C   LIG A   1      -7.642  -3.845 124.345  0.00  0.00    +0.060 C 
ENDROOT
BRANCH   9  19
ATOM     19  O   LIG A   1      -8.160   3.694 127.791  0.00  0.00    -0.489 OA
ATOM     20  C   LIG A   1      -6.908   4.261 128.203  0.00  0.00    +0.277 C 
ENDBRANCH   9  19
BRANCH  10  21
ATOM     21  O   LIG A   1      -8.482   2.263 130.077  0.00  0.00    -0.503 OA
ATOM     22  H   LIG A   1      -9.359   2.665 129.928  0.00  0.00    +0.292 HD
ENDBRANCH  10  21
TORSDOF 2
ENDMDL
