MODEL 1
REMARK VINA RESULT:      -8.8      0.000      0.000
REMARK  Name = NuBBE_1509
REMARK  3 active torsions:
REMARK  status: ('A' for Active; 'I' for Inactive)
REMARK    1  A    between atoms: O_1  and  C_2
REMARK    2  A    between atoms: C_13  and  C_16
REMARK    3  A    between atoms: C_26  and  O_28
REMARK                            x       y       z     vdW  Elec       q    Type
REMARK                         _______ _______ _______ _____ _____    ______ ____
ROOT
ATOM      1  C   LIG A   1      -7.040   5.404 132.972  0.00  0.00    +0.194 C 
ATOM      2  C   LIG A   1      -7.588   6.182 131.791  0.00  0.00    +0.077 C 
ATOM      3  C   LIG A   1      -9.069   5.830 131.931  0.00  0.00    +0.005 C 
ATOM      4  C   LIG A   1      -9.234   5.850 133.472  0.00  0.00    +0.171 C 
ATOM      5  O   LIG A   1      -7.921   5.763 134.046  0.00  0.00    -0.346 OA
ATOM      6  C   LIG A   1     -10.045   6.835 131.286  0.00  0.00    +0.001 C 
ATOM      7  C   LIG A   1      -9.762   7.037 129.790  0.00  0.00    -0.003 C 
ATOM      8  C   LIG A   1     -10.770   8.052 129.145  0.00  0.00    +0.006 C 
ATOM      9  C   LIG A   1     -12.258   7.909 129.577  0.00  0.00    -0.022 C 
ATOM     10  C   LIG A   1     -12.444   7.543 131.053  0.00  0.00    +0.007 C 
ATOM     11  C   LIG A   1     -11.514   6.447 131.529  0.00  0.00    +0.005 C 
ATOM     12  C   LIG A   1     -13.039   9.230 129.350  0.00  0.00    +0.012 C 
ATOM     13  C   LIG A   1     -12.790   6.838 128.610  0.00  0.00    +0.081 C 
ATOM     14  C   LIG A   1     -12.068   7.206 127.335  0.00  0.00    +0.134 C 
ATOM     15  O   LIG A   1     -12.443   6.883 126.222  0.00  0.00    -0.297 OA
ATOM     16  C   LIG A   1     -10.824   8.027 127.606  0.00  0.00    +0.078 C 
ATOM     17  C   LIG A   1      -9.456   5.713 129.056  0.00  0.00    +0.004 C 
ATOM     18  C   LIG A   1      -9.578   4.395 129.837  0.00  0.00    +0.004 C 
ATOM     19  C   LIG A   1      -9.275   4.407 131.361  0.00  0.00    +0.001 C 
ATOM     20  C   LIG A   1      -8.135   3.412 131.714  0.00  0.00    +0.041 C 
ATOM     21  C   LIG A   1      -7.142   3.861 132.797  0.00  0.00    +0.174 C 
ENDROOT
BRANCH   1  22
ATOM     22  O   LIG A   1      -5.722   5.778 133.308  0.00  0.00    -0.363 OA
ATOM     23  H   LIG A   1      -5.245   5.913 132.473  0.00  0.00    +0.213 HD
ENDBRANCH   1  22
BRANCH  21  24
ATOM     24  O   LIG A   1      -7.517   3.232 134.038  0.00  0.00    -0.387 OA
ATOM     25  H   LIG A   1      -8.386   3.621 134.273  0.00  0.00    +0.210 HD
ENDBRANCH  21  24
TORSDOF 2
ENDMDL
MODEL 2
REMARK VINA RESULT:      -7.8      7.715     11.134
REMARK  Name = NuBBE_1509
REMARK  3 active torsions:
REMARK  status: ('A' for Active; 'I' for Inactive)
REMARK    1  A    between atoms: O_1  and  C_2
REMARK    2  A    between atoms: C_13  and  C_16
REMARK    3  A    between atoms: C_26  and  O_28
REMARK                            x       y       z     vdW  Elec       q    Type
REMARK                         _______ _______ _______ _____ _____    ______ ____
ROOT
ATOM      1  C   LIG A   1      -7.900  -1.930 123.265  0.00  0.00    +0.194 C 
ATOM      2  C   LIG A   1      -6.975  -1.906 124.468  0.00  0.00    +0.077 C 
ATOM      3  C   LIG A   1      -8.002  -2.145 125.573  0.00  0.00    +0.005 C 
ATOM      4  C   LIG A   1      -8.940  -3.173 124.889  0.00  0.00    +0.171 C 
ATOM      5  O   LIG A   1      -8.691  -3.109 123.477  0.00  0.00    -0.346 OA
ATOM      6  C   LIG A   1      -7.434  -2.741 126.878  0.00  0.00    +0.001 C 
ATOM      7  C   LIG A   1      -6.317  -1.871 127.472  0.00  0.00    -0.003 C 
ATOM      8  C   LIG A   1      -5.758  -2.483 128.804  0.00  0.00    +0.006 C 
ATOM      9  C   LIG A   1      -6.813  -3.060 129.790  0.00  0.00    -0.022 C 
ATOM     10  C   LIG A   1      -7.983  -3.771 129.102  0.00  0.00    +0.007 C 
ATOM     11  C   LIG A   1      -8.539  -3.015 127.913  0.00  0.00    +0.005 C 
ATOM     12  C   LIG A   1      -6.176  -4.094 130.755  0.00  0.00    +0.012 C 
ATOM     13  C   LIG A   1      -7.240  -1.819 130.594  0.00  0.00    +0.081 C 
ATOM     14  C   LIG A   1      -5.925  -1.088 130.728  0.00  0.00    +0.134 C 
ATOM     15  O   LIG A   1      -5.692  -0.257 131.588  0.00  0.00    -0.297 OA
ATOM     16  C   LIG A   1      -4.929  -1.513 129.669  0.00  0.00    +0.078 C 
ATOM     17  C   LIG A   1      -6.641  -0.362 127.416  0.00  0.00    +0.004 C 
ATOM     18  C   LIG A   1      -8.024   0.073 126.906  0.00  0.00    +0.004 C 
ATOM     19  C   LIG A   1      -8.732  -0.808 125.841  0.00  0.00    +0.001 C 
ATOM     20  C   LIG A   1      -9.049   0.008 124.558  0.00  0.00    +0.041 C 
ATOM     21  C   LIG A   1      -8.883  -0.725 123.218  0.00  0.00    +0.174 C 
ENDROOT
BRANCH   1  22
ATOM     22  O   LIG A   1      -7.205  -2.051 122.044  0.00  0.00    -0.363 OA
ATOM     23  H   LIG A   1      -7.284  -1.197 121.588  0.00  0.00    +0.213 HD
ENDBRANCH   1  22
BRANCH  21  24
ATOM     24  O   LIG A   1     -10.187  -1.150 122.774  0.00  0.00    -0.387 OA
ATOM     25  H   LIG A   1     -10.587  -1.605 123.545  0.00  0.00    +0.210 HD
ENDBRANCH  21  24
TORSDOF 2
ENDMDL
MODEL 3
REMARK VINA RESULT:      -7.8      7.327      9.260
REMARK  Name = NuBBE_1509
REMARK  3 active torsions:
REMARK  status: ('A' for Active; 'I' for Inactive)
REMARK    1  A    between atoms: O_1  and  C_2
REMARK    2  A    between atoms: C_13  and  C_16
REMARK    3  A    between atoms: C_26  and  O_28
REMARK                            x       y       z     vdW  Elec       q    Type
REMARK                         _______ _______ _______ _____ _____    ______ ____
ROOT
ATOM      1  C   LIG A   1      -7.770  -2.887 124.391  0.00  0.00    +0.194 C 
ATOM      2  C   LIG A   1      -6.947  -1.643 124.671  0.00  0.00    +0.077 C 
ATOM      3  C   LIG A   1      -8.046  -0.743 125.234  0.00  0.00    +0.005 C 
ATOM      4  C   LIG A   1      -8.869  -1.763 126.062  0.00  0.00    +0.171 C 
ATOM      5  O   LIG A   1      -8.511  -3.076 125.606  0.00  0.00    -0.346 OA
ATOM      6  C   LIG A   1      -7.553   0.398 126.147  0.00  0.00    +0.001 C 
ATOM      7  C   LIG A   1      -6.536   1.307 125.440  0.00  0.00    -0.003 C 
ATOM      8  C   LIG A   1      -6.054   2.469 126.377  0.00  0.00    +0.006 C 
ATOM      9  C   LIG A   1      -7.153   3.161 127.233  0.00  0.00    -0.022 C 
ATOM     10  C   LIG A   1      -8.223   2.201 127.763  0.00  0.00    +0.007 C 
ATOM     11  C   LIG A   1      -8.722   1.215 126.728  0.00  0.00    +0.005 C 
ATOM     12  C   LIG A   1      -6.542   3.864 128.472  0.00  0.00    +0.012 C 
ATOM     13  C   LIG A   1      -7.710   4.227 126.273  0.00  0.00    +0.081 C 
ATOM     14  C   LIG A   1      -6.451   4.674 125.568  0.00  0.00    +0.134 C 
ATOM     15  O   LIG A   1      -6.333   5.745 124.999  0.00  0.00    -0.297 OA
ATOM     16  C   LIG A   1      -5.352   3.637 125.657  0.00  0.00    +0.078 C 
ATOM     17  C   LIG A   1      -6.936   1.631 123.984  0.00  0.00    +0.004 C 
ATOM     18  C   LIG A   1      -8.295   1.132 123.467  0.00  0.00    +0.004 C 
ATOM     19  C   LIG A   1      -8.866  -0.192 124.044  0.00  0.00    +0.001 C 
ATOM     20  C   LIG A   1      -9.122  -1.231 122.917  0.00  0.00    +0.041 C 
ATOM     21  C   LIG A   1      -8.810  -2.697 123.249  0.00  0.00    +0.174 C 
ENDROOT
BRANCH   1  22
ATOM     22  O   LIG A   1      -6.973  -4.026 124.152  0.00  0.00    -0.363 OA
ATOM     23  H   LIG A   1      -7.548  -4.691 123.739  0.00  0.00    +0.213 HD
ENDBRANCH   1  22
BRANCH  21  24
ATOM     24  O   LIG A   1     -10.048  -3.358 123.575  0.00  0.00    -0.387 OA
ATOM     25  H   LIG A   1      -9.867  -3.856 124.401  0.00  0.00    +0.210 HD
ENDBRANCH  21  24
TORSDOF 2
ENDMDL
MODEL 4
REMARK VINA RESULT:      -7.7      3.641      6.557
REMARK  Name = NuBBE_1509
REMARK  3 active torsions:
REMARK  status: ('A' for Active; 'I' for Inactive)
REMARK    1  A    between atoms: O_1  and  C_2
REMARK    2  A    between atoms: C_13  and  C_16
REMARK    3  A    between atoms: C_26  and  O_28
REMARK                            x       y       z     vdW  Elec       q    Type
REMARK                         _______ _______ _______ _____ _____    ______ ____
ROOT
ATOM      1  C   LIG A   1      -9.559   5.112 132.541  0.00  0.00    +0.194 C 
ATOM      2  C   LIG A   1      -8.359   6.017 132.331  0.00  0.00    +0.077 C 
ATOM      3  C   LIG A   1      -7.427   5.030 131.628  0.00  0.00    +0.005 C 
ATOM      4  C   LIG A   1      -8.432   4.259 130.734  0.00  0.00    +0.171 C 
ATOM      5  O   LIG A   1      -9.747   4.504 131.255  0.00  0.00    -0.346 OA
ATOM      6  C   LIG A   1      -6.332   5.674 130.753  0.00  0.00    +0.001 C 
ATOM      7  C   LIG A   1      -5.451   6.646 131.551  0.00  0.00    -0.003 C 
ATOM      8  C   LIG A   1      -4.335   7.282 130.651  0.00  0.00    +0.006 C 
ATOM      9  C   LIG A   1      -3.618   6.320 129.662  0.00  0.00    -0.022 C 
ATOM     10  C   LIG A   1      -4.545   5.272 129.035  0.00  0.00    +0.007 C 
ATOM     11  C   LIG A   1      -5.481   4.616 130.027  0.00  0.00    +0.005 C 
ATOM     12  C   LIG A   1      -2.974   7.098 128.486  0.00  0.00    +0.012 C 
ATOM     13  C   LIG A   1      -2.505   5.708 130.531  0.00  0.00    +0.081 C 
ATOM     14  C   LIG A   1      -2.094   6.900 131.364  0.00  0.00    +0.134 C 
ATOM     15  O   LIG A   1      -1.015   7.002 131.921  0.00  0.00    -0.297 OA
ATOM     16  C   LIG A   1      -3.181   7.953 131.421  0.00  0.00    +0.078 C 
ATOM     17  C   LIG A   1      -5.072   6.101 132.946  0.00  0.00    +0.004 C 
ATOM     18  C   LIG A   1      -5.498   4.672 133.316  0.00  0.00    +0.004 C 
ATOM     19  C   LIG A   1      -6.811   4.108 132.706  0.00  0.00    +0.001 C 
ATOM     20  C   LIG A   1      -7.808   3.680 133.818  0.00  0.00    +0.041 C 
ATOM     21  C   LIG A   1      -9.294   3.960 133.554  0.00  0.00    +0.174 C 
ENDROOT
BRANCH   1  22
ATOM     22  O   LIG A   1     -10.724   5.824 132.893  0.00  0.00    -0.363 OA
ATOM     23  H   LIG A   1     -11.260   5.233 133.447  0.00  0.00    +0.213 HD
ENDBRANCH   1  22
BRANCH  21  24
ATOM     24  O   LIG A   1      -9.909   2.737 133.104  0.00  0.00    -0.387 OA
ATOM     25  H   LIG A   1      -9.932   2.803 132.126  0.00  0.00    +0.210 HD
ENDBRANCH  21  24
TORSDOF 2
ENDMDL
MODEL 5
REMARK VINA RESULT:      -7.7      2.628      6.668
REMARK  Name = NuBBE_1509
REMARK  3 active torsions:
REMARK  status: ('A' for Active; 'I' for Inactive)
REMARK    1  A    between atoms: O_1  and  C_2
REMARK    2  A    between atoms: C_13  and  C_16
REMARK    3  A    between atoms: C_26  and  O_28
REMARK                            x       y       z     vdW  Elec       q    Type
REMARK                         _______ _______ _______ _____ _____    ______ ____
ROOT
ATOM      1  C   LIG A   1     -10.880   6.082 131.540  0.00  0.00    +0.194 C 
ATOM      2  C   LIG A   1      -9.650   5.923 132.412  0.00  0.00    +0.077 C 
ATOM      3  C   LIG A   1      -8.571   6.002 131.333  0.00  0.00    +0.005 C 
ATOM      4  C   LIG A   1      -9.163   7.091 130.401  0.00  0.00    +0.171 C 
ATOM      5  O   LIG A   1     -10.559   7.210 130.713  0.00  0.00    -0.346 OA
ATOM      6  C   LIG A   1      -7.177   6.438 131.830  0.00  0.00    +0.001 C 
ATOM      7  C   LIG A   1      -6.646   5.519 132.940  0.00  0.00    -0.003 C 
ATOM      8  C   LIG A   1      -5.224   5.967 133.427  0.00  0.00    +0.006 C 
ATOM      9  C   LIG A   1      -4.222   6.396 132.317  0.00  0.00    -0.022 C 
ATOM     10  C   LIG A   1      -4.869   7.168 131.161  0.00  0.00    +0.007 C 
ATOM     11  C   LIG A   1      -6.167   6.559 130.675  0.00  0.00    +0.005 C 
ATOM     12  C   LIG A   1      -3.108   7.311 132.887  0.00  0.00    +0.012 C 
ATOM     13  C   LIG A   1      -3.602   5.056 131.884  0.00  0.00    +0.081 C 
ATOM     14  C   LIG A   1      -3.500   4.338 133.209  0.00  0.00    +0.134 C 
ATOM     15  O   LIG A   1      -2.741   3.409 133.424  0.00  0.00    -0.297 OA
ATOM     16  C   LIG A   1      -4.450   4.911 134.239  0.00  0.00    +0.078 C 
ATOM     17  C   LIG A   1      -6.906   4.023 132.654  0.00  0.00    +0.004 C 
ATOM     18  C   LIG A   1      -7.530   3.632 131.305  0.00  0.00    +0.004 C 
ATOM     19  C   LIG A   1      -8.507   4.629 130.623  0.00  0.00    +0.001 C 
ATOM     20  C   LIG A   1      -9.896   3.976 130.381  0.00  0.00    +0.041 C 
ATOM     21  C   LIG A   1     -11.123   4.875 130.587  0.00  0.00    +0.174 C 
ENDROOT
BRANCH   1  22
ATOM     22  O   LIG A   1     -12.044   6.368 132.284  0.00  0.00    -0.363 OA
ATOM     23  H   LIG A   1     -12.116   5.684 132.970  0.00  0.00    +0.213 HD
ENDBRANCH   1  22
BRANCH  21  24
ATOM     24  O   LIG A   1     -11.570   5.330 129.295  0.00  0.00    -0.387 OA
ATOM     25  H   LIG A   1     -11.955   6.218 129.452  0.00  0.00    +0.210 HD
ENDBRANCH  21  24
TORSDOF 2
ENDMDL
MODEL 6
REMARK VINA RESULT:      -7.5      7.075     10.428
REMARK  Name = NuBBE_1509
REMARK  3 active torsions:
REMARK  status: ('A' for Active; 'I' for Inactive)
REMARK    1  A    between atoms: O_1  and  C_2
REMARK    2  A    between atoms: C_13  and  C_16
REMARK    3  A    between atoms: C_26  and  O_28
REMARK                            x       y       z     vdW  Elec       q    Type
REMARK                         _______ _______ _______ _____ _____    ______ ____
ROOT
ATOM      1  C   LIG A   1      -8.947  -2.445 124.541  0.00  0.00    +0.194 C 
ATOM      2  C   LIG A   1      -8.808  -2.720 126.026  0.00  0.00    +0.077 C 
ATOM      3  C   LIG A   1      -8.098  -1.434 126.449  0.00  0.00    +0.005 C 
ATOM      4  C   LIG A   1      -8.819  -0.391 125.555  0.00  0.00    +0.171 C 
ATOM      5  O   LIG A   1      -9.471  -1.110 124.497  0.00  0.00    -0.346 OA
ATOM      6  C   LIG A   1      -8.262  -1.053 127.934  0.00  0.00    +0.001 C 
ATOM      7  C   LIG A   1      -7.781  -2.169 128.874  0.00  0.00    -0.003 C 
ATOM      8  C   LIG A   1      -7.942  -1.763 130.380  0.00  0.00    +0.006 C 
ATOM      9  C   LIG A   1      -7.543  -0.305 130.744  0.00  0.00    -0.022 C 
ATOM     10  C   LIG A   1      -7.914   0.726 129.673  0.00  0.00    +0.007 C 
ATOM     11  C   LIG A   1      -7.578   0.286 128.263  0.00  0.00    +0.005 C 
ATOM     12  C   LIG A   1      -8.231   0.157 132.055  0.00  0.00    +0.012 C 
ATOM     13  C   LIG A   1      -6.027  -0.418 130.984  0.00  0.00    +0.081 C 
ATOM     14  C   LIG A   1      -5.937  -1.762 131.666  0.00  0.00    +0.134 C 
ATOM     15  O   LIG A   1      -5.003  -2.108 132.369  0.00  0.00    -0.297 OA
ATOM     16  C   LIG A   1      -7.145  -2.627 131.376  0.00  0.00    +0.078 C 
ATOM     17  C   LIG A   1      -6.458  -2.815 128.406  0.00  0.00    +0.004 C 
ATOM     18  C   LIG A   1      -5.744  -2.221 127.181  0.00  0.00    +0.004 C 
ATOM     19  C   LIG A   1      -6.606  -1.567 126.067  0.00  0.00    +0.001 C 
ATOM     20  C   LIG A   1      -6.362  -2.251 124.694  0.00  0.00    +0.041 C 
ATOM     21  C   LIG A   1      -7.587  -2.426 123.785  0.00  0.00    +0.174 C 
ENDROOT
BRANCH   1  22
ATOM     22  O   LIG A   1      -9.854  -3.320 123.907  0.00  0.00    -0.363 OA
ATOM     23  H   LIG A   1     -10.305  -3.817 124.610  0.00  0.00    +0.213 HD
ENDBRANCH   1  22
BRANCH  21  24
ATOM     24  O   LIG A   1      -7.569  -1.374 122.800  0.00  0.00    -0.387 OA
ATOM     25  H   LIG A   1      -6.638  -1.322 122.494  0.00  0.00    +0.210 HD
ENDBRANCH  21  24
TORSDOF 2
ENDMDL
MODEL 7
REMARK VINA RESULT:      -7.3      8.018      9.397
REMARK  Name = NuBBE_1509
REMARK  3 active torsions:
REMARK  status: ('A' for Active; 'I' for Inactive)
REMARK    1  A    between atoms: O_1  and  C_2
REMARK    2  A    between atoms: C_13  and  C_16
REMARK    3  A    between atoms: C_26  and  O_28
REMARK                            x       y       z     vdW  Elec       q    Type
REMARK                         _______ _______ _______ _____ _____    ______ ____
ROOT
ATOM      1  C   LIG A   1      -4.524  -3.120 129.398  0.00  0.00    +0.194 C 
ATOM      2  C   LIG A   1      -4.888  -2.912 127.940  0.00  0.00    +0.077 C 
ATOM      3  C   LIG A   1      -5.927  -1.804 128.101  0.00  0.00    +0.005 C 
ATOM      4  C   LIG A   1      -5.290  -0.964 129.238  0.00  0.00    +0.171 C 
ATOM      5  O   LIG A   1      -4.304  -1.786 129.880  0.00  0.00    -0.346 OA
ATOM      6  C   LIG A   1      -6.143  -0.922 126.854  0.00  0.00    +0.001 C 
ATOM      7  C   LIG A   1      -6.544  -1.748 125.624  0.00  0.00    -0.003 C 
ATOM      8  C   LIG A   1      -6.772  -0.837 124.367  0.00  0.00    +0.006 C 
ATOM      9  C   LIG A   1      -7.540   0.492 124.614  0.00  0.00    -0.022 C 
ATOM     10  C   LIG A   1      -7.200   1.168 125.947  0.00  0.00    +0.007 C 
ATOM     11  C   LIG A   1      -7.151   0.210 127.119  0.00  0.00    +0.005 C 
ATOM     12  C   LIG A   1      -7.238   1.532 123.505  0.00  0.00    +0.012 C 
ATOM     13  C   LIG A   1      -9.012   0.057 124.508  0.00  0.00    +0.081 C 
ATOM     14  C   LIG A   1      -8.940  -0.955 123.389  0.00  0.00    +0.134 C 
ATOM     15  O   LIG A   1      -9.895  -1.288 122.709  0.00  0.00    -0.297 OA
ATOM     16  C   LIG A   1      -7.540  -1.503 123.210  0.00  0.00    +0.078 C 
ATOM     17  C   LIG A   1      -7.578  -2.847 125.953  0.00  0.00    +0.004 C 
ATOM     18  C   LIG A   1      -8.151  -2.912 127.377  0.00  0.00    +0.004 C 
ATOM     19  C   LIG A   1      -7.252  -2.458 128.560  0.00  0.00    +0.001 C 
ATOM     20  C   LIG A   1      -7.069  -3.599 129.598  0.00  0.00    +0.041 C 
ATOM     21  C   LIG A   1      -5.682  -3.724 130.244  0.00  0.00    +0.174 C 
ENDROOT
BRANCH   1  22
ATOM     22  O   LIG A   1      -3.343  -3.874 129.564  0.00  0.00    -0.363 OA
ATOM     23  H   LIG A   1      -2.688  -3.511 128.946  0.00  0.00    +0.213 HD
ENDBRANCH   1  22
BRANCH  21  24
ATOM     24  O   LIG A   1      -5.735  -3.107 131.545  0.00  0.00    -0.387 OA
ATOM     25  H   LIG A   1      -5.724  -2.141 131.375  0.00  0.00    +0.210 HD
ENDBRANCH  21  24
TORSDOF 2
ENDMDL
MODEL 8
REMARK VINA RESULT:      -7.2      6.962      8.931
REMARK  Name = NuBBE_1509
REMARK  3 active torsions:
REMARK  status: ('A' for Active; 'I' for Inactive)
REMARK    1  A    between atoms: O_1  and  C_2
REMARK    2  A    between atoms: C_13  and  C_16
REMARK    3  A    between atoms: C_26  and  O_28
REMARK                            x       y       z     vdW  Elec       q    Type
REMARK                         _______ _______ _______ _____ _____    ______ ____
ROOT
ATOM      1  C   LIG A   1      -7.923   3.704 127.789  0.00  0.00    +0.194 C 
ATOM      2  C   LIG A   1      -7.816   2.854 126.537  0.00  0.00    +0.077 C 
ATOM      3  C   LIG A   1      -7.674   1.478 127.186  0.00  0.00    +0.005 C 
ATOM      4  C   LIG A   1      -8.653   1.612 128.381  0.00  0.00    +0.171 C 
ATOM      5  O   LIG A   1      -8.900   3.011 128.580  0.00  0.00    -0.346 OA
ATOM      6  C   LIG A   1      -8.091   0.288 126.297  0.00  0.00    +0.001 C 
ATOM      7  C   LIG A   1      -7.309   0.253 124.975  0.00  0.00    -0.003 C 
ATOM      8  C   LIG A   1      -7.735  -0.969 124.088  0.00  0.00    +0.006 C 
ATOM      9  C   LIG A   1      -7.939  -2.319 124.831  0.00  0.00    -0.022 C 
ATOM     10  C   LIG A   1      -8.577  -2.175 126.218  0.00  0.00    +0.007 C 
ATOM     11  C   LIG A   1      -7.985  -1.053 127.045  0.00  0.00    +0.005 C 
ATOM     12  C   LIG A   1      -8.857  -3.274 124.024  0.00  0.00    +0.012 C 
ATOM     13  C   LIG A   1      -6.516  -2.903 124.871  0.00  0.00    +0.081 C 
ATOM     14  C   LIG A   1      -5.990  -2.486 123.518  0.00  0.00    +0.134 C 
ATOM     15  O   LIG A   1      -5.057  -3.029 122.953  0.00  0.00    -0.297 OA
ATOM     16  C   LIG A   1      -6.761  -1.315 122.946  0.00  0.00    +0.078 C 
ATOM     17  C   LIG A   1      -5.807   0.560 125.161  0.00  0.00    +0.004 C 
ATOM     18  C   LIG A   1      -5.266   0.741 126.588  0.00  0.00    +0.004 C 
ATOM     19  C   LIG A   1      -6.212   1.329 127.670  0.00  0.00    +0.001 C 
ATOM     20  C   LIG A   1      -5.618   2.620 128.296  0.00  0.00    +0.041 C 
ATOM     21  C   LIG A   1      -6.610   3.746 128.623  0.00  0.00    +0.174 C 
ENDROOT
BRANCH   1  22
ATOM     22  O   LIG A   1      -8.383   5.011 127.523  0.00  0.00    -0.363 OA
ATOM     23  H   LIG A   1      -8.598   5.414 128.380  0.00  0.00    +0.213 HD
ENDBRANCH   1  22
BRANCH  21  24
ATOM     24  O   LIG A   1      -6.902   3.691 130.033  0.00  0.00    -0.387 OA
ATOM     25  H   LIG A   1      -7.746   3.196 130.104  0.00  0.00    +0.210 HD
ENDBRANCH  21  24
TORSDOF 2
ENDMDL
MODEL 9
REMARK VINA RESULT:      -7.1      1.708      6.652
REMARK  Name = NuBBE_1509
REMARK  3 active torsions:
REMARK  status: ('A' for Active; 'I' for Inactive)
REMARK    1  A    between atoms: O_1  and  C_2
REMARK    2  A    between atoms: C_13  and  C_16
REMARK    3  A    between atoms: C_26  and  O_28
REMARK                            x       y       z     vdW  Elec       q    Type
REMARK                         _______ _______ _______ _____ _____    ______ ____
ROOT
ATOM      1  C   LIG A   1     -10.413   7.527 128.919  0.00  0.00    +0.194 C 
ATOM      2  C   LIG A   1      -9.312   7.473 129.962  0.00  0.00    +0.077 C 
ATOM      3  C   LIG A   1      -9.188   5.957 130.110  0.00  0.00    +0.005 C 
ATOM      4  C   LIG A   1      -9.377   5.500 128.640  0.00  0.00    +0.171 C 
ATOM      5  O   LIG A   1      -9.976   6.590 127.924  0.00  0.00    -0.346 OA
ATOM      6  C   LIG A   1      -7.829   5.460 130.644  0.00  0.00    +0.001 C 
ATOM      7  C   LIG A   1      -7.480   6.082 132.004  0.00  0.00    -0.003 C 
ATOM      8  C   LIG A   1      -6.102   5.558 132.540  0.00  0.00    +0.006 C 
ATOM      9  C   LIG A   1      -5.829   4.037 132.360  0.00  0.00    -0.022 C 
ATOM     10  C   LIG A   1      -6.360   3.462 131.043  0.00  0.00    +0.007 C 
ATOM     11  C   LIG A   1      -7.761   3.923 130.699  0.00  0.00    +0.005 C 
ATOM     12  C   LIG A   1      -4.310   3.730 132.394  0.00  0.00    +0.012 C 
ATOM     13  C   LIG A   1      -6.494   3.425 133.605  0.00  0.00    +0.081 C 
ATOM     14  C   LIG A   1      -6.168   4.462 134.654  0.00  0.00    +0.134 C 
ATOM     15  O   LIG A   1      -6.161   4.241 135.852  0.00  0.00    -0.297 OA
ATOM     16  C   LIG A   1      -5.848   5.808 134.039  0.00  0.00    +0.078 C 
ATOM     17  C   LIG A   1      -8.689   6.136 132.964  0.00  0.00    +0.004 C 
ATOM     18  C   LIG A   1     -10.009   5.488 132.519  0.00  0.00    +0.004 C 
ATOM     19  C   LIG A   1     -10.352   5.470 131.004  0.00  0.00    +0.001 C 
ATOM     20  C   LIG A   1     -11.705   6.182 130.727  0.00  0.00    +0.041 C 
ATOM     21  C   LIG A   1     -11.788   7.024 129.445  0.00  0.00    +0.174 C 
ENDROOT
BRANCH   1  22
ATOM     22  O   LIG A   1     -10.544   8.802 128.330  0.00  0.00    -0.363 OA
ATOM     23  H   LIG A   1      -9.763   8.935 127.767  0.00  0.00    +0.213 HD
ENDBRANCH   1  22
BRANCH  21  24
ATOM     24  O   LIG A   1     -12.463   6.244 128.439  0.00  0.00    -0.387 OA
ATOM     25  H   LIG A   1     -13.027   5.613 128.934  0.00  0.00    +0.210 HD
ENDBRANCH  21  24
TORSDOF 2
ENDMDL
