MODEL 1
REMARK VINA RESULT:      -8.5      0.000      0.000
REMARK  Name = NuBBE_1151
REMARK  15 active torsions:
REMARK  status: ('A' for Active; 'I' for Inactive)
REMARK    1  A    between atoms: C_1  and  C_2
REMARK    2  A    between atoms: C_2  and  C_4
REMARK    3  A    between atoms: C_2  and  C_28
REMARK    4  A    between atoms: C_8  and  C_9
REMARK    5  A    between atoms: C_14  and  C_15
REMARK    6  A    between atoms: C_14  and  C_25
REMARK    7  A    between atoms: C_26  and  C_27
REMARK    8  A    between atoms: C_28  and  C_29
REMARK    9  A    between atoms: C_29  and  C_30
REMARK   10  A    between atoms: C_30  and  C_31
REMARK   11  A    between atoms: C_31  and  C_32
REMARK   12  A    between atoms: C_31  and  C_33
REMARK   13  A    between atoms: C_33  and  O_34
REMARK   14  A    between atoms: O_34  and  C_35
REMARK   15  A    between atoms: C_35  and  C_36
REMARK                            x       y       z     vdW  Elec       q    Type
REMARK                         _______ _______ _______ _____ _____    ______ ____
ROOT
ATOM      1  C   LIG A   1      -6.824  -1.153 127.613  0.00  0.00    -0.002 C 
ATOM      2  C   LIG A   1      -5.973  -1.309 126.346  0.00  0.00    +0.005 C 
ATOM      3  C   LIG A   1      -5.075  -0.085 126.398  0.00  0.00    +0.008 C 
ATOM      4  C   LIG A   1      -6.000   1.096 126.797  0.00  0.00    -0.023 C 
ATOM      5  C   LIG A   1      -6.382   1.835 125.490  0.00  0.00    +0.012 C 
ATOM      6  C   LIG A   1      -5.230   2.058 127.766  0.00  0.00    +0.002 C 
ATOM      7  C   LIG A   1      -3.950   2.672 127.182  0.00  0.00    +0.005 C 
ATOM      8  C   LIG A   1      -3.234   3.486 128.255  0.00  0.00    +0.005 C 
ATOM      9  C   LIG A   1      -4.037   4.745 128.619  0.00  0.00    +0.009 C 
ATOM     10  C   LIG A   1      -3.308   5.637 129.665  0.00  0.00    +0.027 C 
ATOM     11  C   LIG A   1      -2.075   6.311 129.016  0.00  0.00    +0.019 C 
ATOM     12  C   LIG A   1      -4.284   6.731 130.088  0.00  0.00    +0.139 C 
ATOM     13  C   LIG A   1      -5.606   6.311 130.668  0.00  0.00    +0.075 C 
ATOM     14  C   LIG A   1      -6.036   4.909 130.285  0.00  0.00    +0.015 C 
ATOM     15  C   LIG A   1      -5.512   4.401 128.955  0.00  0.00    -0.019 C 
ATOM     16  C   LIG A   1      -6.430   4.444 127.753  0.00  0.00    +0.015 C 
ATOM     17  C   LIG A   1      -6.164   3.097 128.393  0.00  0.00    -0.019 C 
ATOM     18  C   LIG A   1      -7.394   2.470 129.048  0.00  0.00    +0.008 C 
ATOM     19  C   LIG A   1      -7.418   0.943 128.972  0.00  0.00    +0.008 C 
ATOM     20  O   LIG A   1      -4.001   7.931 130.030  0.00  0.00    -0.297 OA
ATOM     21  C   LIG A   1      -2.816   4.887 130.913  0.00  0.00    +0.019 C 
ATOM     22  C   LIG A   1      -7.241   0.380 127.538  0.00  0.00    -0.023 C 
ATOM     23  C   LIG A   1      -8.565   0.570 126.759  0.00  0.00    +0.012 C 
ENDROOT
BRANCH   1  25
ATOM     24  C   LIG A   1      -7.666  -3.207 128.951  0.00  0.00    +0.008 C 
ATOM     25  C   LIG A   1      -7.920  -2.261 127.770  0.00  0.00    -0.010 C 
BRANCH  25  26
ATOM     26  C   LIG A   1      -8.122  -3.142 126.497  0.00  0.00    +0.008 C 
BRANCH  26  27
ATOM     27  C   LIG A   1      -9.437  -2.911 125.736  0.00  0.00    +0.031 C 
BRANCH  27  28
ATOM     28  C   LIG A   1      -9.227  -2.746 124.238  0.00  0.00    -0.071 C 
ATOM     29  C   LIG A   1      -9.741  -3.659 123.393  0.00  0.00    +0.008 C 
BRANCH  28  30
ATOM     30  C   LIG A   1      -8.410  -1.529 123.801  0.00  0.00    +0.049 C 
ATOM     31  C   LIG A   1      -7.191  -1.978 122.974  0.00  0.00    +0.015 C 
BRANCH  30  32
ATOM     32  C   LIG A   1      -9.202  -0.452 123.020  0.00  0.00    +0.239 C 
BRANCH  32  33
ATOM     33  O   LIG A   1      -8.496   0.802 123.027  0.00  0.00    -0.464 OA
BRANCH  33  34
ATOM     34  C   LIG A   1      -9.250   1.916 123.223  0.00  0.00    +0.304 C 
ATOM     35  C   LIG A   1     -10.529   1.516 123.899  0.00  0.00    +0.136 C 
ATOM     36  O   LIG A   1      -8.985   3.040 122.854  0.00  0.00    -0.251 OA
ENDBRANCH  33  34
ENDBRANCH  32  33
ENDBRANCH  30  32
ENDBRANCH  28  30
ENDBRANCH  27  28
ENDBRANCH  26  27
ENDBRANCH  25  26
ENDBRANCH   1  25
TORSDOF 8
ENDMDL
MODEL 2
REMARK VINA RESULT:      -8.2      3.439      8.388
REMARK  Name = NuBBE_1151
REMARK  15 active torsions:
REMARK  status: ('A' for Active; 'I' for Inactive)
REMARK    1  A    between atoms: C_1  and  C_2
REMARK    2  A    between atoms: C_2  and  C_4
REMARK    3  A    between atoms: C_2  and  C_28
REMARK    4  A    between atoms: C_8  and  C_9
REMARK    5  A    between atoms: C_14  and  C_15
REMARK    6  A    between atoms: C_14  and  C_25
REMARK    7  A    between atoms: C_26  and  C_27
REMARK    8  A    between atoms: C_28  and  C_29
REMARK    9  A    between atoms: C_29  and  C_30
REMARK   10  A    between atoms: C_30  and  C_31
REMARK   11  A    between atoms: C_31  and  C_32
REMARK   12  A    between atoms: C_31  and  C_33
REMARK   13  A    between atoms: C_33  and  O_34
REMARK   14  A    between atoms: O_34  and  C_35
REMARK   15  A    between atoms: C_35  and  C_36
REMARK                            x       y       z     vdW  Elec       q    Type
REMARK                         _______ _______ _______ _____ _____    ______ ____
ROOT
ATOM      1  C   LIG A   1      -7.172   2.313 131.709  0.00  0.00    -0.002 C 
ATOM      2  C   LIG A   1      -5.784   2.916 131.457  0.00  0.00    +0.005 C 
ATOM      3  C   LIG A   1      -5.408   2.327 130.108  0.00  0.00    +0.008 C 
ATOM      4  C   LIG A   1      -5.808   0.829 130.179  0.00  0.00    -0.023 C 
ATOM      5  C   LIG A   1      -4.524   0.031 130.519  0.00  0.00    +0.012 C 
ATOM      6  C   LIG A   1      -6.384   0.376 128.793  0.00  0.00    +0.002 C 
ATOM      7  C   LIG A   1      -5.412   0.523 127.613  0.00  0.00    +0.005 C 
ATOM      8  C   LIG A   1      -6.126   0.167 126.313  0.00  0.00    +0.005 C 
ATOM      9  C   LIG A   1      -6.450  -1.335 126.255  0.00  0.00    +0.009 C 
ATOM     10  C   LIG A   1      -7.121  -1.751 124.914  0.00  0.00    +0.027 C 
ATOM     11  C   LIG A   1      -6.088  -1.678 123.763  0.00  0.00    +0.019 C 
ATOM     12  C   LIG A   1      -7.571  -3.201 125.062  0.00  0.00    +0.139 C 
ATOM     13  C   LIG A   1      -8.515  -3.535 126.184  0.00  0.00    +0.075 C 
ATOM     14  C   LIG A   1      -8.493  -2.545 127.332  0.00  0.00    +0.015 C 
ATOM     15  C   LIG A   1      -7.184  -1.807 127.537  0.00  0.00    -0.019 C 
ATOM     16  C   LIG A   1      -6.249  -2.286 128.626  0.00  0.00    +0.015 C 
ATOM     17  C   LIG A   1      -7.028  -1.011 128.873  0.00  0.00    -0.019 C 
ATOM     18  C   LIG A   1      -8.057  -1.122 129.997  0.00  0.00    +0.008 C 
ATOM     19  C   LIG A   1      -8.253   0.176 130.780  0.00  0.00    +0.008 C 
ATOM     20  O   LIG A   1      -7.242  -4.082 124.264  0.00  0.00    -0.297 OA
ATOM     21  C   LIG A   1      -8.324  -0.886 124.506  0.00  0.00    +0.019 C 
ATOM     22  C   LIG A   1      -6.937   0.786 131.331  0.00  0.00    -0.023 C 
ATOM     23  C   LIG A   1      -6.478  -0.039 132.557  0.00  0.00    +0.012 C 
ENDROOT
BRANCH   1  25
ATOM     24  C   LIG A   1      -9.309   2.761 133.106  0.00  0.00    +0.008 C 
ATOM     25  C   LIG A   1      -7.776   2.695 133.103  0.00  0.00    -0.010 C 
BRANCH  25  26
ATOM     26  C   LIG A   1      -7.245   4.046 133.677  0.00  0.00    +0.008 C 
BRANCH  26  27
ATOM     27  C   LIG A   1      -8.136   5.271 133.415  0.00  0.00    +0.031 C 
BRANCH  27  28
ATOM     28  C   LIG A   1      -7.769   5.998 132.130  0.00  0.00    -0.071 C 
ATOM     29  C   LIG A   1      -6.514   6.454 131.962  0.00  0.00    +0.008 C 
BRANCH  28  30
ATOM     30  C   LIG A   1      -8.894   6.173 131.109  0.00  0.00    +0.049 C 
ATOM     31  C   LIG A   1      -8.772   5.112 130.000  0.00  0.00    +0.015 C 
BRANCH  30  32
ATOM     32  C   LIG A   1     -10.326   6.150 131.697  0.00  0.00    +0.239 C 
BRANCH  32  33
ATOM     33  O   LIG A   1     -11.224   5.448 130.819  0.00  0.00    -0.464 OA
BRANCH  33  34
ATOM     34  C   LIG A   1     -12.085   6.217 130.100  0.00  0.00    +0.304 C 
ATOM     35  C   LIG A   1     -12.709   7.226 131.019  0.00  0.00    +0.136 C 
ATOM     36  O   LIG A   1     -12.370   6.078 128.930  0.00  0.00    -0.251 OA
ENDBRANCH  33  34
ENDBRANCH  32  33
ENDBRANCH  30  32
ENDBRANCH  28  30
ENDBRANCH  27  28
ENDBRANCH  26  27
ENDBRANCH  25  26
ENDBRANCH   1  25
TORSDOF 8
ENDMDL
MODEL 3
REMARK VINA RESULT:      -8.2      3.206      8.484
REMARK  Name = NuBBE_1151
REMARK  15 active torsions:
REMARK  status: ('A' for Active; 'I' for Inactive)
REMARK    1  A    between atoms: C_1  and  C_2
REMARK    2  A    between atoms: C_2  and  C_4
REMARK    3  A    between atoms: C_2  and  C_28
REMARK    4  A    between atoms: C_8  and  C_9
REMARK    5  A    between atoms: C_14  and  C_15
REMARK    6  A    between atoms: C_14  and  C_25
REMARK    7  A    between atoms: C_26  and  C_27
REMARK    8  A    between atoms: C_28  and  C_29
REMARK    9  A    between atoms: C_29  and  C_30
REMARK   10  A    between atoms: C_30  and  C_31
REMARK   11  A    between atoms: C_31  and  C_32
REMARK   12  A    between atoms: C_31  and  C_33
REMARK   13  A    between atoms: C_33  and  O_34
REMARK   14  A    between atoms: O_34  and  C_35
REMARK   15  A    between atoms: C_35  and  C_36
REMARK                            x       y       z     vdW  Elec       q    Type
REMARK                         _______ _______ _______ _____ _____    ______ ____
ROOT
ATOM      1  C   LIG A   1      -7.994   1.858 131.034  0.00  0.00    -0.002 C 
ATOM      2  C   LIG A   1      -9.116   2.809 130.598  0.00  0.00    +0.005 C 
ATOM      3  C   LIG A   1      -9.385   2.370 129.168  0.00  0.00    +0.008 C 
ATOM      4  C   LIG A   1      -7.988   2.169 128.523  0.00  0.00    -0.023 C 
ATOM      5  C   LIG A   1      -7.669   3.457 127.722  0.00  0.00    +0.012 C 
ATOM      6  C   LIG A   1      -8.027   0.926 127.569  0.00  0.00    +0.002 C 
ATOM      7  C   LIG A   1      -9.040   1.027 126.419  0.00  0.00    +0.005 C 
ATOM      8  C   LIG A   1      -9.068  -0.284 125.642  0.00  0.00    +0.005 C 
ATOM      9  C   LIG A   1      -7.754  -0.498 124.873  0.00  0.00    +0.009 C 
ATOM     10  C   LIG A   1      -7.768  -1.795 124.013  0.00  0.00    +0.027 C 
ATOM     11  C   LIG A   1      -8.730  -1.622 122.813  0.00  0.00    +0.019 C 
ATOM     12  C   LIG A   1      -6.355  -1.994 123.470  0.00  0.00    +0.139 C 
ATOM     13  C   LIG A   1      -5.227  -2.096 124.459  0.00  0.00    +0.075 C 
ATOM     14  C   LIG A   1      -5.524  -1.472 125.808  0.00  0.00    +0.015 C 
ATOM     15  C   LIG A   1      -6.520  -0.329 125.798  0.00  0.00    -0.019 C 
ATOM     16  C   LIG A   1      -5.993   1.089 125.847  0.00  0.00    +0.015 C 
ATOM     17  C   LIG A   1      -6.625   0.525 127.102  0.00  0.00    -0.019 C 
ATOM     18  C   LIG A   1      -5.645   0.342 128.260  0.00  0.00    +0.008 C 
ATOM     19  C   LIG A   1      -6.273   0.561 129.636  0.00  0.00    +0.008 C 
ATOM     20  O   LIG A   1      -6.122  -2.137 122.267  0.00  0.00    -0.297 OA
ATOM     21  C   LIG A   1      -8.202  -3.059 124.771  0.00  0.00    +0.019 C 
ATOM     22  C   LIG A   1      -7.013   1.917 129.783  0.00  0.00    -0.023 C 
ATOM     23  C   LIG A   1      -5.965   3.045 129.937  0.00  0.00    +0.012 C 
ENDROOT
BRANCH   1  25
ATOM     24  C   LIG A   1      -6.900   0.905 133.181  0.00  0.00    +0.008 C 
ATOM     25  C   LIG A   1      -7.453   2.149 132.475  0.00  0.00    -0.010 C 
BRANCH  25  26
ATOM     26  C   LIG A   1      -8.501   2.806 133.428  0.00  0.00    +0.008 C 
BRANCH  26  27
ATOM     27  C   LIG A   1      -8.021   4.062 134.171  0.00  0.00    +0.031 C 
BRANCH  27  28
ATOM     28  C   LIG A   1      -7.295   5.042 133.260  0.00  0.00    -0.071 C 
ATOM     29  C   LIG A   1      -5.955   4.978 133.153  0.00  0.00    +0.008 C 
BRANCH  28  30
ATOM     30  C   LIG A   1      -8.172   6.060 132.530  0.00  0.00    +0.049 C 
ATOM     31  C   LIG A   1      -7.758   6.149 131.048  0.00  0.00    +0.015 C 
BRANCH  30  32
ATOM     32  C   LIG A   1      -9.695   5.810 132.632  0.00  0.00    +0.239 C 
BRANCH  32  33
ATOM     33  O   LIG A   1     -10.423   6.793 131.873  0.00  0.00    -0.464 OA
BRANCH  33  34
ATOM     34  C   LIG A   1     -11.640   6.409 131.402  0.00  0.00    +0.304 C 
ATOM     35  C   LIG A   1     -11.434   5.481 130.242  0.00  0.00    +0.136 C 
ATOM     36  O   LIG A   1     -12.719   6.798 131.794  0.00  0.00    -0.251 OA
ENDBRANCH  33  34
ENDBRANCH  32  33
ENDBRANCH  30  32
ENDBRANCH  28  30
ENDBRANCH  27  28
ENDBRANCH  26  27
ENDBRANCH  25  26
ENDBRANCH   1  25
TORSDOF 8
ENDMDL
MODEL 4
REMARK VINA RESULT:      -8.1      1.885      3.992
REMARK  Name = NuBBE_1151
REMARK  15 active torsions:
REMARK  status: ('A' for Active; 'I' for Inactive)
REMARK    1  A    between atoms: C_1  and  C_2
REMARK    2  A    between atoms: C_2  and  C_4
REMARK    3  A    between atoms: C_2  and  C_28
REMARK    4  A    between atoms: C_8  and  C_9
REMARK    5  A    between atoms: C_14  and  C_15
REMARK    6  A    between atoms: C_14  and  C_25
REMARK    7  A    between atoms: C_26  and  C_27
REMARK    8  A    between atoms: C_28  and  C_29
REMARK    9  A    between atoms: C_29  and  C_30
REMARK   10  A    between atoms: C_30  and  C_31
REMARK   11  A    between atoms: C_31  and  C_32
REMARK   12  A    between atoms: C_31  and  C_33
REMARK   13  A    between atoms: C_33  and  O_34
REMARK   14  A    between atoms: O_34  and  C_35
REMARK   15  A    between atoms: C_35  and  C_36
REMARK                            x       y       z     vdW  Elec       q    Type
REMARK                         _______ _______ _______ _____ _____    ______ ____
ROOT
ATOM      1  C   LIG A   1      -7.743   2.213 125.240  0.00  0.00    -0.002 C 
ATOM      2  C   LIG A   1      -8.587   1.463 126.279  0.00  0.00    +0.005 C 
ATOM      3  C   LIG A   1      -8.121   2.076 127.589  0.00  0.00    +0.008 C 
ATOM      4  C   LIG A   1      -6.574   2.159 127.484  0.00  0.00    -0.023 C 
ATOM      5  C   LIG A   1      -6.002   0.928 128.232  0.00  0.00    +0.012 C 
ATOM      6  C   LIG A   1      -6.076   3.487 128.151  0.00  0.00    +0.002 C 
ATOM      7  C   LIG A   1      -6.432   3.634 129.638  0.00  0.00    +0.005 C 
ATOM      8  C   LIG A   1      -6.002   5.009 130.136  0.00  0.00    +0.005 C 
ATOM      9  C   LIG A   1      -4.470   5.128 130.175  0.00  0.00    +0.009 C 
ATOM     10  C   LIG A   1      -3.990   6.496 130.741  0.00  0.00    +0.027 C 
ATOM     11  C   LIG A   1      -4.282   6.572 132.259  0.00  0.00    +0.019 C 
ATOM     12  C   LIG A   1      -2.479   6.566 130.540  0.00  0.00    +0.139 C 
ATOM     13  C   LIG A   1      -1.947   6.421 129.141  0.00  0.00    +0.075 C 
ATOM     14  C   LIG A   1      -2.885   5.708 128.188  0.00  0.00    +0.015 C 
ATOM     15  C   LIG A   1      -3.832   4.709 128.825  0.00  0.00    -0.019 C 
ATOM     16  C   LIG A   1      -3.486   3.238 128.752  0.00  0.00    +0.015 C 
ATOM     17  C   LIG A   1      -4.597   3.749 127.858  0.00  0.00    -0.019 C 
ATOM     18  C   LIG A   1      -4.269   3.686 126.367  0.00  0.00    +0.008 C 
ATOM     19  C   LIG A   1      -5.484   3.411 125.482  0.00  0.00    +0.008 C 
ATOM     20  O   LIG A   1      -1.697   6.799 131.465  0.00  0.00    -0.297 OA
ATOM     21  C   LIG A   1      -4.645   7.723 130.086  0.00  0.00    +0.019 C 
ATOM     22  C   LIG A   1      -6.295   2.155 125.895  0.00  0.00    -0.023 C 
ATOM     23  C   LIG A   1      -5.520   0.891 125.449  0.00  0.00    +0.012 C 
ENDROOT
BRANCH   1  25
ATOM     24  C   LIG A   1      -9.386   1.960 123.252  0.00  0.00    +0.008 C 
ATOM     25  C   LIG A   1      -7.965   1.711 123.773  0.00  0.00    -0.010 C 
BRANCH  25  26
ATOM     26  C   LIG A   1      -7.646   0.197 123.564  0.00  0.00    +0.008 C 
BRANCH  26  27
ATOM     27  C   LIG A   1      -8.860  -0.702 123.283  0.00  0.00    +0.031 C 
BRANCH  27  28
ATOM     28  C   LIG A   1      -8.763  -2.053 123.977  0.00  0.00    -0.071 C 
ATOM     29  C   LIG A   1      -9.396  -3.116 123.447  0.00  0.00    +0.008 C 
BRANCH  28  30
ATOM     30  C   LIG A   1      -7.944  -2.091 125.268  0.00  0.00    +0.049 C 
ATOM     31  C   LIG A   1      -8.866  -2.363 126.472  0.00  0.00    +0.015 C 
BRANCH  30  32
ATOM     32  C   LIG A   1      -6.770  -3.100 125.272  0.00  0.00    +0.239 C 
BRANCH  32  33
ATOM     33  O   LIG A   1      -5.592  -2.510 124.693  0.00  0.00    -0.464 OA
BRANCH  33  34
ATOM     34  C   LIG A   1      -5.263  -2.928 123.442  0.00  0.00    +0.304 C 
ATOM     35  C   LIG A   1      -4.356  -4.119 123.558  0.00  0.00    +0.136 C 
ATOM     36  O   LIG A   1      -5.579  -2.398 122.398  0.00  0.00    -0.251 OA
ENDBRANCH  33  34
ENDBRANCH  32  33
ENDBRANCH  30  32
ENDBRANCH  28  30
ENDBRANCH  27  28
ENDBRANCH  26  27
ENDBRANCH  25  26
ENDBRANCH   1  25
TORSDOF 8
ENDMDL
MODEL 5
REMARK VINA RESULT:      -8.0      2.659      8.834
REMARK  Name = NuBBE_1151
REMARK  15 active torsions:
REMARK  status: ('A' for Active; 'I' for Inactive)
REMARK    1  A    between atoms: C_1  and  C_2
REMARK    2  A    between atoms: C_2  and  C_4
REMARK    3  A    between atoms: C_2  and  C_28
REMARK    4  A    between atoms: C_8  and  C_9
REMARK    5  A    between atoms: C_14  and  C_15
REMARK    6  A    between atoms: C_14  and  C_25
REMARK    7  A    between atoms: C_26  and  C_27
REMARK    8  A    between atoms: C_28  and  C_29
REMARK    9  A    between atoms: C_29  and  C_30
REMARK   10  A    between atoms: C_30  and  C_31
REMARK   11  A    between atoms: C_31  and  C_32
REMARK   12  A    between atoms: C_31  and  C_33
REMARK   13  A    between atoms: C_33  and  O_34
REMARK   14  A    between atoms: O_34  and  C_35
REMARK   15  A    between atoms: C_35  and  C_36
REMARK                            x       y       z     vdW  Elec       q    Type
REMARK                         _______ _______ _______ _____ _____    ______ ____
ROOT
ATOM      1  C   LIG A   1      -5.503   3.685 128.818  0.00  0.00    -0.002 C 
ATOM      2  C   LIG A   1      -5.755   3.021 130.178  0.00  0.00    +0.005 C 
ATOM      3  C   LIG A   1      -6.292   1.654 129.784  0.00  0.00    +0.008 C 
ATOM      4  C   LIG A   1      -7.306   1.918 128.639  0.00  0.00    -0.023 C 
ATOM      5  C   LIG A   1      -8.718   1.927 129.276  0.00  0.00    +0.012 C 
ATOM      6  C   LIG A   1      -7.194   0.776 127.570  0.00  0.00    +0.002 C 
ATOM      7  C   LIG A   1      -7.479  -0.636 128.103  0.00  0.00    +0.005 C 
ATOM      8  C   LIG A   1      -7.222  -1.661 127.005  0.00  0.00    +0.005 C 
ATOM      9  C   LIG A   1      -8.266  -1.543 125.883  0.00  0.00    +0.009 C 
ATOM     10  C   LIG A   1      -8.076  -2.617 124.773  0.00  0.00    +0.027 C 
ATOM     11  C   LIG A   1      -8.459  -4.014 125.320  0.00  0.00    +0.019 C 
ATOM     12  C   LIG A   1      -9.032  -2.269 123.636  0.00  0.00    +0.139 C 
ATOM     13  C   LIG A   1      -8.909  -0.910 123.003  0.00  0.00    +0.075 C 
ATOM     14  C   LIG A   1      -8.242   0.129 123.882  0.00  0.00    +0.015 C 
ATOM     15  C   LIG A   1      -8.392  -0.082 125.377  0.00  0.00    -0.019 C 
ATOM     16  C   LIG A   1      -9.435   0.725 126.118  0.00  0.00    +0.015 C 
ATOM     17  C   LIG A   1      -7.981   1.110 126.300  0.00  0.00    -0.019 C 
ATOM     18  C   LIG A   1      -7.628   2.482 125.728  0.00  0.00    +0.008 C 
ATOM     19  C   LIG A   1      -6.544   3.215 126.517  0.00  0.00    +0.008 C 
ATOM     20  O   LIG A   1      -9.846  -3.077 123.183  0.00  0.00    -0.297 OA
ATOM     21  C   LIG A   1      -6.646  -2.718 124.220  0.00  0.00    +0.019 C 
ATOM     22  C   LIG A   1      -6.844   3.340 128.034  0.00  0.00    -0.023 C 
ATOM     23  C   LIG A   1      -7.920   4.433 128.244  0.00  0.00    +0.012 C 
ENDROOT
BRANCH   1  25
ATOM     24  C   LIG A   1      -3.705   5.436 128.175  0.00  0.00    +0.008 C 
ATOM     25  C   LIG A   1      -5.014   5.168 128.928  0.00  0.00    -0.010 C 
BRANCH  25  26
ATOM     26  C   LIG A   1      -4.824   5.669 130.395  0.00  0.00    +0.008 C 
BRANCH  26  27
ATOM     27  C   LIG A   1      -5.862   6.691 130.883  0.00  0.00    +0.031 C 
BRANCH  27  28
ATOM     28  C   LIG A   1      -6.666   6.189 132.073  0.00  0.00    -0.071 C 
ATOM     29  C   LIG A   1      -6.022   5.805 133.192  0.00  0.00    +0.008 C 
BRANCH  28  30
ATOM     30  C   LIG A   1      -8.184   6.143 131.892  0.00  0.00    +0.049 C 
ATOM     31  C   LIG A   1      -8.609   7.086 130.751  0.00  0.00    +0.015 C 
BRANCH  30  32
ATOM     32  C   LIG A   1      -8.775   4.734 131.652  0.00  0.00    +0.239 C 
BRANCH  32  33
ATOM     33  O   LIG A   1      -9.122   4.109 132.901  0.00  0.00    -0.464 OA
BRANCH  33  34
ATOM     34  C   LIG A   1      -9.006   2.755 132.950  0.00  0.00    +0.304 C 
ATOM     35  C   LIG A   1      -7.610   2.409 133.379  0.00  0.00    +0.136 C 
ATOM     36  O   LIG A   1      -9.853   1.948 132.633  0.00  0.00    -0.251 OA
ENDBRANCH  33  34
ENDBRANCH  32  33
ENDBRANCH  30  32
ENDBRANCH  28  30
ENDBRANCH  27  28
ENDBRANCH  26  27
ENDBRANCH  25  26
ENDBRANCH   1  25
TORSDOF 8
ENDMDL
MODEL 6
REMARK VINA RESULT:      -8.0      2.758      8.045
REMARK  Name = NuBBE_1151
REMARK  15 active torsions:
REMARK  status: ('A' for Active; 'I' for Inactive)
REMARK    1  A    between atoms: C_1  and  C_2
REMARK    2  A    between atoms: C_2  and  C_4
REMARK    3  A    between atoms: C_2  and  C_28
REMARK    4  A    between atoms: C_8  and  C_9
REMARK    5  A    between atoms: C_14  and  C_15
REMARK    6  A    between atoms: C_14  and  C_25
REMARK    7  A    between atoms: C_26  and  C_27
REMARK    8  A    between atoms: C_28  and  C_29
REMARK    9  A    between atoms: C_29  and  C_30
REMARK   10  A    between atoms: C_30  and  C_31
REMARK   11  A    between atoms: C_31  and  C_32
REMARK   12  A    between atoms: C_31  and  C_33
REMARK   13  A    between atoms: C_33  and  O_34
REMARK   14  A    between atoms: O_34  and  C_35
REMARK   15  A    between atoms: C_35  and  C_36
REMARK                            x       y       z     vdW  Elec       q    Type
REMARK                         _______ _______ _______ _____ _____    ______ ____
ROOT
ATOM      1  C   LIG A   1      -6.929   2.413 131.643  0.00  0.00    -0.002 C 
ATOM      2  C   LIG A   1      -5.531   2.976 131.355  0.00  0.00    +0.005 C 
ATOM      3  C   LIG A   1      -5.194   2.352 130.011  0.00  0.00    +0.008 C 
ATOM      4  C   LIG A   1      -5.630   0.867 130.119  0.00  0.00    -0.023 C 
ATOM      5  C   LIG A   1      -4.360   0.044 130.451  0.00  0.00    +0.012 C 
ATOM      6  C   LIG A   1      -6.242   0.402 128.752  0.00  0.00    +0.002 C 
ATOM      7  C   LIG A   1      -5.289   0.502 127.552  0.00  0.00    +0.005 C 
ATOM      8  C   LIG A   1      -6.035   0.139 126.272  0.00  0.00    +0.005 C 
ATOM      9  C   LIG A   1      -6.398  -1.355 126.250  0.00  0.00    +0.009 C 
ATOM     10  C   LIG A   1      -7.103  -1.780 124.929  0.00  0.00    +0.027 C 
ATOM     11  C   LIG A   1      -6.090  -1.755 123.759  0.00  0.00    +0.019 C 
ATOM     12  C   LIG A   1      -7.586  -3.216 125.114  0.00  0.00    +0.139 C 
ATOM     13  C   LIG A   1      -8.517  -3.504 126.259  0.00  0.00    +0.075 C 
ATOM     14  C   LIG A   1      -8.450  -2.493 127.386  0.00  0.00    +0.015 C 
ATOM     15  C   LIG A   1      -7.119  -1.784 127.554  0.00  0.00    -0.019 C 
ATOM     16  C   LIG A   1      -6.177  -2.265 128.635  0.00  0.00    +0.015 C 
ATOM     17  C   LIG A   1      -6.919  -0.967 128.871  0.00  0.00    -0.019 C 
ATOM     18  C   LIG A   1      -7.930  -1.030 130.015  0.00  0.00    +0.008 C 
ATOM     19  C   LIG A   1      -8.079   0.287 130.775  0.00  0.00    +0.008 C 
ATOM     20  O   LIG A   1      -7.293  -4.120 124.328  0.00  0.00    -0.297 OA
ATOM     21  C   LIG A   1      -8.292  -0.893 124.526  0.00  0.00    +0.019 C 
ATOM     22  C   LIG A   1      -6.739   0.874 131.291  0.00  0.00    -0.023 C 
ATOM     23  C   LIG A   1      -6.278   0.062 132.525  0.00  0.00    +0.012 C 
ENDROOT
BRANCH   1  25
ATOM     24  C   LIG A   1      -9.026   2.740 133.131  0.00  0.00    +0.008 C 
ATOM     25  C   LIG A   1      -7.498   2.838 133.039  0.00  0.00    -0.010 C 
BRANCH  25  26
ATOM     26  C   LIG A   1      -7.091   4.279 133.481  0.00  0.00    +0.008 C 
BRANCH  26  27
ATOM     27  C   LIG A   1      -8.136   5.372 133.210  0.00  0.00    +0.031 C 
BRANCH  27  28
ATOM     28  C   LIG A   1      -8.009   5.974 131.818  0.00  0.00    -0.071 C 
ATOM     29  C   LIG A   1      -6.837   6.517 131.436  0.00  0.00    +0.008 C 
BRANCH  28  30
ATOM     30  C   LIG A   1      -9.263   5.926 130.945  0.00  0.00    +0.049 C 
ATOM     31  C   LIG A   1      -9.441   7.263 130.200  0.00  0.00    +0.015 C 
BRANCH  30  32
ATOM     32  C   LIG A   1      -9.318   4.755 129.934  0.00  0.00    +0.239 C 
BRANCH  32  33
ATOM     33  O   LIG A   1      -8.766   5.153 128.666  0.00  0.00    -0.464 OA
BRANCH  33  34
ATOM     34  C   LIG A   1      -7.858   4.306 128.112  0.00  0.00    +0.304 C 
ATOM     35  C   LIG A   1      -8.380   2.904 128.224  0.00  0.00    +0.136 C 
ATOM     36  O   LIG A   1      -6.772   4.606 127.665  0.00  0.00    -0.251 OA
ENDBRANCH  33  34
ENDBRANCH  32  33
ENDBRANCH  30  32
ENDBRANCH  28  30
ENDBRANCH  27  28
ENDBRANCH  26  27
ENDBRANCH  25  26
ENDBRANCH   1  25
TORSDOF 8
ENDMDL
MODEL 7
REMARK VINA RESULT:      -7.9      3.339      6.320
REMARK  Name = NuBBE_1151
REMARK  15 active torsions:
REMARK  status: ('A' for Active; 'I' for Inactive)
REMARK    1  A    between atoms: C_1  and  C_2
REMARK    2  A    between atoms: C_2  and  C_4
REMARK    3  A    between atoms: C_2  and  C_28
REMARK    4  A    between atoms: C_8  and  C_9
REMARK    5  A    between atoms: C_14  and  C_15
REMARK    6  A    between atoms: C_14  and  C_25
REMARK    7  A    between atoms: C_26  and  C_27
REMARK    8  A    between atoms: C_28  and  C_29
REMARK    9  A    between atoms: C_29  and  C_30
REMARK   10  A    between atoms: C_30  and  C_31
REMARK   11  A    between atoms: C_31  and  C_32
REMARK   12  A    between atoms: C_31  and  C_33
REMARK   13  A    between atoms: C_33  and  O_34
REMARK   14  A    between atoms: O_34  and  C_35
REMARK   15  A    between atoms: C_35  and  C_36
REMARK                            x       y       z     vdW  Elec       q    Type
REMARK                         _______ _______ _______ _____ _____    ______ ____
ROOT
ATOM      1  C   LIG A   1      -7.603  -2.260 125.359  0.00  0.00    -0.002 C 
ATOM      2  C   LIG A   1      -6.219  -1.879 124.819  0.00  0.00    +0.005 C 
ATOM      3  C   LIG A   1      -5.312  -2.164 126.005  0.00  0.00    +0.008 C 
ATOM      4  C   LIG A   1      -6.052  -1.594 127.244  0.00  0.00    -0.023 C 
ATOM      5  C   LIG A   1      -5.446  -0.197 127.532  0.00  0.00    +0.012 C 
ATOM      6  C   LIG A   1      -5.835  -2.549 128.468  0.00  0.00    +0.002 C 
ATOM      7  C   LIG A   1      -4.368  -2.749 128.877  0.00  0.00    +0.005 C 
ATOM      8  C   LIG A   1      -4.282  -3.785 129.992  0.00  0.00    +0.005 C 
ATOM      9  C   LIG A   1      -4.891  -3.245 131.296  0.00  0.00    +0.009 C 
ATOM     10  C   LIG A   1      -4.764  -4.250 132.477  0.00  0.00    +0.027 C 
ATOM     11  C   LIG A   1      -3.285  -4.357 132.922  0.00  0.00    +0.019 C 
ATOM     12  C   LIG A   1      -5.575  -3.687 133.641  0.00  0.00    +0.139 C 
ATOM     13  C   LIG A   1      -7.035  -3.410 133.414  0.00  0.00    +0.075 C 
ATOM     14  C   LIG A   1      -7.412  -3.213 131.959  0.00  0.00    +0.015 C 
ATOM     15  C   LIG A   1      -6.314  -2.672 131.063  0.00  0.00    -0.019 C 
ATOM     16  C   LIG A   1      -6.322  -1.199 130.719  0.00  0.00    +0.015 C 
ATOM     17  C   LIG A   1      -6.742  -2.179 129.644  0.00  0.00    -0.019 C 
ATOM     18  C   LIG A   1      -8.213  -2.067 129.245  0.00  0.00    +0.008 C 
ATOM     19  C   LIG A   1      -8.475  -2.380 127.772  0.00  0.00    +0.008 C 
ATOM     20  O   LIG A   1      -5.092  -3.517 134.764  0.00  0.00    -0.297 OA
ATOM     21  C   LIG A   1      -5.251  -5.673 132.161  0.00  0.00    +0.019 C 
ATOM     22  C   LIG A   1      -7.599  -1.561 126.787  0.00  0.00    -0.023 C 
ATOM     23  C   LIG A   1      -8.148  -0.115 126.714  0.00  0.00    +0.012 C 
ENDROOT
BRANCH   1  25
ATOM     24  C   LIG A   1      -9.340  -3.253 123.711  0.00  0.00    +0.008 C 
ATOM     25  C   LIG A   1      -8.767  -1.981 124.348  0.00  0.00    -0.010 C 
BRANCH  25  26
ATOM     26  C   LIG A   1      -8.384  -1.006 123.191  0.00  0.00    +0.008 C 
BRANCH  26  27
ATOM     27  C   LIG A   1      -9.507  -0.071 122.715  0.00  0.00    +0.031 C 
BRANCH  27  28
ATOM     28  C   LIG A   1      -9.685   1.140 123.618  0.00  0.00    -0.071 C 
ATOM     29  C   LIG A   1     -10.779   1.231 124.397  0.00  0.00    +0.008 C 
BRANCH  28  30
ATOM     30  C   LIG A   1      -8.581   2.197 123.554  0.00  0.00    +0.049 C 
ATOM     31  C   LIG A   1      -8.593   2.892 122.180  0.00  0.00    +0.015 C 
BRANCH  30  32
ATOM     32  C   LIG A   1      -8.624   3.261 124.677  0.00  0.00    +0.239 C 
BRANCH  32  33
ATOM     33  O   LIG A   1      -7.482   3.131 125.544  0.00  0.00    -0.464 OA
BRANCH  33  34
ATOM     34  C   LIG A   1      -6.326   3.696 125.104  0.00  0.00    +0.304 C 
ATOM     35  C   LIG A   1      -5.177   2.826 125.524  0.00  0.00    +0.136 C 
ATOM     36  O   LIG A   1      -6.216   4.759 124.533  0.00  0.00    -0.251 OA
ENDBRANCH  33  34
ENDBRANCH  32  33
ENDBRANCH  30  32
ENDBRANCH  28  30
ENDBRANCH  27  28
ENDBRANCH  26  27
ENDBRANCH  25  26
ENDBRANCH   1  25
TORSDOF 8
ENDMDL
MODEL 8
REMARK VINA RESULT:      -7.7      2.425      4.229
REMARK  Name = NuBBE_1151
REMARK  15 active torsions:
REMARK  status: ('A' for Active; 'I' for Inactive)
REMARK    1  A    between atoms: C_1  and  C_2
REMARK    2  A    between atoms: C_2  and  C_4
REMARK    3  A    between atoms: C_2  and  C_28
REMARK    4  A    between atoms: C_8  and  C_9
REMARK    5  A    between atoms: C_14  and  C_15
REMARK    6  A    between atoms: C_14  and  C_25
REMARK    7  A    between atoms: C_26  and  C_27
REMARK    8  A    between atoms: C_28  and  C_29
REMARK    9  A    between atoms: C_29  and  C_30
REMARK   10  A    between atoms: C_30  and  C_31
REMARK   11  A    between atoms: C_31  and  C_32
REMARK   12  A    between atoms: C_31  and  C_33
REMARK   13  A    between atoms: C_33  and  O_34
REMARK   14  A    between atoms: O_34  and  C_35
REMARK   15  A    between atoms: C_35  and  C_36
REMARK                            x       y       z     vdW  Elec       q    Type
REMARK                         _______ _______ _______ _____ _____    ______ ____
ROOT
ATOM      1  C   LIG A   1      -6.208  -0.539 130.863  0.00  0.00    -0.002 C 
ATOM      2  C   LIG A   1      -7.620   0.002 130.605  0.00  0.00    +0.005 C 
ATOM      3  C   LIG A   1      -7.390   1.502 130.525  0.00  0.00    +0.008 C 
ATOM      4  C   LIG A   1      -6.428   1.840 131.696  0.00  0.00    -0.023 C 
ATOM      5  C   LIG A   1      -7.300   2.366 132.863  0.00  0.00    +0.012 C 
ATOM      6  C   LIG A   1      -5.410   2.940 131.234  0.00  0.00    +0.002 C 
ATOM      7  C   LIG A   1      -6.050   4.262 130.785  0.00  0.00    +0.005 C 
ATOM      8  C   LIG A   1      -4.972   5.198 130.249  0.00  0.00    +0.005 C 
ATOM      9  C   LIG A   1      -4.045   5.676 131.379  0.00  0.00    +0.009 C 
ATOM     10  C   LIG A   1      -2.970   6.686 130.883  0.00  0.00    +0.027 C 
ATOM     11  C   LIG A   1      -3.639   8.036 130.526  0.00  0.00    +0.019 C 
ATOM     12  C   LIG A   1      -2.002   6.922 132.039  0.00  0.00    +0.139 C 
ATOM     13  C   LIG A   1      -1.294   5.730 132.621  0.00  0.00    +0.075 C 
ATOM     14  C   LIG A   1      -1.995   4.409 132.373  0.00  0.00    +0.015 C 
ATOM     15  C   LIG A   1      -3.501   4.485 132.209  0.00  0.00    -0.019 C 
ATOM     16  C   LIG A   1      -4.374   4.125 133.391  0.00  0.00    +0.015 C 
ATOM     17  C   LIG A   1      -4.282   3.132 132.252  0.00  0.00    -0.019 C 
ATOM     18  C   LIG A   1      -3.594   1.821 132.627  0.00  0.00    +0.008 C 
ATOM     19  C   LIG A   1      -4.148   0.603 131.888  0.00  0.00    +0.008 C 
ATOM     20  O   LIG A   1      -1.736   8.051 132.461  0.00  0.00    -0.297 OA
ATOM     21  C   LIG A   1      -2.181   6.225 129.647  0.00  0.00    +0.019 C 
ATOM     22  C   LIG A   1      -5.687   0.441 132.002  0.00  0.00    -0.023 C 
ATOM     23  C   LIG A   1      -6.029  -0.096 133.413  0.00  0.00    +0.012 C 
ENDROOT
BRANCH   1  25
ATOM     24  C   LIG A   1      -4.965  -2.764 130.393  0.00  0.00    +0.008 C 
ATOM     25  C   LIG A   1      -6.162  -2.090 131.075  0.00  0.00    -0.010 C 
BRANCH  25  26
ATOM     26  C   LIG A   1      -7.452  -2.835 130.607  0.00  0.00    +0.008 C 
BRANCH  26  27
ATOM     27  C   LIG A   1      -7.284  -3.732 129.371  0.00  0.00    +0.031 C 
BRANCH  27  28
ATOM     28  C   LIG A   1      -8.246  -3.370 128.249  0.00  0.00    -0.071 C 
ATOM     29  C   LIG A   1      -9.309  -4.160 128.007  0.00  0.00    +0.008 C 
BRANCH  28  30
ATOM     30  C   LIG A   1      -7.908  -2.110 127.451  0.00  0.00    +0.049 C 
ATOM     31  C   LIG A   1      -6.418  -2.114 127.061  0.00  0.00    +0.015 C 
BRANCH  30  32
ATOM     32  C   LIG A   1      -8.776  -1.876 126.191  0.00  0.00    +0.239 C 
BRANCH  32  33
ATOM     33  O   LIG A   1      -8.438  -0.625 125.567  0.00  0.00    -0.464 OA
BRANCH  33  34
ATOM     34  C   LIG A   1      -9.278   0.416 125.811  0.00  0.00    +0.304 C 
ATOM     35  C   LIG A   1      -8.700   1.250 126.916  0.00  0.00    +0.136 C 
ATOM     36  O   LIG A   1     -10.353   0.612 125.285  0.00  0.00    -0.251 OA
ENDBRANCH  33  34
ENDBRANCH  32  33
ENDBRANCH  30  32
ENDBRANCH  28  30
ENDBRANCH  27  28
ENDBRANCH  26  27
ENDBRANCH  25  26
ENDBRANCH   1  25
TORSDOF 8
ENDMDL
MODEL 9
REMARK VINA RESULT:      -7.6      5.825      8.568
REMARK  Name = NuBBE_1151
REMARK  15 active torsions:
REMARK  status: ('A' for Active; 'I' for Inactive)
REMARK    1  A    between atoms: C_1  and  C_2
REMARK    2  A    between atoms: C_2  and  C_4
REMARK    3  A    between atoms: C_2  and  C_28
REMARK    4  A    between atoms: C_8  and  C_9
REMARK    5  A    between atoms: C_14  and  C_15
REMARK    6  A    between atoms: C_14  and  C_25
REMARK    7  A    between atoms: C_26  and  C_27
REMARK    8  A    between atoms: C_28  and  C_29
REMARK    9  A    between atoms: C_29  and  C_30
REMARK   10  A    between atoms: C_30  and  C_31
REMARK   11  A    between atoms: C_31  and  C_32
REMARK   12  A    between atoms: C_31  and  C_33
REMARK   13  A    between atoms: C_33  and  O_34
REMARK   14  A    between atoms: O_34  and  C_35
REMARK   15  A    between atoms: C_35  and  C_36
REMARK                            x       y       z     vdW  Elec       q    Type
REMARK                         _______ _______ _______ _____ _____    ______ ____
ROOT
ATOM      1  C   LIG A   1      -5.448   4.530 131.565  0.00  0.00    -0.002 C 
ATOM      2  C   LIG A   1      -5.072   3.440 132.576  0.00  0.00    +0.005 C 
ATOM      3  C   LIG A   1      -4.288   4.214 133.622  0.00  0.00    +0.008 C 
ATOM      4  C   LIG A   1      -3.345   5.155 132.826  0.00  0.00    -0.023 C 
ATOM      5  C   LIG A   1      -1.958   4.467 132.770  0.00  0.00    +0.012 C 
ATOM      6  C   LIG A   1      -3.242   6.536 133.562  0.00  0.00    +0.002 C 
ATOM      7  C   LIG A   1      -2.694   6.462 134.995  0.00  0.00    +0.005 C 
ATOM      8  C   LIG A   1      -2.757   7.843 135.641  0.00  0.00    +0.005 C 
ATOM      9  C   LIG A   1      -1.757   8.806 134.981  0.00  0.00    +0.009 C 
ATOM     10  C   LIG A   1      -1.743  10.208 135.655  0.00  0.00    +0.027 C 
ATOM     11  C   LIG A   1      -1.102  10.112 137.061  0.00  0.00    +0.019 C 
ATOM     12  C   LIG A   1      -0.873  11.118 134.793  0.00  0.00    +0.139 C 
ATOM     13  C   LIG A   1      -1.252  11.294 133.348  0.00  0.00    +0.075 C 
ATOM     14  C   LIG A   1      -2.100  10.171 132.786  0.00  0.00    +0.015 C 
ATOM     15  C   LIG A   1      -1.909   8.814 133.437  0.00  0.00    -0.019 C 
ATOM     16  C   LIG A   1      -1.036   7.795 132.739  0.00  0.00    +0.015 C 
ATOM     17  C   LIG A   1      -2.535   7.586 132.701  0.00  0.00    -0.019 C 
ATOM     18  C   LIG A   1      -3.142   7.713 131.305  0.00  0.00    +0.008 C 
ATOM     19  C   LIG A   1      -4.343   6.796 131.072  0.00  0.00    +0.008 C 
ATOM     20  O   LIG A   1       0.078  11.756 135.252  0.00  0.00    -0.297 OA
ATOM     21  C   LIG A   1      -3.130  10.848 135.827  0.00  0.00    +0.019 C 
ATOM     22  C   LIG A   1      -4.068   5.303 131.392  0.00  0.00    -0.023 C 
ATOM     23  C   LIG A   1      -3.217   4.696 130.251  0.00  0.00    +0.012 C 
ENDROOT
BRANCH   1  25
ATOM     24  C   LIG A   1      -6.904   5.080 129.493  0.00  0.00    +0.008 C 
ATOM     25  C   LIG A   1      -6.208   3.984 130.310  0.00  0.00    -0.010 C 
BRANCH  25  26
ATOM     26  C   LIG A   1      -7.275   2.892 130.637  0.00  0.00    +0.008 C 
BRANCH  26  27
ATOM     27  C   LIG A   1      -8.710   3.406 130.824  0.00  0.00    +0.031 C 
BRANCH  27  28
ATOM     28  C   LIG A   1      -9.282   3.067 132.193  0.00  0.00    -0.071 C 
ATOM     29  C   LIG A   1      -9.751   1.827 132.426  0.00  0.00    +0.008 C 
BRANCH  28  30
ATOM     30  C   LIG A   1      -9.293   4.201 133.219  0.00  0.00    +0.049 C 
ATOM     31  C   LIG A   1      -8.206   3.962 134.284  0.00  0.00    +0.015 C 
BRANCH  30  32
ATOM     32  C   LIG A   1      -9.139   5.624 132.628  0.00  0.00    +0.239 C 
BRANCH  32  33
ATOM     33  O   LIG A   1     -10.349   6.382 132.808  0.00  0.00    -0.464 OA
BRANCH  33  34
ATOM     34  C   LIG A   1     -11.145   6.513 131.714  0.00  0.00    +0.304 C 
ATOM     35  C   LIG A   1     -10.279   6.792 130.521  0.00  0.00    +0.136 C 
ATOM     36  O   LIG A   1     -12.357   6.485 131.697  0.00  0.00    -0.251 OA
ENDBRANCH  33  34
ENDBRANCH  32  33
ENDBRANCH  30  32
ENDBRANCH  28  30
ENDBRANCH  27  28
ENDBRANCH  26  27
ENDBRANCH  25  26
ENDBRANCH   1  25
TORSDOF 8
ENDMDL
