MODEL 1
REMARK VINA RESULT:      -7.7      0.000      0.000
REMARK  Name = NuBBE_2023
REMARK  6 active torsions:
REMARK  status: ('A' for Active; 'I' for Inactive)
REMARK    1  A    between atoms: C_4  and  O_5
REMARK    2  A    between atoms: C_7  and  O_8
REMARK    3  A    between atoms: C_13  and  C_14
REMARK    4  A    between atoms: C_16  and  O_17
REMARK    5  A    between atoms: C_18  and  O_19
REMARK    6  A    between atoms: O_19  and  C_20
REMARK                            x       y       z     vdW  Elec       q    Type
REMARK                         _______ _______ _______ _____ _____    ______ ____
ROOT
ATOM      1  O   LIG A   1      -9.391   5.040 129.073  0.00  0.00    -0.286 OA
ATOM      2  C   LIG A   1     -10.124   5.573 129.906  0.00  0.00    +0.204 A 
ATOM      3  C   LIG A   1     -10.925   6.741 129.502  0.00  0.00    +0.106 A 
ATOM      4  C   LIG A   1     -10.863   7.266 128.205  0.00  0.00    +0.135 A 
ATOM      5  C   LIG A   1     -11.636   8.370 127.850  0.00  0.00    +0.091 A 
ATOM      6  C   LIG A   1     -12.476   8.943 128.802  0.00  0.00    +0.124 A 
ATOM      7  C   LIG A   1     -12.545   8.434 130.095  0.00  0.00    +0.092 A 
ATOM      8  C   LIG A   1     -11.764   7.331 130.442  0.00  0.00    +0.145 A 
ATOM      9  O   LIG A   1     -11.865   6.877 131.731  0.00  0.00    -0.462 OA
ATOM     10  C   LIG A   1     -11.095   5.800 132.095  0.00  0.00    +0.208 A 
ATOM     11  C   LIG A   1     -10.249   5.101 131.318  0.00  0.00    +0.065 A 
ENDROOT
BRANCH  11  12
ATOM     12  C   LIG A   1      -9.486   3.947 131.859  0.00  0.00    -0.008 A 
ATOM     13  C   LIG A   1      -9.876   2.625 131.590  0.00  0.00    +0.058 A 
ATOM     14  C   LIG A   1      -9.171   1.532 132.117  0.00  0.00    +0.159 A 
ATOM     15  C   LIG A   1      -8.039   1.735 132.908  0.00  0.00    +0.161 A 
ATOM     16  C   LIG A   1      -7.651   3.046 133.192  0.00  0.00    +0.050 A 
ATOM     17  C   LIG A   1      -8.362   4.137 132.679  0.00  0.00    +0.012 A 
BRANCH  14  18
ATOM     18  O   LIG A   1      -9.634   0.272 131.856  0.00  0.00    -0.503 OA
ATOM     19  H   LIG A   1      -9.330   0.001 130.974  0.00  0.00    +0.292 HD
ENDBRANCH  14  18
BRANCH  15  20
ATOM     20  O   LIG A   1      -7.258   0.786 133.507  0.00  0.00    -0.491 OA
ATOM     21  C   LIG A   1      -6.058   1.244 134.119  0.00  0.00    +0.277 C 
ENDBRANCH  15  20
ENDBRANCH  11  12
BRANCH   4  22
ATOM     22  O   LIG A   1     -10.058   6.746 127.226  0.00  0.00    -0.506 OA
ATOM     23  H   LIG A   1     -10.627   6.512 126.458  0.00  0.00    +0.292 HD
ENDBRANCH   4  22
BRANCH   6  24
ATOM     24  O   LIG A   1     -13.253  10.022 128.503  0.00  0.00    -0.506 OA
ATOM     25  H   LIG A   1     -12.943  10.411 127.668  0.00  0.00    +0.292 HD
ENDBRANCH   6  24
TORSDOF 5
ENDMDL
MODEL 2
REMARK VINA RESULT:      -7.5      1.639      7.587
REMARK  Name = NuBBE_2023
REMARK  6 active torsions:
REMARK  status: ('A' for Active; 'I' for Inactive)
REMARK    1  A    between atoms: C_4  and  O_5
REMARK    2  A    between atoms: C_7  and  O_8
REMARK    3  A    between atoms: C_13  and  C_14
REMARK    4  A    between atoms: C_16  and  O_17
REMARK    5  A    between atoms: C_18  and  O_19
REMARK    6  A    between atoms: O_19  and  C_20
REMARK                            x       y       z     vdW  Elec       q    Type
REMARK                         _______ _______ _______ _____ _____    ______ ____
ROOT
ATOM      1  O   LIG A   1      -9.397   6.459 132.682  0.00  0.00    -0.286 OA
ATOM      2  C   LIG A   1      -9.688   5.433 132.067  0.00  0.00    +0.204 A 
ATOM      3  C   LIG A   1      -9.050   4.165 132.457  0.00  0.00    +0.106 A 
ATOM      4  C   LIG A   1      -8.111   4.100 133.496  0.00  0.00    +0.135 A 
ATOM      5  C   LIG A   1      -7.527   2.885 133.846  0.00  0.00    +0.091 A 
ATOM      6  C   LIG A   1      -7.889   1.733 133.152  0.00  0.00    +0.124 A 
ATOM      7  C   LIG A   1      -8.817   1.784 132.116  0.00  0.00    +0.092 A 
ATOM      8  C   LIG A   1      -9.394   3.006 131.770  0.00  0.00    +0.145 A 
ATOM      9  O   LIG A   1     -10.294   2.999 130.737  0.00  0.00    -0.462 OA
ATOM     10  C   LIG A   1     -10.864   4.194 130.374  0.00  0.00    +0.208 A 
ATOM     11  C   LIG A   1     -10.663   5.400 130.935  0.00  0.00    +0.065 A 
ENDROOT
BRANCH  11  12
ATOM     12  C   LIG A   1     -11.364   6.608 130.430  0.00  0.00    -0.008 A 
ATOM     13  C   LIG A   1     -10.962   7.239 129.241  0.00  0.00    +0.058 A 
ATOM     14  C   LIG A   1     -11.608   8.393 128.772  0.00  0.00    +0.159 A 
ATOM     15  C   LIG A   1     -12.691   8.932 129.469  0.00  0.00    +0.161 A 
ATOM     16  C   LIG A   1     -13.089   8.320 130.659  0.00  0.00    +0.050 A 
ATOM     17  C   LIG A   1     -12.436   7.177 131.135  0.00  0.00    +0.012 A 
BRANCH  14  18
ATOM     18  O   LIG A   1     -11.135   8.986 127.634  0.00  0.00    -0.503 OA
ATOM     19  H   LIG A   1     -11.206   8.357 126.897  0.00  0.00    +0.292 HD
ENDBRANCH  14  18
BRANCH  15  20
ATOM     20  O   LIG A   1     -13.411  10.053 129.157  0.00  0.00    -0.491 OA
ATOM     21  C   LIG A   1     -13.493  11.055 130.163  0.00  0.00    +0.277 C 
ENDBRANCH  15  20
ENDBRANCH  11  12
BRANCH   4  22
ATOM     22  O   LIG A   1      -7.716   5.197 134.215  0.00  0.00    -0.506 OA
ATOM     23  H   LIG A   1      -7.553   4.909 135.142  0.00  0.00    +0.292 HD
ENDBRANCH   4  22
BRANCH   6  24
ATOM     24  O   LIG A   1      -7.346   0.521 133.458  0.00  0.00    -0.506 OA
ATOM     25  H   LIG A   1      -7.945   0.053 134.064  0.00  0.00    +0.292 HD
ENDBRANCH   6  24
TORSDOF 5
ENDMDL
MODEL 3
REMARK VINA RESULT:      -7.4      1.480      7.397
REMARK  Name = NuBBE_2023
REMARK  6 active torsions:
REMARK  status: ('A' for Active; 'I' for Inactive)
REMARK    1  A    between atoms: C_4  and  O_5
REMARK    2  A    between atoms: C_7  and  O_8
REMARK    3  A    between atoms: C_13  and  C_14
REMARK    4  A    between atoms: C_16  and  O_17
REMARK    5  A    between atoms: C_18  and  O_19
REMARK    6  A    between atoms: O_19  and  C_20
REMARK                            x       y       z     vdW  Elec       q    Type
REMARK                         _______ _______ _______ _____ _____    ______ ____
ROOT
ATOM      1  O   LIG A   1     -10.147   4.097 129.683  0.00  0.00    -0.286 OA
ATOM      2  C   LIG A   1      -9.815   4.420 130.824  0.00  0.00    +0.204 A 
ATOM      3  C   LIG A   1      -9.020   3.476 131.627  0.00  0.00    +0.106 A 
ATOM      4  C   LIG A   1      -8.647   2.218 131.133  0.00  0.00    +0.135 A 
ATOM      5  C   LIG A   1      -7.891   1.348 131.915  0.00  0.00    +0.091 A 
ATOM      6  C   LIG A   1      -7.507   1.744 133.193  0.00  0.00    +0.124 A 
ATOM      7  C   LIG A   1      -7.872   2.989 133.697  0.00  0.00    +0.092 A 
ATOM      8  C   LIG A   1      -8.633   3.853 132.909  0.00  0.00    +0.145 A 
ATOM      9  O   LIG A   1      -8.973   5.061 133.458  0.00  0.00    -0.462 OA
ATOM     10  C   LIG A   1      -9.732   5.920 132.702  0.00  0.00    +0.208 A 
ATOM     11  C   LIG A   1     -10.176   5.729 131.447  0.00  0.00    +0.065 A 
ENDROOT
BRANCH  11  12
ATOM     12  C   LIG A   1     -10.987   6.763 130.755  0.00  0.00    -0.008 A 
ATOM     13  C   LIG A   1     -10.518   7.398 129.592  0.00  0.00    +0.058 A 
ATOM     14  C   LIG A   1     -11.272   8.391 128.947  0.00  0.00    +0.159 A 
ATOM     15  C   LIG A   1     -12.527   8.756 129.435  0.00  0.00    +0.161 A 
ATOM     16  C   LIG A   1     -12.995   8.140 130.598  0.00  0.00    +0.050 A 
ATOM     17  C   LIG A   1     -12.238   7.160 131.250  0.00  0.00    +0.012 A 
BRANCH  14  18
ATOM     18  O   LIG A   1     -10.735   9.004 127.849  0.00  0.00    -0.503 OA
ATOM     19  H   LIG A   1     -10.021   8.448 127.495  0.00  0.00    +0.292 HD
ENDBRANCH  14  18
BRANCH  15  20
ATOM     20  O   LIG A   1     -13.372   9.710 128.938  0.00  0.00    -0.491 OA
ATOM     21  C   LIG A   1     -13.528  10.889 129.717  0.00  0.00    +0.277 C 
ENDBRANCH  15  20
ENDBRANCH  11  12
BRANCH   4  22
ATOM     22  O   LIG A   1      -8.994   1.773 129.885  0.00  0.00    -0.506 OA
ATOM     23  H   LIG A   1      -9.975   1.797 129.817  0.00  0.00    +0.292 HD
ENDBRANCH   4  22
BRANCH   6  24
ATOM     24  O   LIG A   1      -6.765   0.929 133.995  0.00  0.00    -0.506 OA
ATOM     25  H   LIG A   1      -6.952   1.146 134.924  0.00  0.00    +0.292 HD
ENDBRANCH   6  24
TORSDOF 5
ENDMDL
MODEL 4
REMARK VINA RESULT:      -6.6      8.824      9.417
REMARK  Name = NuBBE_2023
REMARK  6 active torsions:
REMARK  status: ('A' for Active; 'I' for Inactive)
REMARK    1  A    between atoms: C_4  and  O_5
REMARK    2  A    between atoms: C_7  and  O_8
REMARK    3  A    between atoms: C_13  and  C_14
REMARK    4  A    between atoms: C_16  and  O_17
REMARK    5  A    between atoms: C_18  and  O_19
REMARK    6  A    between atoms: O_19  and  C_20
REMARK                            x       y       z     vdW  Elec       q    Type
REMARK                         _______ _______ _______ _____ _____    ______ ____
ROOT
ATOM      1  O   LIG A   1      -5.504  -1.995 127.922  0.00  0.00    -0.286 OA
ATOM      2  C   LIG A   1      -6.620  -2.459 127.686  0.00  0.00    +0.204 A 
ATOM      3  C   LIG A   1      -7.205  -2.256 126.350  0.00  0.00    +0.106 A 
ATOM      4  C   LIG A   1      -6.534  -1.538 125.351  0.00  0.00    +0.135 A 
ATOM      5  C   LIG A   1      -7.111  -1.366 124.095  0.00  0.00    +0.091 A 
ATOM      6  C   LIG A   1      -8.363  -1.919 123.843  0.00  0.00    +0.124 A 
ATOM      7  C   LIG A   1      -9.043  -2.632 124.827  0.00  0.00    +0.092 A 
ATOM      8  C   LIG A   1      -8.459  -2.796 126.083  0.00  0.00    +0.145 A 
ATOM      9  O   LIG A   1      -9.176  -3.498 127.016  0.00  0.00    -0.462 OA
ATOM     10  C   LIG A   1      -8.623  -3.659 128.263  0.00  0.00    +0.208 A 
ATOM     11  C   LIG A   1      -7.423  -3.224 128.687  0.00  0.00    +0.065 A 
ENDROOT
BRANCH  11  12
ATOM     12  C   LIG A   1      -6.959  -3.485 130.073  0.00  0.00    -0.008 A 
ATOM     13  C   LIG A   1      -7.476  -2.764 131.163  0.00  0.00    +0.058 A 
ATOM     14  C   LIG A   1      -7.025  -2.992 132.471  0.00  0.00    +0.159 A 
ATOM     15  C   LIG A   1      -6.061  -3.968 132.728  0.00  0.00    +0.161 A 
ATOM     16  C   LIG A   1      -5.530  -4.681 131.650  0.00  0.00    +0.050 A 
ATOM     17  C   LIG A   1      -5.970  -4.444 130.342  0.00  0.00    +0.012 A 
BRANCH  14  18
ATOM     18  O   LIG A   1      -7.534  -2.221 133.479  0.00  0.00    -0.503 OA
ATOM     19  H   LIG A   1      -7.687  -2.780 134.259  0.00  0.00    +0.292 HD
ENDBRANCH  14  18
BRANCH  15  20
ATOM     20  O   LIG A   1      -5.506  -4.298 133.934  0.00  0.00    -0.491 OA
ATOM     21  C   LIG A   1      -5.867  -5.563 134.475  0.00  0.00    +0.277 C 
ENDBRANCH  15  20
ENDBRANCH  11  12
BRANCH   4  22
ATOM     22  O   LIG A   1      -5.300  -0.972 125.539  0.00  0.00    -0.506 OA
ATOM     23  H   LIG A   1      -4.825  -0.989 124.678  0.00  0.00    +0.292 HD
ENDBRANCH   4  22
BRANCH   6  24
ATOM     24  O   LIG A   1      -8.968  -1.780 122.629  0.00  0.00    -0.506 OA
ATOM     25  H   LIG A   1      -9.115  -0.835 122.457  0.00  0.00    +0.292 HD
ENDBRANCH   6  24
TORSDOF 5
ENDMDL
MODEL 5
REMARK VINA RESULT:      -6.6      8.699      9.609
REMARK  Name = NuBBE_2023
REMARK  6 active torsions:
REMARK  status: ('A' for Active; 'I' for Inactive)
REMARK    1  A    between atoms: C_4  and  O_5
REMARK    2  A    between atoms: C_7  and  O_8
REMARK    3  A    between atoms: C_13  and  C_14
REMARK    4  A    between atoms: C_16  and  O_17
REMARK    5  A    between atoms: C_18  and  O_19
REMARK    6  A    between atoms: O_19  and  C_20
REMARK                            x       y       z     vdW  Elec       q    Type
REMARK                         _______ _______ _______ _____ _____    ______ ____
ROOT
ATOM      1  O   LIG A   1      -9.029  -3.434 128.336  0.00  0.00    -0.286 OA
ATOM      2  C   LIG A   1      -7.959  -3.051 127.863  0.00  0.00    +0.204 A 
ATOM      3  C   LIG A   1      -7.886  -2.750 126.424  0.00  0.00    +0.106 A 
ATOM      4  C   LIG A   1      -8.995  -2.902 125.580  0.00  0.00    +0.135 A 
ATOM      5  C   LIG A   1      -8.897  -2.604 124.223  0.00  0.00    +0.091 A 
ATOM      6  C   LIG A   1      -7.684  -2.150 123.714  0.00  0.00    +0.124 A 
ATOM      7  C   LIG A   1      -6.573  -1.997 124.539  0.00  0.00    +0.092 A 
ATOM      8  C   LIG A   1      -6.679  -2.301 125.896  0.00  0.00    +0.145 A 
ATOM      9  O   LIG A   1      -5.553  -2.142 126.660  0.00  0.00    -0.462 OA
ATOM     10  C   LIG A   1      -5.634  -2.448 127.996  0.00  0.00    +0.208 A 
ATOM     11  C   LIG A   1      -6.716  -2.873 128.673  0.00  0.00    +0.065 A 
ENDROOT
BRANCH  11  12
ATOM     12  C   LIG A   1      -6.647  -3.158 130.129  0.00  0.00    -0.008 A 
ATOM     13  C   LIG A   1      -7.332  -2.359 131.060  0.00  0.00    +0.058 A 
ATOM     14  C   LIG A   1      -7.252  -2.611 132.438  0.00  0.00    +0.159 A 
ATOM     15  C   LIG A   1      -6.505  -3.687 132.919  0.00  0.00    +0.161 A 
ATOM     16  C   LIG A   1      -5.810  -4.479 132.003  0.00  0.00    +0.050 A 
ATOM     17  C   LIG A   1      -5.877  -4.220 130.628  0.00  0.00    +0.012 A 
BRANCH  14  18
ATOM     18  O   LIG A   1      -7.902  -1.765 133.293  0.00  0.00    -0.503 OA
ATOM     19  H   LIG A   1      -7.243  -1.259 133.798  0.00  0.00    +0.292 HD
ENDBRANCH  14  18
BRANCH  15  20
ATOM     20  O   LIG A   1      -6.312  -4.055 134.223  0.00  0.00    -0.491 OA
ATOM     21  C   LIG A   1      -6.453  -5.438 134.520  0.00  0.00    +0.277 C 
ENDBRANCH  15  20
ENDBRANCH  11  12
BRANCH   4  22
ATOM     22  O   LIG A   1     -10.214  -3.343 126.022  0.00  0.00    -0.506 OA
ATOM     23  H   LIG A   1     -10.603  -3.913 125.321  0.00  0.00    +0.292 HD
ENDBRANCH   4  22
BRANCH   6  24
ATOM     24  O   LIG A   1      -7.539  -1.844 122.393  0.00  0.00    -0.506 OA
ATOM     25  H   LIG A   1      -8.406  -1.908 121.959  0.00  0.00    +0.292 HD
ENDBRANCH   6  24
TORSDOF 5
ENDMDL
MODEL 6
REMARK VINA RESULT:      -6.5      7.414      9.584
REMARK  Name = NuBBE_2023
REMARK  6 active torsions:
REMARK  status: ('A' for Active; 'I' for Inactive)
REMARK    1  A    between atoms: C_4  and  O_5
REMARK    2  A    between atoms: C_7  and  O_8
REMARK    3  A    between atoms: C_13  and  C_14
REMARK    4  A    between atoms: C_16  and  O_17
REMARK    5  A    between atoms: C_18  and  O_19
REMARK    6  A    between atoms: O_19  and  C_20
REMARK                            x       y       z     vdW  Elec       q    Type
REMARK                         _______ _______ _______ _____ _____    ______ ____
ROOT
ATOM      1  O   LIG A   1      -6.750  -0.106 127.266  0.00  0.00    -0.286 OA
ATOM      2  C   LIG A   1      -7.009   0.055 126.074  0.00  0.00    +0.204 A 
ATOM      3  C   LIG A   1      -7.852  -0.940 125.390  0.00  0.00    +0.106 A 
ATOM      4  C   LIG A   1      -8.351  -2.067 126.055  0.00  0.00    +0.135 A 
ATOM      5  C   LIG A   1      -9.151  -2.989 125.383  0.00  0.00    +0.091 A 
ATOM      6  C   LIG A   1      -9.450  -2.775 124.040  0.00  0.00    +0.124 A 
ATOM      7  C   LIG A   1      -8.958  -1.661 123.366  0.00  0.00    +0.092 A 
ATOM      8  C   LIG A   1      -8.155  -0.745 124.046  0.00  0.00    +0.145 A 
ATOM      9  O   LIG A   1      -7.691   0.327 123.331  0.00  0.00    -0.462 OA
ATOM     10  C   LIG A   1      -6.890   1.234 123.980  0.00  0.00    +0.208 A 
ATOM     11  C   LIG A   1      -6.512   1.213 125.271  0.00  0.00    +0.065 A 
ENDROOT
BRANCH  11  12
ATOM     12  C   LIG A   1      -5.640   2.277 125.832  0.00  0.00    -0.008 A 
ATOM     13  C   LIG A   1      -4.348   1.987 126.302  0.00  0.00    +0.058 A 
ATOM     14  C   LIG A   1      -3.530   2.985 126.852  0.00  0.00    +0.159 A 
ATOM     15  C   LIG A   1      -3.975   4.306 126.924  0.00  0.00    +0.161 A 
ATOM     16  C   LIG A   1      -5.263   4.601 126.473  0.00  0.00    +0.050 A 
ATOM     17  C   LIG A   1      -6.086   3.604 125.937  0.00  0.00    +0.012 A 
BRANCH  14  18
ATOM     18  O   LIG A   1      -2.302   2.626 127.336  0.00  0.00    -0.503 OA
ATOM     19  H   LIG A   1      -2.284   2.780 128.295  0.00  0.00    +0.292 HD
ENDBRANCH  14  18
BRANCH  15  20
ATOM     20  O   LIG A   1      -3.312   5.384 127.445  0.00  0.00    -0.491 OA
ATOM     21  C   LIG A   1      -3.738   5.833 128.726  0.00  0.00    +0.277 C 
ENDBRANCH  15  20
ENDBRANCH  11  12
BRANCH   4  22
ATOM     22  O   LIG A   1      -8.092  -2.331 127.374  0.00  0.00    -0.506 OA
ATOM     23  H   LIG A   1      -8.924  -2.656 127.788  0.00  0.00    +0.292 HD
ENDBRANCH   4  22
BRANCH   6  24
ATOM     24  O   LIG A   1     -10.229  -3.647 123.340  0.00  0.00    -0.506 OA
ATOM     25  H   LIG A   1      -9.780  -3.871 122.508  0.00  0.00    +0.292 HD
ENDBRANCH   6  24
TORSDOF 5
ENDMDL
MODEL 7
REMARK VINA RESULT:      -6.3      8.855      9.542
REMARK  Name = NuBBE_2023
REMARK  6 active torsions:
REMARK  status: ('A' for Active; 'I' for Inactive)
REMARK    1  A    between atoms: C_4  and  O_5
REMARK    2  A    between atoms: C_7  and  O_8
REMARK    3  A    between atoms: C_13  and  C_14
REMARK    4  A    between atoms: C_16  and  O_17
REMARK    5  A    between atoms: C_18  and  O_19
REMARK    6  A    between atoms: O_19  and  C_20
REMARK                            x       y       z     vdW  Elec       q    Type
REMARK                         _______ _______ _______ _____ _____    ______ ____
ROOT
ATOM      1  O   LIG A   1      -5.557  -1.844 127.966  0.00  0.00    -0.286 OA
ATOM      2  C   LIG A   1      -6.614  -2.400 127.664  0.00  0.00    +0.204 A 
ATOM      3  C   LIG A   1      -7.087  -2.318 126.273  0.00  0.00    +0.106 A 
ATOM      4  C   LIG A   1      -6.377  -1.614 125.291  0.00  0.00    +0.135 A 
ATOM      5  C   LIG A   1      -6.848  -1.558 123.981  0.00  0.00    +0.091 A 
ATOM      6  C   LIG A   1      -8.033  -2.214 123.657  0.00  0.00    +0.124 A 
ATOM      7  C   LIG A   1      -8.750  -2.914 124.623  0.00  0.00    +0.092 A 
ATOM      8  C   LIG A   1      -8.273  -2.962 125.933  0.00  0.00    +0.145 A 
ATOM      9  O   LIG A   1      -9.024  -3.657 126.844  0.00  0.00    -0.462 OA
ATOM     10  C   LIG A   1      -8.577  -3.705 128.142  0.00  0.00    +0.208 A 
ATOM     11  C   LIG A   1      -7.452  -3.160 128.639  0.00  0.00    +0.065 A 
ENDROOT
BRANCH  11  12
ATOM     12  C   LIG A   1      -7.099  -3.306 130.075  0.00  0.00    -0.008 A 
ATOM     13  C   LIG A   1      -6.111  -4.212 130.493  0.00  0.00    +0.058 A 
ATOM     14  C   LIG A   1      -5.789  -4.367 131.851  0.00  0.00    +0.159 A 
ATOM     15  C   LIG A   1      -6.433  -3.601 132.823  0.00  0.00    +0.161 A 
ATOM     16  C   LIG A   1      -7.426  -2.707 132.418  0.00  0.00    +0.050 A 
ATOM     17  C   LIG A   1      -7.758  -2.561 131.066  0.00  0.00    +0.012 A 
BRANCH  14  18
ATOM     18  O   LIG A   1      -4.853  -5.303 132.194  0.00  0.00    -0.503 OA
ATOM     19  H   LIG A   1      -4.675  -5.868 131.424  0.00  0.00    +0.292 HD
ENDBRANCH  14  18
BRANCH  15  20
ATOM     20  O   LIG A   1      -6.250  -3.645 134.178  0.00  0.00    -0.491 OA
ATOM     21  C   LIG A   1      -7.117  -4.502 134.909  0.00  0.00    +0.277 C 
ENDBRANCH  15  20
ENDBRANCH  11  12
BRANCH   4  22
ATOM     22  O   LIG A   1      -5.206  -0.950 125.548  0.00  0.00    -0.506 OA
ATOM     23  H   LIG A   1      -4.864  -1.264 126.415  0.00  0.00    +0.292 HD
ENDBRANCH   4  22
BRANCH   6  24
ATOM     24  O   LIG A   1      -8.533  -2.190 122.390  0.00  0.00    -0.506 OA
ATOM     25  H   LIG A   1      -9.190  -2.900 122.298  0.00  0.00    +0.292 HD
ENDBRANCH   6  24
TORSDOF 5
ENDMDL
MODEL 8
REMARK VINA RESULT:      -6.3      7.190      8.757
REMARK  Name = NuBBE_2023
REMARK  6 active torsions:
REMARK  status: ('A' for Active; 'I' for Inactive)
REMARK    1  A    between atoms: C_4  and  O_5
REMARK    2  A    between atoms: C_7  and  O_8
REMARK    3  A    between atoms: C_13  and  C_14
REMARK    4  A    between atoms: C_16  and  O_17
REMARK    5  A    between atoms: C_18  and  O_19
REMARK    6  A    between atoms: O_19  and  C_20
REMARK                            x       y       z     vdW  Elec       q    Type
REMARK                         _______ _______ _______ _____ _____    ______ ____
ROOT
ATOM      1  O   LIG A   1      -4.533   1.474 126.176  0.00  0.00    -0.286 OA
ATOM      2  C   LIG A   1      -5.051   2.591 126.200  0.00  0.00    +0.204 A 
ATOM      3  C   LIG A   1      -4.302   3.707 126.801  0.00  0.00    +0.106 A 
ATOM      4  C   LIG A   1      -3.029   3.528 127.358  0.00  0.00    +0.135 A 
ATOM      5  C   LIG A   1      -2.342   4.605 127.915  0.00  0.00    +0.091 A 
ATOM      6  C   LIG A   1      -2.937   5.864 127.911  0.00  0.00    +0.124 A 
ATOM      7  C   LIG A   1      -4.203   6.056 127.364  0.00  0.00    +0.092 A 
ATOM      8  C   LIG A   1      -4.885   4.971 126.812  0.00  0.00    +0.145 A 
ATOM      9  O   LIG A   1      -6.130   5.215 126.296  0.00  0.00    -0.462 OA
ATOM     10  C   LIG A   1      -6.822   4.157 125.759  0.00  0.00    +0.208 A 
ATOM     11  C   LIG A   1      -6.408   2.882 125.649  0.00  0.00    +0.065 A 
ENDROOT
BRANCH  11  12
ATOM     12  C   LIG A   1      -7.275   1.845 125.033  0.00  0.00    -0.008 A 
ATOM     13  C   LIG A   1      -8.515   1.503 125.597  0.00  0.00    +0.058 A 
ATOM     14  C   LIG A   1      -9.327   0.509 125.029  0.00  0.00    +0.159 A 
ATOM     15  C   LIG A   1      -8.929  -0.152 123.866  0.00  0.00    +0.161 A 
ATOM     16  C   LIG A   1      -7.692   0.171 123.306  0.00  0.00    +0.050 A 
ATOM     17  C   LIG A   1      -6.875   1.153 123.879  0.00  0.00    +0.012 A 
BRANCH  14  18
ATOM     18  O   LIG A   1     -10.499   0.190 125.657  0.00  0.00    -0.503 OA
ATOM     19  H   LIG A   1     -10.759   0.927 126.234  0.00  0.00    +0.292 HD
ENDBRANCH  14  18
BRANCH  15  20
ATOM     20  O   LIG A   1      -9.591  -1.149 123.204  0.00  0.00    -0.491 OA
ATOM     21  C   LIG A   1      -9.028  -2.452 123.289  0.00  0.00    +0.277 C 
ENDBRANCH  15  20
ENDBRANCH  11  12
BRANCH   4  22
ATOM     22  O   LIG A   1      -2.392   2.316 127.391  0.00  0.00    -0.506 OA
ATOM     23  H   LIG A   1      -2.876   1.737 128.022  0.00  0.00    +0.292 HD
ENDBRANCH   4  22
BRANCH   6  24
ATOM     24  O   LIG A   1      -2.306   6.948 128.442  0.00  0.00    -0.506 OA
ATOM     25  H   LIG A   1      -2.315   6.874 129.411  0.00  0.00    +0.292 HD
ENDBRANCH   6  24
TORSDOF 5
ENDMDL
MODEL 9
REMARK VINA RESULT:      -6.3      7.013      8.428
REMARK  Name = NuBBE_2023
REMARK  6 active torsions:
REMARK  status: ('A' for Active; 'I' for Inactive)
REMARK    1  A    between atoms: C_4  and  O_5
REMARK    2  A    between atoms: C_7  and  O_8
REMARK    3  A    between atoms: C_13  and  C_14
REMARK    4  A    between atoms: C_16  and  O_17
REMARK    5  A    between atoms: C_18  and  O_19
REMARK    6  A    between atoms: O_19  and  C_20
REMARK                            x       y       z     vdW  Elec       q    Type
REMARK                         _______ _______ _______ _____ _____    ______ ____
ROOT
ATOM      1  O   LIG A   1      -6.817   4.088 124.439  0.00  0.00    -0.286 OA
ATOM      2  C   LIG A   1      -6.855   2.935 124.870  0.00  0.00    +0.204 A 
ATOM      3  C   LIG A   1      -7.778   1.973 124.245  0.00  0.00    +0.106 A 
ATOM      4  C   LIG A   1      -8.621   2.339 123.187  0.00  0.00    +0.135 A 
ATOM      5  C   LIG A   1      -9.481   1.405 122.613  0.00  0.00    +0.091 A 
ATOM      6  C   LIG A   1      -9.490   0.101 123.101  0.00  0.00    +0.124 A 
ATOM      7  C   LIG A   1      -8.660  -0.275 124.153  0.00  0.00    +0.092 A 
ATOM      8  C   LIG A   1      -7.805   0.667 124.725  0.00  0.00    +0.145 A 
ATOM      9  O   LIG A   1      -7.017   0.245 125.764  0.00  0.00    -0.462 OA
ATOM     10  C   LIG A   1      -6.178   1.161 126.347  0.00  0.00    +0.208 A 
ATOM     11  C   LIG A   1      -6.010   2.451 126.003  0.00  0.00    +0.065 A 
ENDROOT
BRANCH  11  12
ATOM     12  C   LIG A   1      -5.051   3.321 126.732  0.00  0.00    -0.008 A 
ATOM     13  C   LIG A   1      -5.486   4.199 127.739  0.00  0.00    +0.058 A 
ATOM     14  C   LIG A   1      -4.587   5.038 128.415  0.00  0.00    +0.159 A 
ATOM     15  C   LIG A   1      -3.224   5.001 128.118  0.00  0.00    +0.161 A 
ATOM     16  C   LIG A   1      -2.784   4.141 127.109  0.00  0.00    +0.050 A 
ATOM     17  C   LIG A   1      -3.682   3.314 126.424  0.00  0.00    +0.012 A 
BRANCH  14  18
ATOM     18  O   LIG A   1      -5.083   5.904 129.349  0.00  0.00    -0.503 OA
ATOM     19  H   LIG A   1      -5.357   5.400 130.133  0.00  0.00    +0.292 HD
ENDBRANCH  14  18
BRANCH  15  20
ATOM     20  O   LIG A   1      -2.228   5.760 128.668  0.00  0.00    -0.491 OA
ATOM     21  C   LIG A   1      -2.134   7.107 128.220  0.00  0.00    +0.277 C 
ENDBRANCH  15  20
ENDBRANCH  11  12
BRANCH   4  22
ATOM     22  O   LIG A   1      -8.656   3.604 122.664  0.00  0.00    -0.506 OA
ATOM     23  H   LIG A   1      -7.736   3.862 122.432  0.00  0.00    +0.292 HD
ENDBRANCH   4  22
BRANCH   6  24
ATOM     24  O   LIG A   1     -10.312  -0.848 122.571  0.00  0.00    -0.506 OA
ATOM     25  H   LIG A   1      -9.861  -1.709 122.607  0.00  0.00    +0.292 HD
ENDBRANCH   6  24
TORSDOF 5
ENDMDL
