MODEL 1
REMARK VINA RESULT:      -8.2      0.000      0.000
REMARK  Name = NuBBE_683
REMARK  12 active torsions:
REMARK  status: ('A' for Active; 'I' for Inactive)
REMARK    1  A    between atoms: C_3  and  C_5
REMARK    2  A    between atoms: C_10  and  C_11
REMARK    3  A    between atoms: C_12  and  C_13
REMARK    4  A    between atoms: C_13  and  C_15
REMARK    5  A    between atoms: C_13  and  C_16
REMARK    6  A    between atoms: C_16  and  C_17
REMARK    7  A    between atoms: C_22  and  C_23
REMARK    8  A    between atoms: C_23  and  C_24
REMARK    9  A    between atoms: C_24  and  C_26
REMARK   10  A    between atoms: C_24  and  C_27
REMARK   11  A    between atoms: C_27  and  O_29
REMARK   12  A    between atoms: C_27  and  C_30
REMARK                            x       y       z     vdW  Elec       q    Type
REMARK                         _______ _______ _______ _____ _____    ______ ____
ROOT
ATOM      1  O   LIG A   1      -8.853   2.548 133.424  0.00  0.00    -0.286 OA
ATOM      2  C   LIG A   1      -8.719   2.944 132.265  0.00  0.00    +0.222 C 
ATOM      3  C   LIG A   1      -8.448   4.437 131.953  0.00  0.00    +0.200 C 
ATOM      4  O   LIG A   1      -9.132   5.304 132.847  0.00  0.00    -0.442 OA
ATOM      5  C   LIG A   1      -6.952   4.739 132.046  0.00  0.00    +0.070 C 
ATOM      6  C   LIG A   1      -9.041   4.769 130.635  0.00  0.00    +0.031 C 
ATOM      7  C   LIG A   1      -8.666   3.872 129.571  0.00  0.00    +0.027 C 
ATOM      8  C   LIG A   1      -8.233   4.261 128.359  0.00  0.00    +0.204 C 
ATOM      9  O   LIG A   1      -7.967   3.382 127.319  0.00  0.00    -0.463 OA
ATOM     10  C   LIG A   1      -8.349   2.051 127.478  0.00  0.00    +0.128 C 
ATOM     11  C   LIG A   1      -8.722   1.543 128.666  0.00  0.00    +0.056 C 
ATOM     12  C   LIG A   1      -8.709   2.420 129.828  0.00  0.00    +0.011 C 
ATOM     13  C   LIG A   1      -8.783   1.978 131.103  0.00  0.00    +0.096 C 
ATOM     14 CL   LIG A   1      -8.934   0.303 131.523  0.00  0.00    -0.079 Cl
ATOM     15  C   LIG A   1     -10.029   5.664 130.734  0.00  0.00    +0.110 C 
ATOM     16  C   LIG A   1     -10.082   6.005 132.167  0.00  0.00    +0.344 C 
ATOM     17  O   LIG A   1     -10.866   6.767 132.685  0.00  0.00    -0.245 OA
ENDROOT
BRANCH  10  18
ATOM     18  C   LIG A   1      -8.380   1.292 126.252  0.00  0.00    +0.042 C 
ATOM     19  C   LIG A   1      -8.489  -0.045 126.201  0.00  0.00    -0.020 C 
BRANCH  19  20
ATOM     20  C   LIG A   1      -8.506  -0.874 124.938  0.00  0.00    +0.008 C 
ATOM     21  C   LIG A   1      -7.153  -0.844 124.219  0.00  0.00    +0.012 C 
BRANCH  20  22
ATOM     22  C   LIG A   1      -8.962  -2.322 125.192  0.00  0.00    +0.004 C 
ATOM     23  C   LIG A   1      -9.296  -3.075 123.909  0.00  0.00    +0.004 C 
ENDBRANCH  20  22
ENDBRANCH  19  20
ENDBRANCH  10  18
BRANCH  15  24
ATOM     24  C   LIG A   1     -11.008   6.121 129.707  0.00  0.00    +0.176 C 
ATOM     25  O   LIG A   1     -11.899   5.352 129.338  0.00  0.00    -0.291 OA
BRANCH  24  26
ATOM     26  C   LIG A   1     -10.898   7.544 129.132  0.00  0.00    +0.085 C 
ATOM     27  C   LIG A   1     -10.758   7.492 127.609  0.00  0.00    +0.018 C 
BRANCH  26  28
ATOM     28  C   LIG A   1     -12.090   8.432 129.563  0.00  0.00    +0.122 C 
ATOM     29  C   LIG A   1     -13.057   8.712 128.412  0.00  0.00    +0.038 C 
BRANCH  28  30
ATOM     30  O   LIG A   1     -12.844   7.807 130.602  0.00  0.00    -0.391 OA
ATOM     31  H   LIG A   1     -13.348   8.523 131.039  0.00  0.00    +0.210 HD
ENDBRANCH  28  30
ENDBRANCH  26  28
ENDBRANCH  24  26
ENDBRANCH  15  24
TORSDOF 7
ENDMDL
MODEL 2
REMARK VINA RESULT:      -7.8      5.532      8.474
REMARK  Name = NuBBE_683
REMARK  12 active torsions:
REMARK  status: ('A' for Active; 'I' for Inactive)
REMARK    1  A    between atoms: C_3  and  C_5
REMARK    2  A    between atoms: C_10  and  C_11
REMARK    3  A    between atoms: C_12  and  C_13
REMARK    4  A    between atoms: C_13  and  C_15
REMARK    5  A    between atoms: C_13  and  C_16
REMARK    6  A    between atoms: C_16  and  C_17
REMARK    7  A    between atoms: C_22  and  C_23
REMARK    8  A    between atoms: C_23  and  C_24
REMARK    9  A    between atoms: C_24  and  C_26
REMARK   10  A    between atoms: C_24  and  C_27
REMARK   11  A    between atoms: C_27  and  O_29
REMARK   12  A    between atoms: C_27  and  C_30
REMARK                            x       y       z     vdW  Elec       q    Type
REMARK                         _______ _______ _______ _____ _____    ______ ____
ROOT
ATOM      1  O   LIG A   1      -6.808  -2.155 122.115  0.00  0.00    -0.286 OA
ATOM      2  C   LIG A   1      -7.058  -2.083 123.319  0.00  0.00    +0.222 C 
ATOM      3  C   LIG A   1      -8.465  -1.677 123.824  0.00  0.00    +0.200 C 
ATOM      4  O   LIG A   1      -9.075  -0.704 122.988  0.00  0.00    -0.442 OA
ATOM      5  C   LIG A   1      -9.384  -2.898 123.883  0.00  0.00    +0.070 C 
ATOM      6  C   LIG A   1      -8.327  -0.974 125.122  0.00  0.00    +0.031 C 
ATOM      7  C   LIG A   1      -7.536  -1.678 126.099  0.00  0.00    +0.027 C 
ATOM      8  C   LIG A   1      -7.899  -1.877 127.378  0.00  0.00    +0.204 C 
ATOM      9  O   LIG A   1      -7.082  -2.476 128.326  0.00  0.00    -0.463 OA
ATOM     10  C   LIG A   1      -5.750  -2.708 127.983  0.00  0.00    +0.128 C 
ATOM     11  C   LIG A   1      -5.303  -2.614 126.718  0.00  0.00    +0.056 C 
ATOM     12  C   LIG A   1      -6.255  -2.270 125.671  0.00  0.00    +0.011 C 
ATOM     13  C   LIG A   1      -6.005  -2.420 124.351  0.00  0.00    +0.096 C 
ATOM     14 CL   LIG A   1      -4.501  -3.014 123.728  0.00  0.00    -0.079 Cl
ATOM     15  C   LIG A   1      -8.722   0.302 125.052  0.00  0.00    +0.110 C 
ATOM     16  C   LIG A   1      -9.204   0.469 123.670  0.00  0.00    +0.344 C 
ATOM     17  O   LIG A   1      -9.625   1.495 123.185  0.00  0.00    -0.245 OA
ENDROOT
BRANCH  10  18
ATOM     18  C   LIG A   1      -4.888  -2.984 129.105  0.00  0.00    +0.042 C 
ATOM     19  C   LIG A   1      -5.235  -3.763 130.143  0.00  0.00    -0.020 C 
BRANCH  19  20
ATOM     20  C   LIG A   1      -4.366  -4.059 131.343  0.00  0.00    +0.008 C 
ATOM     21  C   LIG A   1      -3.977  -2.780 132.093  0.00  0.00    +0.012 C 
BRANCH  20  22
ATOM     22  C   LIG A   1      -5.009  -5.082 132.296  0.00  0.00    +0.004 C 
ATOM     23  C   LIG A   1      -6.012  -4.454 133.257  0.00  0.00    +0.004 C 
ENDBRANCH  20  22
ENDBRANCH  19  20
ENDBRANCH  10  18
BRANCH  15  24
ATOM     24  C   LIG A   1      -8.572   1.402 126.047  0.00  0.00    +0.176 C 
ATOM     25  O   LIG A   1      -9.436   1.552 126.916  0.00  0.00    -0.291 OA
BRANCH  24  26
ATOM     26  C   LIG A   1      -7.340   2.322 125.983  0.00  0.00    +0.085 C 
ATOM     27  C   LIG A   1      -6.147   1.571 125.386  0.00  0.00    +0.018 C 
BRANCH  26  28
ATOM     28  C   LIG A   1      -7.637   3.626 125.203  0.00  0.00    +0.122 C 
ATOM     29  C   LIG A   1      -6.951   3.661 123.837  0.00  0.00    +0.038 C 
BRANCH  28  30
ATOM     30  O   LIG A   1      -9.038   3.777 124.974  0.00  0.00    -0.391 OA
ATOM     31  H   LIG A   1      -9.367   4.366 125.683  0.00  0.00    +0.210 HD
ENDBRANCH  28  30
ENDBRANCH  26  28
ENDBRANCH  24  26
ENDBRANCH  15  24
TORSDOF 7
ENDMDL
MODEL 3
REMARK VINA RESULT:      -7.7      3.097      7.040
REMARK  Name = NuBBE_683
REMARK  12 active torsions:
REMARK  status: ('A' for Active; 'I' for Inactive)
REMARK    1  A    between atoms: C_3  and  C_5
REMARK    2  A    between atoms: C_10  and  C_11
REMARK    3  A    between atoms: C_12  and  C_13
REMARK    4  A    between atoms: C_13  and  C_15
REMARK    5  A    between atoms: C_13  and  C_16
REMARK    6  A    between atoms: C_16  and  C_17
REMARK    7  A    between atoms: C_22  and  C_23
REMARK    8  A    between atoms: C_23  and  C_24
REMARK    9  A    between atoms: C_24  and  C_26
REMARK   10  A    between atoms: C_24  and  C_27
REMARK   11  A    between atoms: C_27  and  O_29
REMARK   12  A    between atoms: C_27  and  C_30
REMARK                            x       y       z     vdW  Elec       q    Type
REMARK                         _______ _______ _______ _____ _____    ______ ____
ROOT
ATOM      1  O   LIG A   1      -4.028   5.896 132.855  0.00  0.00    -0.286 OA
ATOM      2  C   LIG A   1      -5.256   5.805 132.853  0.00  0.00    +0.222 C 
ATOM      3  C   LIG A   1      -6.008   5.054 133.980  0.00  0.00    +0.200 C 
ATOM      4  O   LIG A   1      -5.287   3.920 134.441  0.00  0.00    -0.442 OA
ATOM      5  C   LIG A   1      -6.251   5.982 135.171  0.00  0.00    +0.070 C 
ATOM      6  C   LIG A   1      -7.249   4.466 133.421  0.00  0.00    +0.031 C 
ATOM      7  C   LIG A   1      -8.072   5.395 132.690  0.00  0.00    +0.027 C 
ATOM      8  C   LIG A   1      -9.398   5.538 132.855  0.00  0.00    +0.204 C 
ATOM      9  O   LIG A   1     -10.185   6.373 132.074  0.00  0.00    -0.463 OA
ATOM     10  C   LIG A   1      -9.604   6.944 130.943  0.00  0.00    +0.128 C 
ATOM     11  C   LIG A   1      -8.278   6.925 130.724  0.00  0.00    +0.056 C 
ATOM     12  C   LIG A   1      -7.421   6.295 131.719  0.00  0.00    +0.011 C 
ATOM     13  C   LIG A   1      -6.080   6.455 131.763  0.00  0.00    +0.096 C 
ATOM     14 CL   LIG A   1      -5.195   7.409 130.618  0.00  0.00    -0.079 Cl
ATOM     15  C   LIG A   1      -7.238   3.128 133.458  0.00  0.00    +0.110 C 
ATOM     16  C   LIG A   1      -5.967   2.784 134.119  0.00  0.00    +0.344 C 
ATOM     17  O   LIG A   1      -5.556   1.664 134.324  0.00  0.00    -0.245 OA
ENDROOT
BRANCH  10  18
ATOM     18  C   LIG A   1     -10.551   7.486 130.000  0.00  0.00    +0.042 C 
ATOM     19  C   LIG A   1     -10.239   7.831 128.740  0.00  0.00    -0.020 C 
BRANCH  19  20
ATOM     20  C   LIG A   1     -11.198   8.419 127.732  0.00  0.00    +0.008 C 
ATOM     21  C   LIG A   1     -11.307   7.549 126.474  0.00  0.00    +0.012 C 
BRANCH  20  22
ATOM     22  C   LIG A   1     -12.589   8.693 128.333  0.00  0.00    +0.004 C 
ATOM     23  C   LIG A   1     -13.654   7.721 127.838  0.00  0.00    +0.004 C 
ENDBRANCH  20  22
ENDBRANCH  19  20
ENDBRANCH  10  18
BRANCH  15  24
ATOM     24  C   LIG A   1      -8.175   2.151 132.835  0.00  0.00    +0.176 C 
ATOM     25  O   LIG A   1      -9.350   2.118 133.209  0.00  0.00    -0.291 OA
BRANCH  24  26
ATOM     26  C   LIG A   1      -7.665   1.208 131.731  0.00  0.00    +0.085 C 
ATOM     27  C   LIG A   1      -8.438  -0.113 131.761  0.00  0.00    +0.018 C 
BRANCH  26  28
ATOM     28  C   LIG A   1      -7.729   1.872 130.334  0.00  0.00    +0.122 C 
ATOM     29  C   LIG A   1      -8.034   0.867 129.222  0.00  0.00    +0.038 C 
BRANCH  28  30
ATOM     30  O   LIG A   1      -8.747   2.871 130.289  0.00  0.00    -0.391 OA
ATOM     31  H   LIG A   1      -8.480   3.559 130.932  0.00  0.00    +0.210 HD
ENDBRANCH  28  30
ENDBRANCH  26  28
ENDBRANCH  24  26
ENDBRANCH  15  24
TORSDOF 7
ENDMDL
MODEL 4
REMARK VINA RESULT:      -7.7      4.555      8.608
REMARK  Name = NuBBE_683
REMARK  12 active torsions:
REMARK  status: ('A' for Active; 'I' for Inactive)
REMARK    1  A    between atoms: C_3  and  C_5
REMARK    2  A    between atoms: C_10  and  C_11
REMARK    3  A    between atoms: C_12  and  C_13
REMARK    4  A    between atoms: C_13  and  C_15
REMARK    5  A    between atoms: C_13  and  C_16
REMARK    6  A    between atoms: C_16  and  C_17
REMARK    7  A    between atoms: C_22  and  C_23
REMARK    8  A    between atoms: C_23  and  C_24
REMARK    9  A    between atoms: C_24  and  C_26
REMARK   10  A    between atoms: C_24  and  C_27
REMARK   11  A    between atoms: C_27  and  O_29
REMARK   12  A    between atoms: C_27  and  C_30
REMARK                            x       y       z     vdW  Elec       q    Type
REMARK                         _______ _______ _______ _____ _____    ______ ____
ROOT
ATOM      1  O   LIG A   1      -9.009   2.224 128.673  0.00  0.00    -0.286 OA
ATOM      2  C   LIG A   1      -8.362   1.213 128.395  0.00  0.00    +0.222 C 
ATOM      3  C   LIG A   1      -7.875   0.943 126.950  0.00  0.00    +0.200 C 
ATOM      4  O   LIG A   1      -8.809   1.388 125.977  0.00  0.00    -0.442 OA
ATOM      5  C   LIG A   1      -6.545   1.654 126.693  0.00  0.00    +0.070 C 
ATOM      6  C   LIG A   1      -7.819  -0.521 126.725  0.00  0.00    +0.031 C 
ATOM      7  C   LIG A   1      -7.092  -1.251 127.732  0.00  0.00    +0.027 C 
ATOM      8  C   LIG A   1      -6.154  -2.179 127.478  0.00  0.00    +0.204 C 
ATOM      9  O   LIG A   1      -5.533  -2.936 128.461  0.00  0.00    -0.463 OA
ATOM     10  C   LIG A   1      -6.043  -2.864 129.756  0.00  0.00    +0.128 C 
ATOM     11  C   LIG A   1      -6.926  -1.922 130.134  0.00  0.00    +0.056 C 
ATOM     12  C   LIG A   1      -7.347  -0.935 129.150  0.00  0.00    +0.011 C 
ATOM     13  C   LIG A   1      -7.992   0.210 129.465  0.00  0.00    +0.096 C 
ATOM     14 CL   LIG A   1      -8.432   0.641 131.086  0.00  0.00    -0.079 Cl
ATOM     15  C   LIG A   1      -8.686  -0.924 125.789  0.00  0.00    +0.110 C 
ATOM     16  C   LIG A   1      -9.322   0.316 125.311  0.00  0.00    +0.344 C 
ATOM     17  O   LIG A   1     -10.194   0.387 124.475  0.00  0.00    -0.245 OA
ENDROOT
BRANCH  10  18
ATOM     18  C   LIG A   1      -5.601  -3.924 130.628  0.00  0.00    +0.042 C 
ATOM     19  C   LIG A   1      -5.937  -4.017 131.925  0.00  0.00    -0.020 C 
BRANCH  19  20
ATOM     20  C   LIG A   1      -5.478  -5.102 132.871  0.00  0.00    +0.008 C 
ATOM     21  C   LIG A   1      -3.977  -5.005 133.164  0.00  0.00    +0.012 C 
BRANCH  20  22
ATOM     22  C   LIG A   1      -6.293  -5.126 134.177  0.00  0.00    +0.004 C 
ATOM     23  C   LIG A   1      -7.313  -3.996 134.263  0.00  0.00    +0.004 C 
ENDBRANCH  20  22
ENDBRANCH  19  20
ENDBRANCH  10  18
BRANCH  15  24
ATOM     24  C   LIG A   1      -9.093  -2.304 125.399  0.00  0.00    +0.176 C 
ATOM     25  O   LIG A   1      -9.978  -2.877 126.041  0.00  0.00    -0.291 OA
BRANCH  24  26
ATOM     26  C   LIG A   1      -8.414  -2.986 124.199  0.00  0.00    +0.085 C 
ATOM     27  C   LIG A   1      -9.402  -3.128 123.039  0.00  0.00    +0.018 C 
BRANCH  26  28
ATOM     28  C   LIG A   1      -7.131  -2.237 123.763  0.00  0.00    +0.122 C 
ATOM     29  C   LIG A   1      -5.875  -3.099 123.899  0.00  0.00    +0.038 C 
BRANCH  28  30
ATOM     30  O   LIG A   1      -7.215  -1.830 122.397  0.00  0.00    -0.391 OA
ATOM     31  H   LIG A   1      -7.571  -2.600 121.907  0.00  0.00    +0.210 HD
ENDBRANCH  28  30
ENDBRANCH  26  28
ENDBRANCH  24  26
ENDBRANCH  15  24
TORSDOF 7
ENDMDL
MODEL 5
REMARK VINA RESULT:      -7.6      4.902      8.358
REMARK  Name = NuBBE_683
REMARK  12 active torsions:
REMARK  status: ('A' for Active; 'I' for Inactive)
REMARK    1  A    between atoms: C_3  and  C_5
REMARK    2  A    between atoms: C_10  and  C_11
REMARK    3  A    between atoms: C_12  and  C_13
REMARK    4  A    between atoms: C_13  and  C_15
REMARK    5  A    between atoms: C_13  and  C_16
REMARK    6  A    between atoms: C_16  and  C_17
REMARK    7  A    between atoms: C_22  and  C_23
REMARK    8  A    between atoms: C_23  and  C_24
REMARK    9  A    between atoms: C_24  and  C_26
REMARK   10  A    between atoms: C_24  and  C_27
REMARK   11  A    between atoms: C_27  and  O_29
REMARK   12  A    between atoms: C_27  and  C_30
REMARK                            x       y       z     vdW  Elec       q    Type
REMARK                         _______ _______ _______ _____ _____    ______ ____
ROOT
ATOM      1  O   LIG A   1      -8.612   4.586 125.610  0.00  0.00    -0.286 OA
ATOM      2  C   LIG A   1      -8.000   3.517 125.645  0.00  0.00    +0.222 C 
ATOM      3  C   LIG A   1      -7.566   2.796 124.345  0.00  0.00    +0.200 C 
ATOM      4  O   LIG A   1      -8.520   2.948 123.304  0.00  0.00    -0.442 OA
ATOM      5  C   LIG A   1      -6.228   3.347 123.850  0.00  0.00    +0.070 C 
ATOM      6  C   LIG A   1      -7.554   1.333 124.586  0.00  0.00    +0.031 C 
ATOM      7  C   LIG A   1      -6.813   0.928 125.753  0.00  0.00    +0.027 C 
ATOM      8  C   LIG A   1      -5.907  -0.065 125.779  0.00  0.00    +0.204 C 
ATOM      9  O   LIG A   1      -5.274  -0.499 126.934  0.00  0.00    -0.463 OA
ATOM     10  C   LIG A   1      -5.740  -0.012 128.154  0.00  0.00    +0.128 C 
ATOM     11  C   LIG A   1      -6.587   1.030 128.240  0.00  0.00    +0.056 C 
ATOM     12  C   LIG A   1      -7.015   1.677 127.008  0.00  0.00    +0.011 C 
ATOM     13  C   LIG A   1      -7.621   2.884 126.966  0.00  0.00    +0.096 C 
ATOM     14 CL   LIG A   1      -7.997   3.811 128.381  0.00  0.00    -0.079 Cl
ATOM     15  C   LIG A   1      -8.460   0.689 123.842  0.00  0.00    +0.110 C 
ATOM     16  C   LIG A   1      -9.080   1.740 123.016  0.00  0.00    +0.344 C 
ATOM     17  O   LIG A   1      -9.977   1.578 122.220  0.00  0.00    -0.245 OA
ENDROOT
BRANCH  10  18
ATOM     18  C   LIG A   1      -5.297  -0.763 129.302  0.00  0.00    +0.042 C 
ATOM     19  C   LIG A   1      -5.462  -2.089 129.438  0.00  0.00    -0.020 C 
BRANCH  19  20
ATOM     20  C   LIG A   1      -5.029  -2.906 130.633  0.00  0.00    +0.008 C 
ATOM     21  C   LIG A   1      -5.957  -4.101 130.873  0.00  0.00    +0.012 C 
BRANCH  20  22
ATOM     22  C   LIG A   1      -3.561  -3.360 130.533  0.00  0.00    +0.004 C 
ATOM     23  C   LIG A   1      -3.151  -3.743 129.115  0.00  0.00    +0.004 C 
ENDBRANCH  20  22
ENDBRANCH  19  20
ENDBRANCH  10  18
BRANCH  15  24
ATOM     24  C   LIG A   1      -8.914  -0.729 123.910  0.00  0.00    +0.176 C 
ATOM     25  O   LIG A   1      -9.684  -1.074 124.810  0.00  0.00    -0.291 OA
BRANCH  24  26
ATOM     26  C   LIG A   1      -8.425  -1.735 122.853  0.00  0.00    +0.085 C 
ATOM     27  C   LIG A   1      -6.922  -1.569 122.617  0.00  0.00    +0.018 C 
BRANCH  26  28
ATOM     28  C   LIG A   1      -8.782  -3.192 123.237  0.00  0.00    +0.122 C 
ATOM     29  C   LIG A   1      -8.107  -3.637 124.536  0.00  0.00    +0.038 C 
BRANCH  28  30
ATOM     30  O   LIG A   1     -10.189  -3.341 123.422  0.00  0.00    -0.391 OA
ATOM     31  H   LIG A   1     -10.438  -2.710 124.128  0.00  0.00    +0.210 HD
ENDBRANCH  28  30
ENDBRANCH  26  28
ENDBRANCH  24  26
ENDBRANCH  15  24
TORSDOF 7
ENDMDL
MODEL 6
REMARK VINA RESULT:      -7.5      3.683      8.046
REMARK  Name = NuBBE_683
REMARK  12 active torsions:
REMARK  status: ('A' for Active; 'I' for Inactive)
REMARK    1  A    between atoms: C_3  and  C_5
REMARK    2  A    between atoms: C_10  and  C_11
REMARK    3  A    between atoms: C_12  and  C_13
REMARK    4  A    between atoms: C_13  and  C_15
REMARK    5  A    between atoms: C_13  and  C_16
REMARK    6  A    between atoms: C_16  and  C_17
REMARK    7  A    between atoms: C_22  and  C_23
REMARK    8  A    between atoms: C_23  and  C_24
REMARK    9  A    between atoms: C_24  and  C_26
REMARK   10  A    between atoms: C_24  and  C_27
REMARK   11  A    between atoms: C_27  and  O_29
REMARK   12  A    between atoms: C_27  and  C_30
REMARK                            x       y       z     vdW  Elec       q    Type
REMARK                         _______ _______ _______ _____ _____    ______ ____
ROOT
ATOM      1  O   LIG A   1      -4.485   3.902 129.845  0.00  0.00    -0.286 OA
ATOM      2  C   LIG A   1      -5.420   4.052 130.632  0.00  0.00    +0.222 C 
ATOM      3  C   LIG A   1      -6.841   3.532 130.301  0.00  0.00    +0.200 C 
ATOM      4  O   LIG A   1      -7.147   3.654 128.919  0.00  0.00    -0.442 OA
ATOM      5  C   LIG A   1      -6.975   2.059 130.691  0.00  0.00    +0.070 C 
ATOM      6  C   LIG A   1      -7.841   4.412 130.952  0.00  0.00    +0.031 C 
ATOM      7  C   LIG A   1      -7.613   4.635 132.357  0.00  0.00    +0.027 C 
ATOM      8  C   LIG A   1      -8.555   4.530 133.310  0.00  0.00    +0.204 C 
ATOM      9  O   LIG A   1      -8.336   4.840 134.645  0.00  0.00    -0.463 OA
ATOM     10  C   LIG A   1      -7.138   5.470 134.979  0.00  0.00    +0.128 C 
ATOM     11  C   LIG A   1      -6.105   5.557 134.123  0.00  0.00    +0.056 C 
ATOM     12  C   LIG A   1      -6.245   4.954 132.805  0.00  0.00    +0.011 C 
ATOM     13  C   LIG A   1      -5.207   4.723 131.971  0.00  0.00    +0.096 C 
ATOM     14 CL   LIG A   1      -3.569   5.145 132.349  0.00  0.00    -0.079 Cl
ATOM     15  C   LIG A   1      -8.601   5.061 130.062  0.00  0.00    +0.110 C 
ATOM     16  C   LIG A   1      -8.147   4.565 128.751  0.00  0.00    +0.344 C 
ATOM     17  O   LIG A   1      -8.565   4.925 127.674  0.00  0.00    -0.245 OA
ENDROOT
BRANCH  10  18
ATOM     18  C   LIG A   1      -7.133   6.080 136.285  0.00  0.00    +0.042 C 
ATOM     19  C   LIG A   1      -8.238   6.503 136.919  0.00  0.00    -0.020 C 
BRANCH  19  20
ATOM     20  C   LIG A   1      -8.269   7.163 138.278  0.00  0.00    +0.008 C 
ATOM     21  C   LIG A   1      -6.997   6.871 139.082  0.00  0.00    +0.012 C 
BRANCH  20  22
ATOM     22  C   LIG A   1      -8.529   8.677 138.190  0.00  0.00    +0.004 C 
ATOM     23  C   LIG A   1      -9.960   9.014 137.786  0.00  0.00    +0.004 C 
ENDBRANCH  20  22
ENDBRANCH  19  20
ENDBRANCH  10  18
BRANCH  15  24
ATOM     24  C   LIG A   1      -9.575   6.170 130.270  0.00  0.00    +0.176 C 
ATOM     25  O   LIG A   1      -9.195   7.338 130.147  0.00  0.00    -0.291 OA
BRANCH  24  26
ATOM     26  C   LIG A   1     -11.036   5.842 130.622  0.00  0.00    +0.085 C 
ATOM     27  C   LIG A   1     -11.438   6.539 131.924  0.00  0.00    +0.018 C 
BRANCH  26  28
ATOM     28  C   LIG A   1     -12.001   6.201 129.465  0.00  0.00    +0.122 C 
ATOM     29  C   LIG A   1     -12.828   7.453 129.760  0.00  0.00    +0.038 C 
BRANCH  28  30
ATOM     30  O   LIG A   1     -11.281   6.446 128.258  0.00  0.00    -0.391 OA
ATOM     31  H   LIG A   1     -11.892   6.219 127.527  0.00  0.00    +0.210 HD
ENDBRANCH  28  30
ENDBRANCH  26  28
ENDBRANCH  24  26
ENDBRANCH  15  24
TORSDOF 7
ENDMDL
MODEL 7
REMARK VINA RESULT:      -7.4      4.754      8.350
REMARK  Name = NuBBE_683
REMARK  12 active torsions:
REMARK  status: ('A' for Active; 'I' for Inactive)
REMARK    1  A    between atoms: C_3  and  C_5
REMARK    2  A    between atoms: C_10  and  C_11
REMARK    3  A    between atoms: C_12  and  C_13
REMARK    4  A    between atoms: C_13  and  C_15
REMARK    5  A    between atoms: C_13  and  C_16
REMARK    6  A    between atoms: C_16  and  C_17
REMARK    7  A    between atoms: C_22  and  C_23
REMARK    8  A    between atoms: C_23  and  C_24
REMARK    9  A    between atoms: C_24  and  C_26
REMARK   10  A    between atoms: C_24  and  C_27
REMARK   11  A    between atoms: C_27  and  O_29
REMARK   12  A    between atoms: C_27  and  C_30
REMARK                            x       y       z     vdW  Elec       q    Type
REMARK                         _______ _______ _______ _____ _____    ______ ____
ROOT
ATOM      1  O   LIG A   1      -8.156   3.727 126.902  0.00  0.00    -0.286 OA
ATOM      2  C   LIG A   1      -7.559   2.658 126.770  0.00  0.00    +0.222 C 
ATOM      3  C   LIG A   1      -6.575   2.426 125.596  0.00  0.00    +0.200 C 
ATOM      4  O   LIG A   1      -7.005   3.066 124.403  0.00  0.00    -0.442 OA
ATOM      5  C   LIG A   1      -5.187   2.960 125.950  0.00  0.00    +0.070 C 
ATOM      6  C   LIG A   1      -6.585   0.988 125.235  0.00  0.00    +0.031 C 
ATOM      7  C   LIG A   1      -6.388   0.094 126.347  0.00  0.00    +0.027 C 
ATOM      8  C   LIG A   1      -5.525  -0.936 126.357  0.00  0.00    +0.204 C 
ATOM      9  O   LIG A   1      -5.418  -1.841 127.404  0.00  0.00    -0.463 OA
ATOM     10  C   LIG A   1      -6.384  -1.791 128.408  0.00  0.00    +0.128 C 
ATOM     11  C   LIG A   1      -7.243  -0.764 128.533  0.00  0.00    +0.056 C 
ATOM     12  C   LIG A   1      -7.144   0.340 127.590  0.00  0.00    +0.011 C 
ATOM     13  C   LIG A   1      -7.741   1.539 127.772  0.00  0.00    +0.096 C 
ATOM     14 CL   LIG A   1      -8.733   1.911 129.144  0.00  0.00    -0.079 Cl
ATOM     15  C   LIG A   1      -7.053   0.778 123.999  0.00  0.00    +0.110 C 
ATOM     16  C   LIG A   1      -7.322   2.126 123.468  0.00  0.00    +0.344 C 
ATOM     17  O   LIG A   1      -7.786   2.379 122.380  0.00  0.00    -0.245 OA
ENDROOT
BRANCH  10  18
ATOM     18  C   LIG A   1      -6.428  -2.962 129.248  0.00  0.00    +0.042 C 
ATOM     19  C   LIG A   1      -6.391  -2.924 130.590  0.00  0.00    -0.020 C 
BRANCH  19  20
ATOM     20  C   LIG A   1      -6.416  -4.129 131.500  0.00  0.00    +0.008 C 
ATOM     21  C   LIG A   1      -5.452  -5.222 131.025  0.00  0.00    +0.012 C 
BRANCH  20  22
ATOM     22  C   LIG A   1      -6.149  -3.761 132.970  0.00  0.00    +0.004 C 
ATOM     23  C   LIG A   1      -6.055  -4.979 133.882  0.00  0.00    +0.004 C 
ENDBRANCH  20  22
ENDBRANCH  19  20
ENDBRANCH  10  18
BRANCH  15  24
ATOM     24  C   LIG A   1      -7.413  -0.499 123.322  0.00  0.00    +0.176 C 
ATOM     25  O   LIG A   1      -6.590  -1.042 122.579  0.00  0.00    -0.291 OA
BRANCH  24  26
ATOM     26  C   LIG A   1      -8.797  -1.125 123.566  0.00  0.00    +0.085 C 
ATOM     27  C   LIG A   1      -9.818  -0.564 122.573  0.00  0.00    +0.018 C 
BRANCH  26  28
ATOM     28  C   LIG A   1      -8.746  -2.672 123.514  0.00  0.00    +0.122 C 
ATOM     29  C   LIG A   1      -8.106  -3.279 124.764  0.00  0.00    +0.038 C 
BRANCH  28  30
ATOM     30  O   LIG A   1     -10.058  -3.223 123.405  0.00  0.00    -0.391 OA
ATOM     31  H   LIG A   1     -10.483  -3.089 124.277  0.00  0.00    +0.210 HD
ENDBRANCH  28  30
ENDBRANCH  26  28
ENDBRANCH  24  26
ENDBRANCH  15  24
TORSDOF 7
ENDMDL
MODEL 8
REMARK VINA RESULT:      -7.4      5.923      9.178
REMARK  Name = NuBBE_683
REMARK  12 active torsions:
REMARK  status: ('A' for Active; 'I' for Inactive)
REMARK    1  A    between atoms: C_3  and  C_5
REMARK    2  A    between atoms: C_10  and  C_11
REMARK    3  A    between atoms: C_12  and  C_13
REMARK    4  A    between atoms: C_13  and  C_15
REMARK    5  A    between atoms: C_13  and  C_16
REMARK    6  A    between atoms: C_16  and  C_17
REMARK    7  A    between atoms: C_22  and  C_23
REMARK    8  A    between atoms: C_23  and  C_24
REMARK    9  A    between atoms: C_24  and  C_26
REMARK   10  A    between atoms: C_24  and  C_27
REMARK   11  A    between atoms: C_27  and  O_29
REMARK   12  A    between atoms: C_27  and  C_30
REMARK                            x       y       z     vdW  Elec       q    Type
REMARK                         _______ _______ _______ _____ _____    ______ ____
ROOT
ATOM      1  O   LIG A   1      -9.386   0.268 122.983  0.00  0.00    -0.286 OA
ATOM      2  C   LIG A   1      -8.384   0.321 123.696  0.00  0.00    +0.222 C 
ATOM      3  C   LIG A   1      -7.632  -0.963 124.124  0.00  0.00    +0.200 C 
ATOM      4  O   LIG A   1      -8.516  -2.051 124.351  0.00  0.00    -0.442 OA
ATOM      5  C   LIG A   1      -6.631  -1.380 123.045  0.00  0.00    +0.070 C 
ATOM      6  C   LIG A   1      -7.015  -0.741 125.454  0.00  0.00    +0.031 C 
ATOM      7  C   LIG A   1      -6.223   0.458 125.549  0.00  0.00    +0.027 C 
ATOM      8  C   LIG A   1      -4.985   0.519 126.070  0.00  0.00    +0.204 C 
ATOM      9  O   LIG A   1      -4.277   1.700 126.238  0.00  0.00    -0.463 OA
ATOM     10  C   LIG A   1      -4.956   2.900 126.033  0.00  0.00    +0.128 C 
ATOM     11  C   LIG A   1      -6.165   2.955 125.446  0.00  0.00    +0.056 C 
ATOM     12  C   LIG A   1      -6.774   1.710 124.998  0.00  0.00    +0.011 C 
ATOM     13  C   LIG A   1      -7.830   1.652 124.156  0.00  0.00    +0.096 C 
ATOM     14 CL   LIG A   1      -8.621   3.057 123.521  0.00  0.00    -0.079 Cl
ATOM     15  C   LIG A   1      -7.534  -1.540 126.393  0.00  0.00    +0.110 C 
ATOM     16  C   LIG A   1      -8.503  -2.384 125.672  0.00  0.00    +0.344 C 
ATOM     17  O   LIG A   1      -9.213  -3.228 126.169  0.00  0.00    -0.245 OA
ENDROOT
BRANCH  10  18
ATOM     18  C   LIG A   1      -4.287   4.060 126.567  0.00  0.00    +0.042 C 
ATOM     19  C   LIG A   1      -3.523   4.041 127.672  0.00  0.00    -0.020 C 
BRANCH  19  20
ATOM     20  C   LIG A   1      -2.822   5.238 128.271  0.00  0.00    +0.008 C 
ATOM     21  C   LIG A   1      -3.524   6.551 127.905  0.00  0.00    +0.012 C 
BRANCH  20  22
ATOM     22  C   LIG A   1      -2.647   5.114 129.795  0.00  0.00    +0.004 C 
ATOM     23  C   LIG A   1      -3.556   4.059 130.416  0.00  0.00    +0.004 C 
ENDBRANCH  20  22
ENDBRANCH  19  20
ENDBRANCH  10  18
BRANCH  15  24
ATOM     24  C   LIG A   1      -7.350  -1.514 127.872  0.00  0.00    +0.176 C 
ATOM     25  O   LIG A   1      -7.892  -0.623 128.532  0.00  0.00    -0.291 OA
BRANCH  24  26
ATOM     26  C   LIG A   1      -6.500  -2.602 128.551  0.00  0.00    +0.085 C 
ATOM     27  C   LIG A   1      -5.326  -1.968 129.301  0.00  0.00    +0.018 C 
BRANCH  26  28
ATOM     28  C   LIG A   1      -7.352  -3.499 129.483  0.00  0.00    +0.122 C 
ATOM     29  C   LIG A   1      -7.217  -3.106 130.956  0.00  0.00    +0.038 C 
BRANCH  28  30
ATOM     30  O   LIG A   1      -8.737  -3.413 129.150  0.00  0.00    -0.391 OA
ATOM     31  H   LIG A   1      -8.837  -2.599 128.616  0.00  0.00    +0.210 HD
ENDBRANCH  28  30
ENDBRANCH  26  28
ENDBRANCH  24  26
ENDBRANCH  15  24
TORSDOF 7
ENDMDL
MODEL 9
REMARK VINA RESULT:      -7.3      4.573      7.361
REMARK  Name = NuBBE_683
REMARK  12 active torsions:
REMARK  status: ('A' for Active; 'I' for Inactive)
REMARK    1  A    between atoms: C_3  and  C_5
REMARK    2  A    between atoms: C_10  and  C_11
REMARK    3  A    between atoms: C_12  and  C_13
REMARK    4  A    between atoms: C_13  and  C_15
REMARK    5  A    between atoms: C_13  and  C_16
REMARK    6  A    between atoms: C_16  and  C_17
REMARK    7  A    between atoms: C_22  and  C_23
REMARK    8  A    between atoms: C_23  and  C_24
REMARK    9  A    between atoms: C_24  and  C_26
REMARK   10  A    between atoms: C_24  and  C_27
REMARK   11  A    between atoms: C_27  and  O_29
REMARK   12  A    between atoms: C_27  and  C_30
REMARK                            x       y       z     vdW  Elec       q    Type
REMARK                         _______ _______ _______ _____ _____    ______ ____
ROOT
ATOM      1  O   LIG A   1      -5.908   3.173 135.142  0.00  0.00    -0.286 OA
ATOM      2  C   LIG A   1      -6.075   3.612 134.004  0.00  0.00    +0.222 C 
ATOM      3  C   LIG A   1      -5.182   3.151 132.825  0.00  0.00    +0.200 C 
ATOM      4  O   LIG A   1      -3.840   2.922 133.228  0.00  0.00    -0.442 OA
ATOM      5  C   LIG A   1      -5.725   1.856 132.220  0.00  0.00    +0.070 C 
ATOM      6  C   LIG A   1      -5.063   4.259 131.848  0.00  0.00    +0.031 C 
ATOM      7  C   LIG A   1      -6.320   4.831 131.439  0.00  0.00    +0.027 C 
ATOM      8  C   LIG A   1      -6.673   5.072 130.165  0.00  0.00    +0.204 C 
ATOM      9  O   LIG A   1      -7.850   5.709 129.799  0.00  0.00    -0.463 OA
ATOM     10  C   LIG A   1      -8.612   6.297 130.808  0.00  0.00    +0.128 C 
ATOM     11  C   LIG A   1      -8.391   6.057 132.113  0.00  0.00    +0.056 C 
ATOM     12  C   LIG A   1      -7.323   5.136 132.477  0.00  0.00    +0.011 C 
ATOM     13  C   LIG A   1      -7.184   4.598 133.708  0.00  0.00    +0.096 C 
ATOM     14 CL   LIG A   1      -8.244   4.958 135.031  0.00  0.00    -0.079 Cl
ATOM     15  C   LIG A   1      -3.807   4.709 131.743  0.00  0.00    +0.110 C 
ATOM     16  C   LIG A   1      -3.023   3.839 132.637  0.00  0.00    +0.344 C 
ATOM     17  O   LIG A   1      -1.836   3.932 132.853  0.00  0.00    -0.245 OA
ENDROOT
BRANCH  10  18
ATOM     18  C   LIG A   1      -9.601   7.233 130.335  0.00  0.00    +0.042 C 
ATOM     19  C   LIG A   1     -10.017   7.304 129.060  0.00  0.00    -0.020 C 
BRANCH  19  20
ATOM     20  C   LIG A   1     -11.036   8.283 128.526  0.00  0.00    +0.008 C 
ATOM     21  C   LIG A   1     -11.438   7.955 127.084  0.00  0.00    +0.012 C 
BRANCH  20  22
ATOM     22  C   LIG A   1     -12.275   8.394 129.431  0.00  0.00    +0.004 C 
ATOM     23  C   LIG A   1     -13.087   9.659 129.178  0.00  0.00    +0.004 C 
ENDBRANCH  20  22
ENDBRANCH  19  20
ENDBRANCH  10  18
BRANCH  15  24
ATOM     24  C   LIG A   1      -3.283   5.915 131.042  0.00  0.00    +0.176 C 
ATOM     25  O   LIG A   1      -2.408   5.781 130.181  0.00  0.00    -0.291 OA
BRANCH  24  26
ATOM     26  C   LIG A   1      -3.846   7.303 131.394  0.00  0.00    +0.085 C 
ATOM     27  C   LIG A   1      -2.766   8.164 132.052  0.00  0.00    +0.018 C 
BRANCH  26  28
ATOM     28  C   LIG A   1      -4.457   8.006 130.156  0.00  0.00    +0.122 C 
ATOM     29  C   LIG A   1      -3.745   9.317 129.818  0.00  0.00    +0.038 C 
BRANCH  28  30
ATOM     30  O   LIG A   1      -4.373   7.172 129.001  0.00  0.00    -0.391 OA
ATOM     31  H   LIG A   1      -4.987   6.426 129.160  0.00  0.00    +0.210 HD
ENDBRANCH  28  30
ENDBRANCH  26  28
ENDBRANCH  24  26
ENDBRANCH  15  24
TORSDOF 7
ENDMDL
