MODEL 1
REMARK VINA RESULT:      -7.7      0.000      0.000
REMARK  Name = NuBBE_203
REMARK  19 active torsions:
REMARK  status: ('A' for Active; 'I' for Inactive)
REMARK    1  A    between atoms: C_5  and  O_7
REMARK    2  A    between atoms: O_7  and  C_8
REMARK    3  A    between atoms: C_8  and  C_9
REMARK    4  A    between atoms: C_9  and  C_10
REMARK    5  A    between atoms: C_10  and  C_11
REMARK    6  A    between atoms: C_13  and  C_15
REMARK    7  A    between atoms: C_16  and  C_17
REMARK    8  A    between atoms: C_16  and  C_18
REMARK    9  A    between atoms: C_18  and  C_19
REMARK   10  A    between atoms: C_20  and  C_21
REMARK   11  A    between atoms: C_20  and  C_22
REMARK   12  A    between atoms: C_25  and  O_27
REMARK   13  A    between atoms: O_27  and  C_28
REMARK   14  A    between atoms: C_28  and  C_29
REMARK   15  A    between atoms: C_32  and  O_34
REMARK   16  A    between atoms: O_34  and  C_35
REMARK   17  A    between atoms: C_35  and  C_36
REMARK   18  A    between atoms: C_39  and  O_41
REMARK   19  A    between atoms: O_41  and  C_42
REMARK                            x       y       z     vdW  Elec       q    Type
REMARK                         _______ _______ _______ _____ _____    ______ ____
ROOT
ATOM      1  C   LIG A   1      -6.046   4.548 130.285  0.00  0.00    +0.015 C 
ATOM      2  C   LIG A   1      -7.640   4.449 130.242  0.00  0.00    +0.067 C 
ATOM      3  C   LIG A   1      -8.184   3.484 131.337  0.00  0.00    +0.062 C 
ATOM      4  C   LIG A   1      -7.423   2.188 131.599  0.00  0.00    +0.181 C 
ATOM      5  C   LIG A   1      -5.887   2.350 131.574  0.00  0.00    +0.033 C 
ATOM      6  C   LIG A   1      -5.144   1.089 132.048  0.00  0.00    +0.012 C 
ATOM      7  C   LIG A   1      -5.211   3.202 130.413  0.00  0.00    -0.019 C 
ATOM      8  C   LIG A   1      -3.743   3.471 130.913  0.00  0.00    +0.012 C 
ATOM      9  C   LIG A   1      -8.276   5.795 130.585  0.00  0.00    +0.009 C 
ATOM     10  C   LIG A   1      -9.727   5.757 130.212  0.00  0.00    +0.343 C 
ATOM     11  O   LIG A   1      -9.803   4.701 129.216  0.00  0.00    -0.297 OA
ATOM     12  C   LIG A   1      -8.440   4.271 128.899  0.00  0.00    +0.325 C 
ATOM     13  C   LIG A   1      -7.562   6.833 131.028  0.00  0.00    +0.010 C 
ATOM     14  C   LIG A   1      -6.132   6.870 131.320  0.00  0.00    +0.141 C 
ATOM     15  C   LIG A   1      -5.664   5.456 131.505  0.00  0.00    +0.041 C 
ENDROOT
BRANCH  14  16
ATOM     16  O   LIG A   1      -5.561   7.537 130.206  0.00  0.00    -0.376 OA
ATOM     17  C   LIG A   1      -4.171   7.756 130.333  0.00  0.00    +0.194 C 
ENDBRANCH  14  16
BRANCH   4  18
ATOM     18  O   LIG A   1      -7.970   1.160 130.770  0.00  0.00    -0.461 OA
BRANCH  18  19
ATOM     19  C   LIG A   1      -8.697   0.211 131.460  0.00  0.00    +0.307 C 
ATOM     20  O   LIG A   1      -9.812   0.387 131.939  0.00  0.00    -0.251 OA
BRANCH  19  21
ATOM     21  C   LIG A   1      -8.021  -1.135 131.450  0.00  0.00    +0.120 C 
BRANCH  21  22
ATOM     22  C   LIG A   1      -7.399  -1.520 130.115  0.00  0.00    +0.008 C 
ATOM     23  C   LIG A   1      -8.071  -2.719 129.467  0.00  0.00    +0.004 C 
ENDBRANCH  21  22
ENDBRANCH  19  21
ENDBRANCH  18  19
ENDBRANCH   4  18
BRANCH   7  24
ATOM     24  C   LIG A   1      -5.031   2.526 128.998  0.00  0.00    +0.034 C 
BRANCH  24  25
ATOM     25  C   LIG A   1      -3.585   2.447 128.395  0.00  0.00    -0.023 C 
ATOM     26  C   LIG A   1      -3.142   3.114 127.299  0.00  0.00    -0.055 C 
ATOM     27  C   LIG A   1      -1.738   3.168 126.738  0.00  0.00    +0.043 C 
BRANCH  26  28
ATOM     28  C   LIG A   1      -4.055   3.995 126.631  0.00  0.00    -0.005 C 
ATOM     29  C   LIG A   1      -4.434   5.228 126.968  0.00  0.00    +0.008 C 
ENDBRANCH  26  28
ENDBRANCH  24  25
ENDBRANCH   7  24
BRANCH  10  30
ATOM     30  O   LIG A   1     -10.322   6.998 129.725  0.00  0.00    -0.431 OA
BRANCH  30  31
ATOM     31  C   LIG A   1     -11.132   6.969 128.586  0.00  0.00    +0.306 C 
ATOM     32  C   LIG A   1     -10.592   7.723 127.498  0.00  0.00    +0.136 C 
ATOM     33  O   LIG A   1     -12.285   6.433 128.448  0.00  0.00    -0.251 OA
ENDBRANCH  30  31
ENDBRANCH  10  30
BRANCH  12  34
ATOM     34  O   LIG A   1      -8.044   5.078 127.778  0.00  0.00    -0.434 OA
BRANCH  34  35
ATOM     35  C   LIG A   1      -8.257   4.417 126.598  0.00  0.00    +0.306 C 
ATOM     36  C   LIG A   1      -7.632   3.065 126.551  0.00  0.00    +0.136 C 
ATOM     37  O   LIG A   1      -8.747   4.916 125.585  0.00  0.00    -0.251 OA
ENDBRANCH  34  35
ENDBRANCH  12  34
TORSDOF 12
ENDMDL
MODEL 2
REMARK VINA RESULT:      -7.3      3.368      6.026
REMARK  Name = NuBBE_203
REMARK  19 active torsions:
REMARK  status: ('A' for Active; 'I' for Inactive)
REMARK    1  A    between atoms: C_5  and  O_7
REMARK    2  A    between atoms: O_7  and  C_8
REMARK    3  A    between atoms: C_8  and  C_9
REMARK    4  A    between atoms: C_9  and  C_10
REMARK    5  A    between atoms: C_10  and  C_11
REMARK    6  A    between atoms: C_13  and  C_15
REMARK    7  A    between atoms: C_16  and  C_17
REMARK    8  A    between atoms: C_16  and  C_18
REMARK    9  A    between atoms: C_18  and  C_19
REMARK   10  A    between atoms: C_20  and  C_21
REMARK   11  A    between atoms: C_20  and  C_22
REMARK   12  A    between atoms: C_25  and  O_27
REMARK   13  A    between atoms: O_27  and  C_28
REMARK   14  A    between atoms: C_28  and  C_29
REMARK   15  A    between atoms: C_32  and  O_34
REMARK   16  A    between atoms: O_34  and  C_35
REMARK   17  A    between atoms: C_35  and  C_36
REMARK   18  A    between atoms: C_39  and  O_41
REMARK   19  A    between atoms: O_41  and  C_42
REMARK                            x       y       z     vdW  Elec       q    Type
REMARK                         _______ _______ _______ _____ _____    ______ ____
ROOT
ATOM      1  C   LIG A   1      -7.025   0.179 128.139  0.00  0.00    +0.015 C 
ATOM      2  C   LIG A   1      -7.660   1.526 127.560  0.00  0.00    +0.067 C 
ATOM      3  C   LIG A   1      -9.005   1.255 126.822  0.00  0.00    +0.062 C 
ATOM      4  C   LIG A   1      -9.106   0.016 125.939  0.00  0.00    +0.181 C 
ATOM      5  C   LIG A   1      -8.425  -1.236 126.539  0.00  0.00    +0.033 C 
ATOM      6  C   LIG A   1      -8.719  -2.518 125.742  0.00  0.00    +0.012 C 
ATOM      7  C   LIG A   1      -6.982  -1.099 127.195  0.00  0.00    -0.019 C 
ATOM      8  C   LIG A   1      -6.787  -2.426 128.018  0.00  0.00    +0.012 C 
ATOM      9  C   LIG A   1      -8.044   2.474 128.694  0.00  0.00    +0.009 C 
ATOM     10  C   LIG A   1      -8.315   3.834 128.122  0.00  0.00    +0.343 C 
ATOM     11  O   LIG A   1      -7.597   3.828 126.858  0.00  0.00    -0.297 OA
ATOM     12  C   LIG A   1      -6.808   2.597 126.784  0.00  0.00    +0.325 C 
ATOM     13  C   LIG A   1      -8.003   2.110 129.978  0.00  0.00    +0.010 C 
ATOM     14  C   LIG A   1      -7.670   0.797 130.521  0.00  0.00    +0.141 C 
ATOM     15  C   LIG A   1      -7.839  -0.211 129.421  0.00  0.00    +0.041 C 
ENDROOT
BRANCH  14  16
ATOM     16  O   LIG A   1      -6.338   0.936 130.990  0.00  0.00    -0.376 OA
ATOM     17  C   LIG A   1      -6.219   0.810 132.391  0.00  0.00    +0.194 C 
ENDBRANCH  14  16
BRANCH   4  18
ATOM     18  O   LIG A   1      -8.729   0.370 124.606  0.00  0.00    -0.461 OA
BRANCH  18  19
ATOM     19  C   LIG A   1      -9.602   1.242 123.990  0.00  0.00    +0.307 C 
ATOM     20  O   LIG A   1     -10.825   1.196 124.074  0.00  0.00    -0.251 OA
BRANCH  19  21
ATOM     21  C   LIG A   1      -8.879   2.366 123.293  0.00  0.00    +0.120 C 
BRANCH  21  22
ATOM     22  C   LIG A   1      -7.376   2.166 123.164  0.00  0.00    +0.008 C 
ATOM     23  C   LIG A   1      -6.731   3.118 122.170  0.00  0.00    +0.004 C 
ENDBRANCH  21  22
ENDBRANCH  19  21
ENDBRANCH  18  19
ENDBRANCH   4  18
BRANCH   7  24
ATOM     24  C   LIG A   1      -5.728  -1.037 126.238  0.00  0.00    +0.034 C 
BRANCH  24  25
ATOM     25  C   LIG A   1      -5.225  -2.375 125.591  0.00  0.00    -0.023 C 
ATOM     26  C   LIG A   1      -5.338  -2.719 124.284  0.00  0.00    -0.055 C 
ATOM     27  C   LIG A   1      -4.775  -3.935 123.581  0.00  0.00    +0.043 C 
BRANCH  26  28
ATOM     28  C   LIG A   1      -5.948  -1.778 123.390  0.00  0.00    -0.005 C 
ATOM     29  C   LIG A   1      -6.978  -1.950 122.560  0.00  0.00    +0.008 C 
ENDBRANCH  26  28
ENDBRANCH  24  25
ENDBRANCH   7  24
BRANCH  10  30
ATOM     30  O   LIG A   1      -7.950   4.985 128.942  0.00  0.00    -0.431 OA
BRANCH  30  31
ATOM     31  C   LIG A   1      -8.950   5.690 129.618  0.00  0.00    +0.306 C 
ATOM     32  C   LIG A   1      -8.455   6.424 130.739  0.00  0.00    +0.136 C 
ATOM     33  O   LIG A   1     -10.211   5.682 129.399  0.00  0.00    -0.251 OA
ENDBRANCH  30  31
ENDBRANCH  10  30
BRANCH  12  34
ATOM     34  O   LIG A   1      -5.523   2.944 127.327  0.00  0.00    -0.434 OA
BRANCH  34  35
ATOM     35  C   LIG A   1      -4.605   3.136 126.330  0.00  0.00    +0.306 C 
ATOM     36  C   LIG A   1      -3.204   2.842 126.745  0.00  0.00    +0.136 C 
ATOM     37  O   LIG A   1      -4.838   3.671 125.246  0.00  0.00    -0.251 OA
ENDBRANCH  34  35
ENDBRANCH  12  34
TORSDOF 12
ENDMDL
MODEL 3
REMARK VINA RESULT:      -6.8      2.584      5.598
REMARK  Name = NuBBE_203
REMARK  19 active torsions:
REMARK  status: ('A' for Active; 'I' for Inactive)
REMARK    1  A    between atoms: C_5  and  O_7
REMARK    2  A    between atoms: O_7  and  C_8
REMARK    3  A    between atoms: C_8  and  C_9
REMARK    4  A    between atoms: C_9  and  C_10
REMARK    5  A    between atoms: C_10  and  C_11
REMARK    6  A    between atoms: C_13  and  C_15
REMARK    7  A    between atoms: C_16  and  C_17
REMARK    8  A    between atoms: C_16  and  C_18
REMARK    9  A    between atoms: C_18  and  C_19
REMARK   10  A    between atoms: C_20  and  C_21
REMARK   11  A    between atoms: C_20  and  C_22
REMARK   12  A    between atoms: C_25  and  O_27
REMARK   13  A    between atoms: O_27  and  C_28
REMARK   14  A    between atoms: C_28  and  C_29
REMARK   15  A    between atoms: C_32  and  O_34
REMARK   16  A    between atoms: O_34  and  C_35
REMARK   17  A    between atoms: C_35  and  C_36
REMARK   18  A    between atoms: C_39  and  O_41
REMARK   19  A    between atoms: O_41  and  C_42
REMARK                            x       y       z     vdW  Elec       q    Type
REMARK                         _______ _______ _______ _____ _____    ______ ____
ROOT
ATOM      1  C   LIG A   1      -5.396   3.482 127.436  0.00  0.00    +0.015 C 
ATOM      2  C   LIG A   1      -5.242   2.939 128.931  0.00  0.00    +0.067 C 
ATOM      3  C   LIG A   1      -4.729   1.468 128.957  0.00  0.00    +0.062 C 
ATOM      4  C   LIG A   1      -5.288   0.492 127.928  0.00  0.00    +0.181 C 
ATOM      5  C   LIG A   1      -5.459   1.100 126.518  0.00  0.00    +0.033 C 
ATOM      6  C   LIG A   1      -5.817   0.051 125.452  0.00  0.00    +0.012 C 
ATOM      7  C   LIG A   1      -6.104   2.546 126.365  0.00  0.00    -0.019 C 
ATOM      8  C   LIG A   1      -5.767   2.985 124.892  0.00  0.00    +0.012 C 
ATOM      9  C   LIG A   1      -4.166   3.720 129.683  0.00  0.00    +0.009 C 
ATOM     10  C   LIG A   1      -4.280   3.422 131.148  0.00  0.00    +0.343 C 
ATOM     11  O   LIG A   1      -5.652   2.968 131.303  0.00  0.00    -0.297 OA
ATOM     12  C   LIG A   1      -6.346   3.160 130.029  0.00  0.00    +0.325 C 
ATOM     13  C   LIG A   1      -3.367   4.603 129.078  0.00  0.00    +0.010 C 
ATOM     14  C   LIG A   1      -3.317   4.931 127.656  0.00  0.00    +0.141 C 
ATOM     15  C   LIG A   1      -3.957   3.801 126.902  0.00  0.00    +0.041 C 
ENDROOT
BRANCH  14  16
ATOM     16  O   LIG A   1      -4.003   6.169 127.555  0.00  0.00    -0.376 OA
ATOM     17  C   LIG A   1      -3.490   7.168 128.412  0.00  0.00    +0.194 C 
ENDBRANCH  14  16
BRANCH   4  18
ATOM     18  O   LIG A   1      -6.433  -0.158 128.486  0.00  0.00    -0.461 OA
BRANCH  18  19
ATOM     19  C   LIG A   1      -6.189  -1.442 128.928  0.00  0.00    +0.307 C 
ATOM     20  O   LIG A   1      -5.545  -1.734 129.930  0.00  0.00    -0.251 OA
BRANCH  19  21
ATOM     21  C   LIG A   1      -6.924  -2.470 128.108  0.00  0.00    +0.120 C 
BRANCH  21  22
ATOM     22  C   LIG A   1      -8.136  -3.080 128.798  0.00  0.00    +0.008 C 
ATOM     23  C   LIG A   1      -8.954  -3.977 127.883  0.00  0.00    +0.004 C 
ENDBRANCH  21  22
ENDBRANCH  19  21
ENDBRANCH  18  19
ENDBRANCH   4  18
BRANCH   7  24
ATOM     24  C   LIG A   1      -7.674   2.677 126.469  0.00  0.00    +0.034 C 
BRANCH  24  25
ATOM     25  C   LIG A   1      -8.517   2.535 125.153  0.00  0.00    -0.023 C 
ATOM     26  C   LIG A   1      -9.353   1.510 124.851  0.00  0.00    -0.055 C 
ATOM     27  C   LIG A   1     -10.274   1.372 123.658  0.00  0.00    +0.043 C 
BRANCH  26  28
ATOM     28  C   LIG A   1      -9.515   0.464 125.818  0.00  0.00    -0.005 C 
ATOM     29  C   LIG A   1      -9.227  -0.833 125.712  0.00  0.00    +0.008 C 
ENDBRANCH  26  28
ENDBRANCH  24  25
ENDBRANCH   7  24
BRANCH  10  30
ATOM     30  O   LIG A   1      -3.965   4.505 132.074  0.00  0.00    -0.431 OA
BRANCH  30  31
ATOM     31  C   LIG A   1      -3.057   4.277 133.112  0.00  0.00    +0.306 C 
ATOM     32  C   LIG A   1      -1.704   4.542 132.738  0.00  0.00    +0.136 C 
ATOM     33  O   LIG A   1      -3.289   3.803 134.277  0.00  0.00    -0.251 OA
ENDBRANCH  30  31
ENDBRANCH  10  30
BRANCH  12  34
ATOM     34  O   LIG A   1      -6.940   4.466 130.121  0.00  0.00    -0.434 OA
BRANCH  34  35
ATOM     35  C   LIG A   1      -8.202   4.470 129.588  0.00  0.00    +0.306 C 
ATOM     36  C   LIG A   1      -8.963   3.216 129.851  0.00  0.00    +0.136 C 
ATOM     37  O   LIG A   1      -8.639   5.317 128.810  0.00  0.00    -0.251 OA
ENDBRANCH  34  35
ENDBRANCH  12  34
TORSDOF 12
ENDMDL
MODEL 4
REMARK VINA RESULT:      -6.8      2.811      5.413
REMARK  Name = NuBBE_203
REMARK  19 active torsions:
REMARK  status: ('A' for Active; 'I' for Inactive)
REMARK    1  A    between atoms: C_5  and  O_7
REMARK    2  A    between atoms: O_7  and  C_8
REMARK    3  A    between atoms: C_8  and  C_9
REMARK    4  A    between atoms: C_9  and  C_10
REMARK    5  A    between atoms: C_10  and  C_11
REMARK    6  A    between atoms: C_13  and  C_15
REMARK    7  A    between atoms: C_16  and  C_17
REMARK    8  A    between atoms: C_16  and  C_18
REMARK    9  A    between atoms: C_18  and  C_19
REMARK   10  A    between atoms: C_20  and  C_21
REMARK   11  A    between atoms: C_20  and  C_22
REMARK   12  A    between atoms: C_25  and  O_27
REMARK   13  A    between atoms: O_27  and  C_28
REMARK   14  A    between atoms: C_28  and  C_29
REMARK   15  A    between atoms: C_32  and  O_34
REMARK   16  A    between atoms: O_34  and  C_35
REMARK   17  A    between atoms: C_35  and  C_36
REMARK   18  A    between atoms: C_39  and  O_41
REMARK   19  A    between atoms: O_41  and  C_42
REMARK                            x       y       z     vdW  Elec       q    Type
REMARK                         _______ _______ _______ _____ _____    ______ ____
ROOT
ATOM      1  C   LIG A   1      -7.613   0.696 131.067  0.00  0.00    +0.015 C 
ATOM      2  C   LIG A   1      -7.592   1.725 129.844  0.00  0.00    +0.067 C 
ATOM      3  C   LIG A   1      -8.141   1.075 128.538  0.00  0.00    +0.062 C 
ATOM      4  C   LIG A   1      -7.747  -0.366 128.229  0.00  0.00    +0.181 C 
ATOM      5  C   LIG A   1      -7.738  -1.291 129.467  0.00  0.00    +0.033 C 
ATOM      6  C   LIG A   1      -7.550  -2.774 129.106  0.00  0.00    +0.012 C 
ATOM      7  C   LIG A   1      -7.075  -0.779 130.819  0.00  0.00    -0.019 C 
ATOM      8  C   LIG A   1      -7.584  -1.779 131.922  0.00  0.00    +0.012 C 
ATOM      9  C   LIG A   1      -8.541   2.893 130.103  0.00  0.00    +0.009 C 
ATOM     10  C   LIG A   1      -8.250   3.985 129.117  0.00  0.00    +0.343 C 
ATOM     11  O   LIG A   1      -6.883   3.720 128.699  0.00  0.00    -0.297 OA
ATOM     12  C   LIG A   1      -6.351   2.638 129.529  0.00  0.00    +0.325 C 
ATOM     13  C   LIG A   1      -9.383   2.917 131.138  0.00  0.00    +0.010 C 
ATOM     14  C   LIG A   1      -9.604   1.869 132.131  0.00  0.00    +0.141 C 
ATOM     15  C   LIG A   1      -9.099   0.578 131.555  0.00  0.00    +0.041 C 
ENDROOT
BRANCH  14  16
ATOM     16  O   LIG A   1      -8.900   2.316 133.279  0.00  0.00    -0.376 OA
ATOM     17  C   LIG A   1      -9.263   3.618 133.689  0.00  0.00    +0.194 C 
ENDBRANCH  14  16
BRANCH   4  18
ATOM     18  O   LIG A   1      -6.560  -0.356 127.432  0.00  0.00    -0.461 OA
BRANCH  18  19
ATOM     19  C   LIG A   1      -6.796  -0.395 126.074  0.00  0.00    +0.307 C 
ATOM     20  O   LIG A   1      -6.780   0.577 125.325  0.00  0.00    -0.251 OA
BRANCH  19  21
ATOM     21  C   LIG A   1      -6.950  -1.806 125.568  0.00  0.00    +0.120 C 
BRANCH  21  22
ATOM     22  C   LIG A   1      -5.639  -2.552 125.368  0.00  0.00    +0.008 C 
ATOM     23  C   LIG A   1      -5.229  -2.654 123.907  0.00  0.00    +0.004 C 
ENDBRANCH  21  22
ENDBRANCH  19  21
ENDBRANCH  18  19
ENDBRANCH   4  18
BRANCH   7  24
ATOM     24  C   LIG A   1      -5.501  -0.819 130.941  0.00  0.00    +0.034 C 
BRANCH  24  25
ATOM     25  C   LIG A   1      -4.694  -1.584 129.835  0.00  0.00    -0.023 C 
ATOM     26  C   LIG A   1      -4.179  -2.834 129.946  0.00  0.00    -0.055 C 
ATOM     27  C   LIG A   1      -3.495  -3.665 128.882  0.00  0.00    +0.043 C 
BRANCH  26  28
ATOM     28  C   LIG A   1      -4.403  -3.549 131.168  0.00  0.00    -0.005 C 
ATOM     29  C   LIG A   1      -5.180  -4.610 131.394  0.00  0.00    +0.008 C 
ENDBRANCH  26  28
ENDBRANCH  24  25
ENDBRANCH   7  24
BRANCH  10  30
ATOM     30  O   LIG A   1      -8.412   5.360 129.579  0.00  0.00    -0.431 OA
BRANCH  30  31
ATOM     31  C   LIG A   1      -9.508   6.107 129.137  0.00  0.00    +0.306 C 
ATOM     32  C   LIG A   1     -10.347   6.552 130.204  0.00  0.00    +0.136 C 
ATOM     33  O   LIG A   1      -9.865   6.352 127.934  0.00  0.00    -0.251 OA
ENDBRANCH  30  31
ENDBRANCH  10  30
BRANCH  12  34
ATOM     34  O   LIG A   1      -5.713   3.296 130.635  0.00  0.00    -0.434 OA
BRANCH  34  35
ATOM     35  C   LIG A   1      -4.350   3.276 130.499  0.00  0.00    +0.306 C 
ATOM     36  C   LIG A   1      -3.855   2.171 129.631  0.00  0.00    +0.136 C 
ATOM     37  O   LIG A   1      -3.563   3.961 131.151  0.00  0.00    -0.251 OA
ENDBRANCH  34  35
ENDBRANCH  12  34
TORSDOF 12
ENDMDL
MODEL 5
REMARK VINA RESULT:      -6.7      2.149      6.179
REMARK  Name = NuBBE_203
REMARK  19 active torsions:
REMARK  status: ('A' for Active; 'I' for Inactive)
REMARK    1  A    between atoms: C_5  and  O_7
REMARK    2  A    between atoms: O_7  and  C_8
REMARK    3  A    between atoms: C_8  and  C_9
REMARK    4  A    between atoms: C_9  and  C_10
REMARK    5  A    between atoms: C_10  and  C_11
REMARK    6  A    between atoms: C_13  and  C_15
REMARK    7  A    between atoms: C_16  and  C_17
REMARK    8  A    between atoms: C_16  and  C_18
REMARK    9  A    between atoms: C_18  and  C_19
REMARK   10  A    between atoms: C_20  and  C_21
REMARK   11  A    between atoms: C_20  and  C_22
REMARK   12  A    between atoms: C_25  and  O_27
REMARK   13  A    between atoms: O_27  and  C_28
REMARK   14  A    between atoms: C_28  and  C_29
REMARK   15  A    between atoms: C_32  and  O_34
REMARK   16  A    between atoms: O_34  and  C_35
REMARK   17  A    between atoms: C_35  and  C_36
REMARK   18  A    between atoms: C_39  and  O_41
REMARK   19  A    between atoms: O_41  and  C_42
REMARK                            x       y       z     vdW  Elec       q    Type
REMARK                         _______ _______ _______ _____ _____    ______ ____
ROOT
ATOM      1  C   LIG A   1      -7.526   3.697 131.528  0.00  0.00    +0.015 C 
ATOM      2  C   LIG A   1      -6.932   5.075 130.979  0.00  0.00    +0.067 C 
ATOM      3  C   LIG A   1      -8.047   6.149 130.799  0.00  0.00    +0.062 C 
ATOM      4  C   LIG A   1      -9.389   5.705 130.227  0.00  0.00    +0.181 C 
ATOM      5  C   LIG A   1      -9.876   4.340 130.762  0.00  0.00    +0.033 C 
ATOM      6  C   LIG A   1     -11.319   4.011 130.342  0.00  0.00    +0.012 C 
ATOM      7  C   LIG A   1      -8.850   3.128 130.857  0.00  0.00    -0.019 C 
ATOM      8  C   LIG A   1      -9.562   2.068 131.777  0.00  0.00    +0.012 C 
ATOM      9  C   LIG A   1      -5.980   5.698 131.998  0.00  0.00    +0.009 C 
ATOM     10  C   LIG A   1      -5.197   6.789 131.331  0.00  0.00    +0.343 C 
ATOM     11  O   LIG A   1      -5.265   6.451 129.919  0.00  0.00    -0.297 OA
ATOM     12  C   LIG A   1      -5.904   5.140 129.791  0.00  0.00    +0.325 C 
ATOM     13  C   LIG A   1      -5.835   5.213 133.234  0.00  0.00    +0.010 C 
ATOM     14  C   LIG A   1      -6.561   4.103 133.846  0.00  0.00    +0.141 C 
ATOM     15  C   LIG A   1      -7.819   3.887 133.056  0.00  0.00    +0.041 C 
ENDROOT
BRANCH  14  16
ATOM     16  O   LIG A   1      -5.647   3.019 133.803  0.00  0.00    -0.376 OA
ATOM     17  C   LIG A   1      -5.007   2.775 135.039  0.00  0.00    +0.194 C 
ENDBRANCH  14  16
BRANCH   4  18
ATOM     18  O   LIG A   1      -9.355   5.858 128.806  0.00  0.00    -0.461 OA
BRANCH  18  19
ATOM     19  C   LIG A   1     -10.260   6.779 128.319  0.00  0.00    +0.307 C 
ATOM     20  O   LIG A   1     -10.813   6.716 127.225  0.00  0.00    -0.251 OA
BRANCH  19  21
ATOM     21  C   LIG A   1     -10.609   7.824 129.345  0.00  0.00    +0.120 C 
BRANCH  21  22
ATOM     22  C   LIG A   1     -12.099   8.104 129.481  0.00  0.00    +0.008 C 
ATOM     23  C   LIG A   1     -12.712   7.479 130.724  0.00  0.00    +0.004 C 
ENDBRANCH  21  22
ENDBRANCH  19  21
ENDBRANCH  18  19
ENDBRANCH   4  18
BRANCH   7  24
ATOM     24  C   LIG A   1      -8.503   2.338 129.535  0.00  0.00    +0.034 C 
BRANCH  24  25
ATOM     25  C   LIG A   1      -7.067   1.723 129.397  0.00  0.00    -0.023 C 
ATOM     26  C   LIG A   1      -6.745   0.413 129.543  0.00  0.00    -0.055 C 
ATOM     27  C   LIG A   1      -5.407  -0.256 129.311  0.00  0.00    +0.043 C 
BRANCH  26  28
ATOM     28  C   LIG A   1      -7.801  -0.513 129.827  0.00  0.00    -0.005 C 
ATOM     29  C   LIG A   1      -7.899  -1.405 130.813  0.00  0.00    +0.008 C 
ENDBRANCH  26  28
ENDBRANCH  24  25
ENDBRANCH   7  24
BRANCH  10  30
ATOM     30  O   LIG A   1      -3.818   6.983 131.770  0.00  0.00    -0.431 OA
BRANCH  30  31
ATOM     31  C   LIG A   1      -2.784   6.344 131.081  0.00  0.00    +0.306 C 
ATOM     32  C   LIG A   1      -2.272   5.204 131.775  0.00  0.00    +0.136 C 
ATOM     33  O   LIG A   1      -2.220   6.700 129.990  0.00  0.00    -0.251 OA
ENDBRANCH  30  31
ENDBRANCH  10  30
BRANCH  12  34
ATOM     34  O   LIG A   1      -4.821   4.195 129.798  0.00  0.00    -0.434 OA
BRANCH  34  35
ATOM     35  C   LIG A   1      -4.233   4.113 128.564  0.00  0.00    +0.306 C 
ATOM     36  C   LIG A   1      -5.208   4.125 127.437  0.00  0.00    +0.136 C 
ATOM     37  O   LIG A   1      -3.044   3.867 128.362  0.00  0.00    -0.251 OA
ENDBRANCH  34  35
ENDBRANCH  12  34
TORSDOF 12
ENDMDL
MODEL 6
REMARK VINA RESULT:      -6.7      2.377      6.127
REMARK  Name = NuBBE_203
REMARK  19 active torsions:
REMARK  status: ('A' for Active; 'I' for Inactive)
REMARK    1  A    between atoms: C_5  and  O_7
REMARK    2  A    between atoms: O_7  and  C_8
REMARK    3  A    between atoms: C_8  and  C_9
REMARK    4  A    between atoms: C_9  and  C_10
REMARK    5  A    between atoms: C_10  and  C_11
REMARK    6  A    between atoms: C_13  and  C_15
REMARK    7  A    between atoms: C_16  and  C_17
REMARK    8  A    between atoms: C_16  and  C_18
REMARK    9  A    between atoms: C_18  and  C_19
REMARK   10  A    between atoms: C_20  and  C_21
REMARK   11  A    between atoms: C_20  and  C_22
REMARK   12  A    between atoms: C_25  and  O_27
REMARK   13  A    between atoms: O_27  and  C_28
REMARK   14  A    between atoms: C_28  and  C_29
REMARK   15  A    between atoms: C_32  and  O_34
REMARK   16  A    between atoms: O_34  and  C_35
REMARK   17  A    between atoms: C_35  and  C_36
REMARK   18  A    between atoms: C_39  and  O_41
REMARK   19  A    between atoms: O_41  and  C_42
REMARK                            x       y       z     vdW  Elec       q    Type
REMARK                         _______ _______ _______ _____ _____    ______ ____
ROOT
ATOM      1  C   LIG A   1      -5.802   3.548 129.038  0.00  0.00    +0.015 C 
ATOM      2  C   LIG A   1      -7.203   3.183 128.361  0.00  0.00    +0.067 C 
ATOM      3  C   LIG A   1      -8.212   4.366 128.459  0.00  0.00    +0.062 C 
ATOM      4  C   LIG A   1      -8.265   5.163 129.758  0.00  0.00    +0.181 C 
ATOM      5  C   LIG A   1      -6.878   5.433 130.383  0.00  0.00    +0.033 C 
ATOM      6  C   LIG A   1      -6.934   6.413 131.567  0.00  0.00    +0.012 C 
ATOM      7  C   LIG A   1      -5.815   4.253 130.462  0.00  0.00    -0.019 C 
ATOM      8  C   LIG A   1      -4.446   4.963 130.774  0.00  0.00    +0.012 C 
ATOM      9  C   LIG A   1      -7.037   2.961 126.859  0.00  0.00    +0.009 C 
ATOM     10  C   LIG A   1      -8.274   2.303 126.325  0.00  0.00    +0.343 C 
ATOM     11  O   LIG A   1      -8.866   1.674 127.494  0.00  0.00    -0.297 OA
ATOM     12  C   LIG A   1      -7.931   1.811 128.611  0.00  0.00    +0.325 C 
ATOM     13  C   LIG A   1      -5.896   3.223 126.217  0.00  0.00    +0.010 C 
ATOM     14  C   LIG A   1      -4.675   3.801 126.771  0.00  0.00    +0.141 C 
ATOM     15  C   LIG A   1      -5.037   4.497 128.051  0.00  0.00    +0.041 C 
ENDROOT
BRANCH  14  16
ATOM     16  O   LIG A   1      -3.801   2.695 126.930  0.00  0.00    -0.376 OA
ATOM     17  C   LIG A   1      -2.438   3.060 126.989  0.00  0.00    +0.194 C 
ENDBRANCH  14  16
BRANCH   4  18
ATOM     18  O   LIG A   1      -9.248   4.577 130.616  0.00  0.00    -0.461 OA
BRANCH  18  19
ATOM     19  C   LIG A   1     -10.521   5.076 130.434  0.00  0.00    +0.307 C 
ATOM     20  O   LIG A   1     -11.478   4.435 130.014  0.00  0.00    -0.251 OA
BRANCH  19  21
ATOM     21  C   LIG A   1     -10.650   6.489 130.941  0.00  0.00    +0.120 C 
BRANCH  21  22
ATOM     22  C   LIG A   1     -11.323   7.449 129.971  0.00  0.00    +0.008 C 
ATOM     23  C   LIG A   1     -10.379   7.979 128.904  0.00  0.00    +0.004 C 
ENDBRANCH  21  22
ENDBRANCH  19  21
ENDBRANCH  18  19
ENDBRANCH   4  18
BRANCH   7  24
ATOM     24  C   LIG A   1      -5.976   3.178 131.608  0.00  0.00    +0.034 C 
BRANCH  24  25
ATOM     25  C   LIG A   1      -5.559   3.584 133.065  0.00  0.00    -0.023 C 
ATOM     26  C   LIG A   1      -6.387   3.661 134.137  0.00  0.00    -0.055 C 
ATOM     27  C   LIG A   1      -6.029   3.932 135.582  0.00  0.00    +0.043 C 
BRANCH  26  28
ATOM     28  C   LIG A   1      -7.767   3.321 133.949  0.00  0.00    -0.005 C 
ATOM     29  C   LIG A   1      -8.852   4.081 134.105  0.00  0.00    +0.008 C 
ENDBRANCH  26  28
ENDBRANCH  24  25
ENDBRANCH   7  24
BRANCH  10  30
ATOM     30  O   LIG A   1      -8.102   1.350 125.232  0.00  0.00    -0.431 OA
BRANCH  30  31
ATOM     31  C   LIG A   1      -8.617   0.057 125.363  0.00  0.00    +0.306 C 
ATOM     32  C   LIG A   1      -7.601  -0.934 125.531  0.00  0.00    +0.136 C 
ATOM     33  O   LIG A   1      -9.835  -0.323 125.273  0.00  0.00    -0.251 OA
ENDBRANCH  30  31
ENDBRANCH  10  30
BRANCH  12  34
ATOM     34  O   LIG A   1      -7.130   0.619 128.577  0.00  0.00    -0.434 OA
BRANCH  34  35
ATOM     35  C   LIG A   1      -7.618  -0.325 129.441  0.00  0.00    +0.306 C 
ATOM     36  C   LIG A   1      -8.187   0.250 130.692  0.00  0.00    +0.136 C 
ATOM     37  O   LIG A   1      -7.458  -1.540 129.326  0.00  0.00    -0.251 OA
ENDBRANCH  34  35
ENDBRANCH  12  34
TORSDOF 12
ENDMDL
MODEL 7
REMARK VINA RESULT:      -6.6      1.895      5.142
REMARK  Name = NuBBE_203
REMARK  19 active torsions:
REMARK  status: ('A' for Active; 'I' for Inactive)
REMARK    1  A    between atoms: C_5  and  O_7
REMARK    2  A    between atoms: O_7  and  C_8
REMARK    3  A    between atoms: C_8  and  C_9
REMARK    4  A    between atoms: C_9  and  C_10
REMARK    5  A    between atoms: C_10  and  C_11
REMARK    6  A    between atoms: C_13  and  C_15
REMARK    7  A    between atoms: C_16  and  C_17
REMARK    8  A    between atoms: C_16  and  C_18
REMARK    9  A    between atoms: C_18  and  C_19
REMARK   10  A    between atoms: C_20  and  C_21
REMARK   11  A    between atoms: C_20  and  C_22
REMARK   12  A    between atoms: C_25  and  O_27
REMARK   13  A    between atoms: O_27  and  C_28
REMARK   14  A    between atoms: C_28  and  C_29
REMARK   15  A    between atoms: C_32  and  O_34
REMARK   16  A    between atoms: O_34  and  C_35
REMARK   17  A    between atoms: C_35  and  C_36
REMARK   18  A    between atoms: C_39  and  O_41
REMARK   19  A    between atoms: O_41  and  C_42
REMARK                            x       y       z     vdW  Elec       q    Type
REMARK                         _______ _______ _______ _____ _____    ______ ____
ROOT
ATOM      1  C   LIG A   1      -6.457   2.950 130.107  0.00  0.00    +0.015 C 
ATOM      2  C   LIG A   1      -7.522   3.942 129.447  0.00  0.00    +0.067 C 
ATOM      3  C   LIG A   1      -7.642   3.714 127.910  0.00  0.00    +0.062 C 
ATOM      4  C   LIG A   1      -6.364   3.454 127.118  0.00  0.00    +0.181 C 
ATOM      5  C   LIG A   1      -5.358   2.530 127.841  0.00  0.00    +0.033 C 
ATOM      6  C   LIG A   1      -4.181   2.109 126.944  0.00  0.00    +0.012 C 
ATOM      7  C   LIG A   1      -5.054   2.763 129.384  0.00  0.00    -0.019 C 
ATOM      8  C   LIG A   1      -4.325   1.450 129.854  0.00  0.00    +0.012 C 
ATOM      9  C   LIG A   1      -8.927   3.656 129.974  0.00  0.00    +0.009 C 
ATOM     10  C   LIG A   1      -9.827   4.796 129.603  0.00  0.00    +0.343 C 
ATOM     11  O   LIG A   1      -8.913   5.905 129.389  0.00  0.00    -0.297 OA
ATOM     12  C   LIG A   1      -7.571   5.477 129.785  0.00  0.00    +0.325 C 
ATOM     13  C   LIG A   1      -9.203   2.599 130.741  0.00  0.00    +0.010 C 
ATOM     14  C   LIG A   1      -8.293   1.532 131.150  0.00  0.00    +0.141 C 
ATOM     15  C   LIG A   1      -7.127   1.536 130.203  0.00  0.00    +0.041 C 
ENDROOT
BRANCH  14  16
ATOM     16  O   LIG A   1      -7.961   1.847 132.493  0.00  0.00    -0.376 OA
ATOM     17  C   LIG A   1      -7.002   0.974 133.053  0.00  0.00    +0.194 C 
ENDBRANCH  14  16
BRANCH   4  18
ATOM     18  O   LIG A   1      -5.856   4.704 126.645  0.00  0.00    -0.461 OA
BRANCH  18  19
ATOM     19  C   LIG A   1      -6.244   5.016 125.358  0.00  0.00    +0.307 C 
ATOM     20  O   LIG A   1      -7.048   5.890 125.055  0.00  0.00    -0.251 OA
BRANCH  19  21
ATOM     21  C   LIG A   1      -5.461   4.242 124.330  0.00  0.00    +0.120 C 
BRANCH  21  22
ATOM     22  C   LIG A   1      -6.306   3.619 123.228  0.00  0.00    +0.008 C 
ATOM     23  C   LIG A   1      -6.884   2.267 123.613  0.00  0.00    +0.004 C 
ENDBRANCH  21  22
ENDBRANCH  19  21
ENDBRANCH  18  19
ENDBRANCH   4  18
BRANCH   7  24
ATOM     24  C   LIG A   1      -4.067   3.929 129.783  0.00  0.00    +0.034 C 
BRANCH  24  25
ATOM     25  C   LIG A   1      -3.279   3.802 131.134  0.00  0.00    -0.023 C 
ATOM     26  C   LIG A   1      -2.450   4.737 131.663  0.00  0.00    -0.055 C 
ATOM     27  C   LIG A   1      -1.756   4.722 133.007  0.00  0.00    +0.043 C 
BRANCH  26  28
ATOM     28  C   LIG A   1      -2.283   5.970 130.951  0.00  0.00    -0.005 C 
ATOM     29  C   LIG A   1      -2.302   7.220 131.415  0.00  0.00    +0.008 C 
ENDBRANCH  26  28
ENDBRANCH  24  25
ENDBRANCH   7  24
BRANCH  10  30
ATOM     30  O   LIG A   1     -10.883   5.146 130.550  0.00  0.00    -0.431 OA
BRANCH  30  31
ATOM     31  C   LIG A   1     -11.920   5.986 130.139  0.00  0.00    +0.306 C 
ATOM     32  C   LIG A   1     -12.345   6.890 131.161  0.00  0.00    +0.136 C 
ATOM     33  O   LIG A   1     -12.554   5.978 129.027  0.00  0.00    -0.251 OA
ENDBRANCH  30  31
ENDBRANCH  10  30
BRANCH  12  34
ATOM     34  O   LIG A   1      -7.450   5.857 131.166  0.00  0.00    -0.434 OA
BRANCH  34  35
ATOM     35  C   LIG A   1      -6.275   6.524 131.390  0.00  0.00    +0.306 C 
ATOM     36  C   LIG A   1      -5.638   6.186 132.694  0.00  0.00    +0.136 C 
ATOM     37  O   LIG A   1      -5.845   7.451 130.704  0.00  0.00    -0.251 OA
ENDBRANCH  34  35
ENDBRANCH  12  34
TORSDOF 12
ENDMDL
MODEL 8
REMARK VINA RESULT:      -6.5      2.405      5.352
REMARK  Name = NuBBE_203
REMARK  19 active torsions:
REMARK  status: ('A' for Active; 'I' for Inactive)
REMARK    1  A    between atoms: C_5  and  O_7
REMARK    2  A    between atoms: O_7  and  C_8
REMARK    3  A    between atoms: C_8  and  C_9
REMARK    4  A    between atoms: C_9  and  C_10
REMARK    5  A    between atoms: C_10  and  C_11
REMARK    6  A    between atoms: C_13  and  C_15
REMARK    7  A    between atoms: C_16  and  C_17
REMARK    8  A    between atoms: C_16  and  C_18
REMARK    9  A    between atoms: C_18  and  C_19
REMARK   10  A    between atoms: C_20  and  C_21
REMARK   11  A    between atoms: C_20  and  C_22
REMARK   12  A    between atoms: C_25  and  O_27
REMARK   13  A    between atoms: O_27  and  C_28
REMARK   14  A    between atoms: C_28  and  C_29
REMARK   15  A    between atoms: C_32  and  O_34
REMARK   16  A    between atoms: O_34  and  C_35
REMARK   17  A    between atoms: C_35  and  C_36
REMARK   18  A    between atoms: C_39  and  O_41
REMARK   19  A    between atoms: O_41  and  C_42
REMARK                            x       y       z     vdW  Elec       q    Type
REMARK                         _______ _______ _______ _____ _____    ______ ____
ROOT
ATOM      1  C   LIG A   1      -6.365   2.023 127.229  0.00  0.00    +0.015 C 
ATOM      2  C   LIG A   1      -6.334   2.599 128.719  0.00  0.00    +0.067 C 
ATOM      3  C   LIG A   1      -5.371   1.782 129.631  0.00  0.00    +0.062 C 
ATOM      4  C   LIG A   1      -5.352   0.264 129.482  0.00  0.00    +0.181 C 
ATOM      5  C   LIG A   1      -5.437  -0.222 128.018  0.00  0.00    +0.033 C 
ATOM      6  C   LIG A   1      -5.203  -1.735 127.874  0.00  0.00    +0.012 C 
ATOM      7  C   LIG A   1      -6.490   0.451 127.033  0.00  0.00    -0.019 C 
ATOM      8  C   LIG A   1      -6.037   0.005 125.593  0.00  0.00    +0.012 C 
ATOM      9  C   LIG A   1      -5.756   4.013 128.741  0.00  0.00    +0.009 C 
ATOM     10  C   LIG A   1      -6.049   4.639 130.072  0.00  0.00    +0.343 C 
ATOM     11  O   LIG A   1      -7.189   3.885 130.566  0.00  0.00    -0.297 OA
ATOM     12  C   LIG A   1      -7.642   2.988 129.503  0.00  0.00    +0.325 C 
ATOM     13  C   LIG A   1      -5.199   4.577 127.666  0.00  0.00    +0.010 C 
ATOM     14  C   LIG A   1      -4.984   3.972 126.354  0.00  0.00    +0.141 C 
ATOM     15  C   LIG A   1      -5.043   2.481 126.521  0.00  0.00    +0.041 C 
ENDROOT
BRANCH  14  16
ATOM     16  O   LIG A   1      -6.014   4.514 125.543  0.00  0.00    -0.376 OA
ATOM     17  C   LIG A   1      -6.054   3.962 124.243  0.00  0.00    +0.194 C 
ENDBRANCH  14  16
BRANCH   4  18
ATOM     18  O   LIG A   1      -6.297  -0.297 130.397  0.00  0.00    -0.461 OA
BRANCH  18  19
ATOM     19  C   LIG A   1      -5.738  -1.152 131.325  0.00  0.00    +0.307 C 
ATOM     20  O   LIG A   1      -4.621  -1.030 131.816  0.00  0.00    -0.251 OA
BRANCH  19  21
ATOM     21  C   LIG A   1      -6.716  -2.203 131.783  0.00  0.00    +0.120 C 
BRANCH  21  22
ATOM     22  C   LIG A   1      -6.989  -3.300 130.764  0.00  0.00    +0.008 C 
ATOM     23  C   LIG A   1      -5.884  -4.342 130.699  0.00  0.00    +0.004 C 
ENDBRANCH  21  22
ENDBRANCH  19  21
ENDBRANCH  18  19
ENDBRANCH   4  18
BRANCH   7  24
ATOM     24  C   LIG A   1      -8.000   0.000 127.132  0.00  0.00    +0.034 C 
BRANCH  24  25
ATOM     25  C   LIG A   1      -8.573  -0.917 125.996  0.00  0.00    -0.023 C 
ATOM     26  C   LIG A   1      -8.785  -2.254 126.083  0.00  0.00    -0.055 C 
ATOM     27  C   LIG A   1      -9.439  -3.169 125.070  0.00  0.00    +0.043 C 
BRANCH  26  28
ATOM     28  C   LIG A   1      -8.487  -2.904 127.326  0.00  0.00    -0.005 C 
ATOM     29  C   LIG A   1      -9.041  -3.992 127.862  0.00  0.00    +0.008 C 
ENDBRANCH  26  28
ENDBRANCH  24  25
ENDBRANCH   7  24
BRANCH  10  30
ATOM     30  O   LIG A   1      -6.307   6.076 130.089  0.00  0.00    -0.431 OA
BRANCH  30  31
ATOM     31  C   LIG A   1      -5.336   6.940 130.600  0.00  0.00    +0.306 C 
ATOM     32  C   LIG A   1      -4.859   6.545 131.887  0.00  0.00    +0.136 C 
ATOM     33  O   LIG A   1      -4.909   8.038 130.099  0.00  0.00    -0.251 OA
ENDBRANCH  30  31
ENDBRANCH  10  30
BRANCH  12  34
ATOM     34  O   LIG A   1      -8.647   3.728 128.791  0.00  0.00    -0.434 OA
BRANCH  34  35
ATOM     35  C   LIG A   1      -9.614   4.188 129.645  0.00  0.00    +0.306 C 
ATOM     36  C   LIG A   1     -10.246   3.115 130.463  0.00  0.00    +0.136 C 
ATOM     37  O   LIG A   1     -10.078   5.328 129.641  0.00  0.00    -0.251 OA
ENDBRANCH  34  35
ENDBRANCH  12  34
TORSDOF 12
ENDMDL
MODEL 9
REMARK VINA RESULT:      -6.4      2.736      6.783
REMARK  Name = NuBBE_203
REMARK  19 active torsions:
REMARK  status: ('A' for Active; 'I' for Inactive)
REMARK    1  A    between atoms: C_5  and  O_7
REMARK    2  A    between atoms: O_7  and  C_8
REMARK    3  A    between atoms: C_8  and  C_9
REMARK    4  A    between atoms: C_9  and  C_10
REMARK    5  A    between atoms: C_10  and  C_11
REMARK    6  A    between atoms: C_13  and  C_15
REMARK    7  A    between atoms: C_16  and  C_17
REMARK    8  A    between atoms: C_16  and  C_18
REMARK    9  A    between atoms: C_18  and  C_19
REMARK   10  A    between atoms: C_20  and  C_21
REMARK   11  A    between atoms: C_20  and  C_22
REMARK   12  A    between atoms: C_25  and  O_27
REMARK   13  A    between atoms: O_27  and  C_28
REMARK   14  A    between atoms: C_28  and  C_29
REMARK   15  A    between atoms: C_32  and  O_34
REMARK   16  A    between atoms: O_34  and  C_35
REMARK   17  A    between atoms: C_35  and  C_36
REMARK   18  A    between atoms: C_39  and  O_41
REMARK   19  A    between atoms: O_41  and  C_42
REMARK                            x       y       z     vdW  Elec       q    Type
REMARK                         _______ _______ _______ _____ _____    ______ ____
ROOT
ATOM      1  C   LIG A   1      -4.286   4.726 131.697  0.00  0.00    +0.015 C 
ATOM      2  C   LIG A   1      -4.557   3.403 130.842  0.00  0.00    +0.067 C 
ATOM      3  C   LIG A   1      -3.767   3.416 129.500  0.00  0.00    +0.062 C 
ATOM      4  C   LIG A   1      -3.682   4.727 128.725  0.00  0.00    +0.181 C 
ATOM      5  C   LIG A   1      -3.472   5.969 129.620  0.00  0.00    +0.033 C 
ATOM      6  C   LIG A   1      -3.176   7.245 128.814  0.00  0.00    +0.012 C 
ATOM      7  C   LIG A   1      -4.331   6.127 130.949  0.00  0.00    -0.019 C 
ATOM      8  C   LIG A   1      -3.599   7.252 131.771  0.00  0.00    +0.012 C 
ATOM      9  C   LIG A   1      -4.029   2.170 131.572  0.00  0.00    +0.009 C 
ATOM     10  C   LIG A   1      -4.588   0.941 130.920  0.00  0.00    +0.343 C 
ATOM     11  O   LIG A   1      -5.783   1.419 130.244  0.00  0.00    -0.297 OA
ATOM     12  C   LIG A   1      -6.000   2.814 130.630  0.00  0.00    +0.325 C 
ATOM     13  C   LIG A   1      -3.290   2.254 132.681  0.00  0.00    +0.010 C 
ATOM     14  C   LIG A   1      -2.811   3.465 133.342  0.00  0.00    +0.141 C 
ATOM     15  C   LIG A   1      -2.864   4.585 132.343  0.00  0.00    +0.041 C 
ENDROOT
BRANCH  14  16
ATOM     16  O   LIG A   1      -3.679   3.627 134.453  0.00  0.00    -0.376 OA
ATOM     17  C   LIG A   1      -3.910   2.430 135.165  0.00  0.00    +0.194 C 
ENDBRANCH  14  16
BRANCH   4  18
ATOM     18  O   LIG A   1      -4.771   4.784 127.800  0.00  0.00    -0.461 OA
BRANCH  18  19
ATOM     19  C   LIG A   1      -4.522   4.147 126.602  0.00  0.00    +0.307 C 
ATOM     20  O   LIG A   1      -3.419   4.034 126.077  0.00  0.00    -0.251 OA
BRANCH  19  21
ATOM     21  C   LIG A   1      -5.754   3.474 126.054  0.00  0.00    +0.120 C 
BRANCH  21  22
ATOM     22  C   LIG A   1      -6.193   2.236 126.824  0.00  0.00    +0.008 C 
ATOM     23  C   LIG A   1      -5.192   1.095 126.738  0.00  0.00    +0.004 C 
ENDBRANCH  21  22
ENDBRANCH  19  21
ENDBRANCH  18  19
ENDBRANCH   4  18
BRANCH   7  24
ATOM     24  C   LIG A   1      -5.821   6.636 130.819  0.00  0.00    +0.034 C 
BRANCH  24  25
ATOM     25  C   LIG A   1      -6.835   6.251 131.952  0.00  0.00    -0.023 C 
ATOM     26  C   LIG A   1      -8.187   6.331 131.871  0.00  0.00    -0.055 C 
ATOM     27  C   LIG A   1      -9.216   5.869 132.880  0.00  0.00    +0.043 C 
BRANCH  26  28
ATOM     28  C   LIG A   1      -8.762   6.782 130.639  0.00  0.00    -0.005 C 
ATOM     29  C   LIG A   1     -10.035   7.061 130.355  0.00  0.00    +0.008 C 
ENDBRANCH  26  28
ENDBRANCH  24  25
ENDBRANCH   7  24
BRANCH  10  30
ATOM     30  O   LIG A   1      -4.881  -0.198 131.786  0.00  0.00    -0.431 OA
BRANCH  30  31
ATOM     31  C   LIG A   1      -3.987  -1.272 131.830  0.00  0.00    +0.306 C 
ATOM     32  C   LIG A   1      -3.506  -1.652 130.540  0.00  0.00    +0.136 C 
ATOM     33  O   LIG A   1      -3.636  -1.967 132.845  0.00  0.00    -0.251 OA
ENDBRANCH  30  31
ENDBRANCH  10  30
BRANCH  12  34
ATOM     34  O   LIG A   1      -6.868   2.755 131.774  0.00  0.00    -0.434 OA
BRANCH  34  35
ATOM     35  C   LIG A   1      -8.082   2.215 131.442  0.00  0.00    +0.306 C 
ATOM     36  C   LIG A   1      -8.796   2.969 130.373  0.00  0.00    +0.136 C 
ATOM     37  O   LIG A   1      -8.650   1.315 132.060  0.00  0.00    -0.251 OA
ENDBRANCH  34  35
ENDBRANCH  12  34
TORSDOF 12
ENDMDL
