MODEL 1
REMARK VINA RESULT:      -6.9      0.000      0.000
REMARK  Name = NuBBE_2470
REMARK  17 active torsions:
REMARK  status: ('A' for Active; 'I' for Inactive)
REMARK    1  A    between atoms: O_1  and  C_2
REMARK    2  A    between atoms: C_2  and  C_3
REMARK    3  A    between atoms: C_3  and  C_5
REMARK    4  A    between atoms: C_3  and  C_20
REMARK    5  A    between atoms: C_5  and  C_7
REMARK    6  A    between atoms: C_5  and  C_9
REMARK    7  A    between atoms: C_7  and  O_8
REMARK    8  A    between atoms: C_9  and  C_10
REMARK    9  A    between atoms: C_13  and  O_14
REMARK   10  A    between atoms: O_14  and  C_15
REMARK   11  A    between atoms: C_16  and  O_17
REMARK   12  A    between atoms: O_17  and  C_18
REMARK   13  A    between atoms: C_20  and  C_21
REMARK   14  A    between atoms: C_23  and  O_24
REMARK   15  A    between atoms: O_24  and  C_25
REMARK   16  A    between atoms: C_26  and  O_27
REMARK   17  A    between atoms: O_27  and  C_28
REMARK                            x       y       z     vdW  Elec       q    Type
REMARK                         _______ _______ _______ _____ _____    ______ ____
ROOT
ATOM      1  C   LIG A   1      -8.526   5.056 131.808  0.00  0.00    +0.024 C 
ENDROOT
BRANCH   1   2
ATOM      2  C   LIG A   1      -9.407   5.105 133.085  0.00  0.00    +0.160 C 
BRANCH   2   3
ATOM      3  O   LIG A   1      -9.705   6.399 133.581  0.00  0.00    -0.395 OA
ATOM      4  H   LIG A   1      -8.992   6.676 134.183  0.00  0.00    +0.209 HD
ENDBRANCH   2   3
ENDBRANCH   1   2
BRANCH   1   5
ATOM      5  C   LIG A   1      -9.302   4.364 130.607  0.00  0.00    +0.024 C 
BRANCH   5   6
ATOM      6  C   LIG A   1      -8.496   4.696 129.331  0.00  0.00    +0.160 C 
BRANCH   6   7
ATOM      7  O   LIG A   1      -8.662   3.835 128.246  0.00  0.00    -0.395 OA
ATOM      8  H   LIG A   1      -9.059   3.038 128.649  0.00  0.00    +0.209 HD
ENDBRANCH   6   7
ENDBRANCH   5   6
BRANCH   5   9
ATOM      9  C   LIG A   1     -10.820   4.701 130.562  0.00  0.00    +0.041 C 
BRANCH   9  10
ATOM     10  C   LIG A   1     -11.359   6.088 130.248  0.00  0.00    -0.043 A 
ATOM     11  C   LIG A   1     -12.188   6.873 131.082  0.00  0.00    +0.007 A 
ATOM     12  C   LIG A   1     -12.780   8.063 130.672  0.00  0.00    +0.050 A 
ATOM     13  C   LIG A   1     -12.410   8.631 129.520  0.00  0.00    +0.162 A 
ATOM     14  C   LIG A   1     -11.543   7.923 128.657  0.00  0.00    +0.162 A 
ATOM     15  C   LIG A   1     -11.051   6.658 129.038  0.00  0.00    +0.053 A 
BRANCH  13  16
ATOM     16  O   LIG A   1     -12.945   9.873 129.283  0.00  0.00    -0.491 OA
ATOM     17  C   LIG A   1     -13.330  10.615 130.429  0.00  0.00    +0.277 C 
ENDBRANCH  13  16
BRANCH  14  18
ATOM     18  O   LIG A   1     -11.177   8.511 127.489  0.00  0.00    -0.491 OA
ATOM     19  C   LIG A   1     -10.967   7.650 126.374  0.00  0.00    +0.277 C 
ENDBRANCH  14  18
ENDBRANCH   9  10
ENDBRANCH   5   9
ENDBRANCH   1   5
BRANCH   1  20
ATOM     20  C   LIG A   1      -7.912   6.425 131.372  0.00  0.00    +0.041 C 
BRANCH  20  21
ATOM     21  C   LIG A   1      -6.430   6.622 131.487  0.00  0.00    -0.043 A 
ATOM     22  C   LIG A   1      -5.753   7.282 130.456  0.00  0.00    +0.053 A 
ATOM     23  C   LIG A   1      -4.383   7.572 130.554  0.00  0.00    +0.162 A 
ATOM     24  C   LIG A   1      -3.682   7.190 131.721  0.00  0.00    +0.162 A 
ATOM     25  C   LIG A   1      -4.355   6.445 132.688  0.00  0.00    +0.050 A 
ATOM     26  C   LIG A   1      -5.688   6.118 132.529  0.00  0.00    +0.007 A 
BRANCH  23  27
ATOM     27  O   LIG A   1      -3.719   8.215 129.531  0.00  0.00    -0.491 OA
ATOM     28  C   LIG A   1      -3.250   7.359 128.481  0.00  0.00    +0.277 C 
ENDBRANCH  23  27
BRANCH  24  29
ATOM     29  O   LIG A   1      -2.354   7.497 131.867  0.00  0.00    -0.491 OA
ATOM     30  C   LIG A   1      -1.443   6.401 132.031  0.00  0.00    +0.277 C 
ENDBRANCH  24  29
ENDBRANCH  20  21
ENDBRANCH   1  20
TORSDOF 13
ENDMDL
MODEL 2
REMARK VINA RESULT:      -6.6      1.454      2.339
REMARK  Name = NuBBE_2470
REMARK  17 active torsions:
REMARK  status: ('A' for Active; 'I' for Inactive)
REMARK    1  A    between atoms: O_1  and  C_2
REMARK    2  A    between atoms: C_2  and  C_3
REMARK    3  A    between atoms: C_3  and  C_5
REMARK    4  A    between atoms: C_3  and  C_20
REMARK    5  A    between atoms: C_5  and  C_7
REMARK    6  A    between atoms: C_5  and  C_9
REMARK    7  A    between atoms: C_7  and  O_8
REMARK    8  A    between atoms: C_9  and  C_10
REMARK    9  A    between atoms: C_13  and  O_14
REMARK   10  A    between atoms: O_14  and  C_15
REMARK   11  A    between atoms: C_16  and  O_17
REMARK   12  A    between atoms: O_17  and  C_18
REMARK   13  A    between atoms: C_20  and  C_21
REMARK   14  A    between atoms: C_23  and  O_24
REMARK   15  A    between atoms: O_24  and  C_25
REMARK   16  A    between atoms: C_26  and  O_27
REMARK   17  A    between atoms: O_27  and  C_28
REMARK                            x       y       z     vdW  Elec       q    Type
REMARK                         _______ _______ _______ _____ _____    ______ ____
ROOT
ATOM      1  C   LIG A   1      -7.439   5.661 131.437  0.00  0.00    +0.024 C 
ENDROOT
BRANCH   1   2
ATOM      2  C   LIG A   1      -6.666   4.367 131.808  0.00  0.00    +0.160 C 
BRANCH   2   3
ATOM      3  O   LIG A   1      -7.080   3.187 131.140  0.00  0.00    -0.395 OA
ATOM      4  H   LIG A   1      -7.461   3.431 130.278  0.00  0.00    +0.209 HD
ENDBRANCH   2   3
ENDBRANCH   1   2
BRANCH   1   5
ATOM      5  C   LIG A   1      -8.562   5.981 132.514  0.00  0.00    +0.024 C 
BRANCH   5   6
ATOM      6  C   LIG A   1      -8.117   5.278 133.816  0.00  0.00    +0.160 C 
BRANCH   6   7
ATOM      7  O   LIG A   1      -8.296   5.990 135.002  0.00  0.00    -0.395 OA
ATOM      8  H   LIG A   1      -9.047   5.532 135.430  0.00  0.00    +0.209 HD
ENDBRANCH   6   7
ENDBRANCH   5   6
BRANCH   5   9
ATOM      9  C   LIG A   1     -10.006   5.667 132.028  0.00  0.00    +0.041 C 
BRANCH   9  10
ATOM     10  C   LIG A   1     -10.853   6.649 131.233  0.00  0.00    -0.043 A 
ATOM     11  C   LIG A   1     -12.138   7.122 131.582  0.00  0.00    +0.007 A 
ATOM     12  C   LIG A   1     -12.928   7.892 130.735  0.00  0.00    +0.050 A 
ATOM     13  C   LIG A   1     -12.405   8.405 129.617  0.00  0.00    +0.162 A 
ATOM     14  C   LIG A   1     -11.103   8.013 129.230  0.00  0.00    +0.162 A 
ATOM     15  C   LIG A   1     -10.364   7.130 130.043  0.00  0.00    +0.053 A 
BRANCH  13  16
ATOM     16  O   LIG A   1     -13.224   9.268 128.931  0.00  0.00    -0.491 OA
ATOM     17  C   LIG A   1     -13.447  10.530 129.539  0.00  0.00    +0.277 C 
ENDBRANCH  13  16
BRANCH  14  18
ATOM     18  O   LIG A   1     -10.585   8.539 128.091  0.00  0.00    -0.491 OA
ATOM     19  C   LIG A   1     -10.792   7.802 126.890  0.00  0.00    +0.277 C 
ENDBRANCH  14  18
ENDBRANCH   9  10
ENDBRANCH   5   9
ENDBRANCH   1   5
BRANCH   1  20
ATOM     20  C   LIG A   1      -6.546   6.912 131.161  0.00  0.00    +0.041 C 
BRANCH  20  21
ATOM     21  C   LIG A   1      -5.062   6.795 131.339  0.00  0.00    -0.043 A 
ATOM     22  C   LIG A   1      -4.270   6.473 130.232  0.00  0.00    +0.053 A 
ATOM     23  C   LIG A   1      -2.869   6.439 130.323  0.00  0.00    +0.162 A 
ATOM     24  C   LIG A   1      -2.255   6.740 131.560  0.00  0.00    +0.162 A 
ATOM     25  C   LIG A   1      -3.068   6.958 132.671  0.00  0.00    +0.050 A 
ATOM     26  C   LIG A   1      -4.444   6.918 132.562  0.00  0.00    +0.007 A 
BRANCH  23  27
ATOM     27  O   LIG A   1      -2.096   6.112 129.230  0.00  0.00    -0.491 OA
ATOM     28  C   LIG A   1      -2.299   6.938 128.075  0.00  0.00    +0.277 C 
ENDBRANCH  23  27
BRANCH  24  29
ATOM     29  O   LIG A   1      -0.888   6.758 131.672  0.00  0.00    -0.491 OA
ATOM     30  C   LIG A   1      -0.341   6.867 132.993  0.00  0.00    +0.277 C 
ENDBRANCH  24  29
ENDBRANCH  20  21
ENDBRANCH   1  20
TORSDOF 13
ENDMDL
MODEL 3
REMARK VINA RESULT:      -6.6      9.247     11.555
REMARK  Name = NuBBE_2470
REMARK  17 active torsions:
REMARK  status: ('A' for Active; 'I' for Inactive)
REMARK    1  A    between atoms: O_1  and  C_2
REMARK    2  A    between atoms: C_2  and  C_3
REMARK    3  A    between atoms: C_3  and  C_5
REMARK    4  A    between atoms: C_3  and  C_20
REMARK    5  A    between atoms: C_5  and  C_7
REMARK    6  A    between atoms: C_5  and  C_9
REMARK    7  A    between atoms: C_7  and  O_8
REMARK    8  A    between atoms: C_9  and  C_10
REMARK    9  A    between atoms: C_13  and  O_14
REMARK   10  A    between atoms: O_14  and  C_15
REMARK   11  A    between atoms: C_16  and  O_17
REMARK   12  A    between atoms: O_17  and  C_18
REMARK   13  A    between atoms: C_20  and  C_21
REMARK   14  A    between atoms: C_23  and  O_24
REMARK   15  A    between atoms: O_24  and  C_25
REMARK   16  A    between atoms: C_26  and  O_27
REMARK   17  A    between atoms: O_27  and  C_28
REMARK                            x       y       z     vdW  Elec       q    Type
REMARK                         _______ _______ _______ _____ _____    ______ ____
ROOT
ATOM      1  C   LIG A   1      -7.222  -1.769 123.633  0.00  0.00    +0.024 C 
ENDROOT
BRANCH   1   2
ATOM      2  C   LIG A   1      -5.954  -2.326 122.934  0.00  0.00    +0.160 C 
BRANCH   2   3
ATOM      3  O   LIG A   1      -5.186  -3.248 123.689  0.00  0.00    -0.395 OA
ATOM      4  H   LIG A   1      -5.575  -3.327 124.578  0.00  0.00    +0.209 HD
ENDBRANCH   2   3
ENDBRANCH   1   2
BRANCH   1   5
ATOM      5  C   LIG A   1      -7.822  -2.829 124.654  0.00  0.00    +0.024 C 
BRANCH   5   6
ATOM      6  C   LIG A   1      -8.869  -3.641 123.860  0.00  0.00    +0.160 C 
BRANCH   6   7
ATOM      7  O   LIG A   1     -10.004  -2.949 123.435  0.00  0.00    -0.395 OA
ATOM      8  H   LIG A   1      -9.743  -2.011 123.524  0.00  0.00    +0.209 HD
ENDBRANCH   6   7
ENDBRANCH   5   6
BRANCH   5   9
ATOM      9  C   LIG A   1      -8.313  -2.205 125.991  0.00  0.00    +0.041 C 
BRANCH   9  10
ATOM     10  C   LIG A   1      -7.774  -2.615 127.353  0.00  0.00    -0.043 A 
ATOM     11  C   LIG A   1      -8.498  -3.260 128.382  0.00  0.00    +0.007 A 
ATOM     12  C   LIG A   1      -7.995  -3.463 129.662  0.00  0.00    +0.050 A 
ATOM     13  C   LIG A   1      -6.701  -3.241 129.914  0.00  0.00    +0.162 A 
ATOM     14  C   LIG A   1      -5.903  -2.642 128.913  0.00  0.00    +0.162 A 
ATOM     15  C   LIG A   1      -6.467  -2.328 127.659  0.00  0.00    +0.053 A 
BRANCH  13  16
ATOM     16  O   LIG A   1      -6.277  -3.612 131.167  0.00  0.00    -0.491 OA
ATOM     17  C   LIG A   1      -6.787  -2.849 132.248  0.00  0.00    +0.277 C 
ENDBRANCH  13  16
BRANCH  14  18
ATOM     18  O   LIG A   1      -4.591  -2.420 129.183  0.00  0.00    -0.491 OA
ATOM     19  C   LIG A   1      -3.694  -3.499 128.943  0.00  0.00    +0.277 C 
ENDBRANCH  14  18
ENDBRANCH   9  10
ENDBRANCH   5   9
ENDBRANCH   1   5
BRANCH   1  20
ATOM     20  C   LIG A   1      -7.050  -0.370 124.306  0.00  0.00    +0.041 C 
BRANCH  20  21
ATOM     21  C   LIG A   1      -7.568   0.843 123.592  0.00  0.00    -0.043 A 
ATOM     22  C   LIG A   1      -6.664   1.837 123.203  0.00  0.00    +0.053 A 
ATOM     23  C   LIG A   1      -7.082   2.949 122.454  0.00  0.00    +0.162 A 
ATOM     24  C   LIG A   1      -8.443   3.057 122.088  0.00  0.00    +0.162 A 
ATOM     25  C   LIG A   1      -9.340   2.107 122.573  0.00  0.00    +0.050 A 
ATOM     26  C   LIG A   1      -8.906   1.062 123.365  0.00  0.00    +0.007 A 
BRANCH  23  27
ATOM     27  O   LIG A   1      -6.187   3.929 122.082  0.00  0.00    -0.491 OA
ATOM     28  C   LIG A   1      -5.405   3.626 120.919  0.00  0.00    +0.277 C 
ENDBRANCH  23  27
BRANCH  24  29
ATOM     29  O   LIG A   1      -8.875   4.108 121.320  0.00  0.00    -0.491 OA
ATOM     30  C   LIG A   1      -9.091   3.853 119.925  0.00  0.00    +0.277 C 
ENDBRANCH  24  29
ENDBRANCH  20  21
ENDBRANCH   1  20
TORSDOF 13
ENDMDL
MODEL 4
REMARK VINA RESULT:      -6.5      7.753     10.211
REMARK  Name = NuBBE_2470
REMARK  17 active torsions:
REMARK  status: ('A' for Active; 'I' for Inactive)
REMARK    1  A    between atoms: O_1  and  C_2
REMARK    2  A    between atoms: C_2  and  C_3
REMARK    3  A    between atoms: C_3  and  C_5
REMARK    4  A    between atoms: C_3  and  C_20
REMARK    5  A    between atoms: C_5  and  C_7
REMARK    6  A    between atoms: C_5  and  C_9
REMARK    7  A    between atoms: C_7  and  O_8
REMARK    8  A    between atoms: C_9  and  C_10
REMARK    9  A    between atoms: C_13  and  O_14
REMARK   10  A    between atoms: O_14  and  C_15
REMARK   11  A    between atoms: C_16  and  O_17
REMARK   12  A    between atoms: O_17  and  C_18
REMARK   13  A    between atoms: C_20  and  C_21
REMARK   14  A    between atoms: C_23  and  O_24
REMARK   15  A    between atoms: O_24  and  C_25
REMARK   16  A    between atoms: C_26  and  O_27
REMARK   17  A    between atoms: O_27  and  C_28
REMARK                            x       y       z     vdW  Elec       q    Type
REMARK                         _______ _______ _______ _____ _____    ______ ____
ROOT
ATOM      1  C   LIG A   1      -8.136  -2.503 124.492  0.00  0.00    +0.024 C 
ENDROOT
BRANCH   1   2
ATOM      2  C   LIG A   1      -9.090  -3.628 124.009  0.00  0.00    +0.160 C 
BRANCH   2   3
ATOM      3  O   LIG A   1     -10.212  -3.205 123.253  0.00  0.00    -0.395 OA
ATOM      4  H   LIG A   1     -11.014  -3.318 123.793  0.00  0.00    +0.209 HD
ENDBRANCH   2   3
ENDBRANCH   1   2
BRANCH   1   5
ATOM      5  C   LIG A   1      -7.908  -1.421 123.351  0.00  0.00    +0.024 C 
BRANCH   5   6
ATOM      6  C   LIG A   1      -6.446  -1.594 122.885  0.00  0.00    +0.160 C 
BRANCH   6   7
ATOM      7  O   LIG A   1      -5.603  -2.317 123.730  0.00  0.00    -0.395 OA
ATOM      8  H   LIG A   1      -5.865  -2.017 124.622  0.00  0.00    +0.209 HD
ENDBRANCH   6   7
ENDBRANCH   5   6
BRANCH   5   9
ATOM      9  C   LIG A   1      -8.329   0.020 123.760  0.00  0.00    +0.041 C 
BRANCH   9  10
ATOM     10  C   LIG A   1      -7.334   1.098 124.163  0.00  0.00    -0.043 A 
ATOM     11  C   LIG A   1      -6.618   1.163 125.380  0.00  0.00    +0.007 A 
ATOM     12  C   LIG A   1      -5.846   2.257 125.758  0.00  0.00    +0.050 A 
ATOM     13  C   LIG A   1      -5.576   3.222 124.872  0.00  0.00    +0.162 A 
ATOM     14  C   LIG A   1      -6.221   3.194 123.614  0.00  0.00    +0.162 A 
ATOM     15  C   LIG A   1      -7.099   2.138 123.298  0.00  0.00    +0.053 A 
BRANCH  13  16
ATOM     16  O   LIG A   1      -4.688   4.177 125.300  0.00  0.00    -0.491 OA
ATOM     17  C   LIG A   1      -3.708   3.744 126.229  0.00  0.00    +0.277 C 
ENDBRANCH  13  16
BRANCH  14  18
ATOM     18  O   LIG A   1      -5.940   4.180 122.725  0.00  0.00    -0.491 OA
ATOM     19  C   LIG A   1      -5.793   3.795 121.362  0.00  0.00    +0.277 C 
ENDBRANCH  14  18
ENDBRANCH   9  10
ENDBRANCH   5   9
ENDBRANCH   1   5
BRANCH   1  20
ATOM     20  C   LIG A   1      -8.536  -1.827 125.842  0.00  0.00    +0.041 C 
BRANCH  20  21
ATOM     21  C   LIG A   1      -7.964  -2.368 127.118  0.00  0.00    -0.043 A 
ATOM     22  C   LIG A   1      -6.712  -1.911 127.546  0.00  0.00    +0.053 A 
ATOM     23  C   LIG A   1      -6.171  -2.315 128.777  0.00  0.00    +0.162 A 
ATOM     24  C   LIG A   1      -6.913  -3.198 129.595  0.00  0.00    +0.162 A 
ATOM     25  C   LIG A   1      -8.108  -3.717 129.102  0.00  0.00    +0.050 A 
ATOM     26  C   LIG A   1      -8.580  -3.351 127.856  0.00  0.00    +0.007 A 
BRANCH  23  27
ATOM     27  O   LIG A   1      -4.934  -1.868 129.188  0.00  0.00    -0.491 OA
ATOM     28  C   LIG A   1      -4.918  -0.538 129.724  0.00  0.00    +0.277 C 
ENDBRANCH  23  27
BRANCH  24  29
ATOM     29  O   LIG A   1      -6.431  -3.578 130.822  0.00  0.00    -0.491 OA
ATOM     30  C   LIG A   1      -7.064  -3.009 131.977  0.00  0.00    +0.277 C 
ENDBRANCH  24  29
ENDBRANCH  20  21
ENDBRANCH   1  20
TORSDOF 13
ENDMDL
MODEL 5
REMARK VINA RESULT:      -6.5      7.518     10.616
REMARK  Name = NuBBE_2470
REMARK  17 active torsions:
REMARK  status: ('A' for Active; 'I' for Inactive)
REMARK    1  A    between atoms: O_1  and  C_2
REMARK    2  A    between atoms: C_2  and  C_3
REMARK    3  A    between atoms: C_3  and  C_5
REMARK    4  A    between atoms: C_3  and  C_20
REMARK    5  A    between atoms: C_5  and  C_7
REMARK    6  A    between atoms: C_5  and  C_9
REMARK    7  A    between atoms: C_7  and  O_8
REMARK    8  A    between atoms: C_9  and  C_10
REMARK    9  A    between atoms: C_13  and  O_14
REMARK   10  A    between atoms: O_14  and  C_15
REMARK   11  A    between atoms: C_16  and  O_17
REMARK   12  A    between atoms: O_17  and  C_18
REMARK   13  A    between atoms: C_20  and  C_21
REMARK   14  A    between atoms: C_23  and  O_24
REMARK   15  A    between atoms: O_24  and  C_25
REMARK   16  A    between atoms: C_26  and  O_27
REMARK   17  A    between atoms: O_27  and  C_28
REMARK                            x       y       z     vdW  Elec       q    Type
REMARK                         _______ _______ _______ _____ _____    ______ ____
ROOT
ATOM      1  C   LIG A   1      -7.388  -1.231 123.975  0.00  0.00    +0.024 C 
ENDROOT
BRANCH   1   2
ATOM      2  C   LIG A   1      -5.887  -1.557 124.199  0.00  0.00    +0.160 C 
BRANCH   2   3
ATOM      3  O   LIG A   1      -5.588  -2.907 124.515  0.00  0.00    -0.395 OA
ATOM      4  H   LIG A   1      -6.177  -3.199 125.232  0.00  0.00    +0.209 HD
ENDBRANCH   2   3
ENDBRANCH   1   2
BRANCH   1   5
ATOM      5  C   LIG A   1      -8.305  -2.459 124.389  0.00  0.00    +0.024 C 
BRANCH   5   6
ATOM      6  C   LIG A   1      -9.237  -2.721 123.185  0.00  0.00    +0.160 C 
BRANCH   6   7
ATOM      7  O   LIG A   1     -10.274  -3.633 123.385  0.00  0.00    -0.395 OA
ATOM      8  H   LIG A   1     -10.018  -4.089 124.210  0.00  0.00    +0.209 HD
ENDBRANCH   6   7
ENDBRANCH   5   6
BRANCH   5   9
ATOM      9  C   LIG A   1      -9.005  -2.284 125.768  0.00  0.00    +0.041 C 
BRANCH   9  10
ATOM     10  C   LIG A   1      -8.351  -2.652 127.090  0.00  0.00    -0.043 A 
ATOM     11  C   LIG A   1      -8.735  -3.707 127.950  0.00  0.00    +0.007 A 
ATOM     12  C   LIG A   1      -8.202  -3.893 129.221  0.00  0.00    +0.050 A 
ATOM     13  C   LIG A   1      -7.130  -3.191 129.604  0.00  0.00    +0.162 A 
ATOM     14  C   LIG A   1      -6.661  -2.151 128.771  0.00  0.00    +0.162 A 
ATOM     15  C   LIG A   1      -7.296  -1.897 127.538  0.00  0.00    +0.053 A 
BRANCH  13  16
ATOM     16  O   LIG A   1      -6.596  -3.556 130.816  0.00  0.00    -0.491 OA
ATOM     17  C   LIG A   1      -5.667  -4.627 130.790  0.00  0.00    +0.277 C 
ENDBRANCH  13  16
BRANCH  14  18
ATOM     18  O   LIG A   1      -5.573  -1.445 129.174  0.00  0.00    -0.491 OA
ATOM     19  C   LIG A   1      -5.422  -0.134 128.637  0.00  0.00    +0.277 C 
ENDBRANCH  14  18
ENDBRANCH   9  10
ENDBRANCH   5   9
ENDBRANCH   1   5
BRANCH   1  20
ATOM     20  C   LIG A   1      -7.885   0.095 124.633  0.00  0.00    +0.041 C 
BRANCH  20  21
ATOM     21  C   LIG A   1      -7.286   1.394 124.183  0.00  0.00    -0.043 A 
ATOM     22  C   LIG A   1      -6.405   2.066 125.037  0.00  0.00    +0.053 A 
ATOM     23  C   LIG A   1      -5.748   3.238 124.630  0.00  0.00    +0.162 A 
ATOM     24  C   LIG A   1      -5.983   3.740 123.329  0.00  0.00    +0.162 A 
ATOM     25  C   LIG A   1      -6.939   3.110 122.535  0.00  0.00    +0.050 A 
ATOM     26  C   LIG A   1      -7.618   1.998 122.993  0.00  0.00    +0.007 A 
BRANCH  23  27
ATOM     27  O   LIG A   1      -4.888   3.900 125.480  0.00  0.00    -0.491 OA
ATOM     28  C   LIG A   1      -4.841   3.383 126.817  0.00  0.00    +0.277 C 
ENDBRANCH  23  27
BRANCH  24  29
ATOM     29  O   LIG A   1      -5.323   4.858 122.886  0.00  0.00    -0.491 OA
ATOM     30  C   LIG A   1      -4.583   4.739 121.663  0.00  0.00    +0.277 C 
ENDBRANCH  24  29
ENDBRANCH  20  21
ENDBRANCH   1  20
TORSDOF 13
ENDMDL
MODEL 6
REMARK VINA RESULT:      -6.4      6.545      9.352
REMARK  Name = NuBBE_2470
REMARK  17 active torsions:
REMARK  status: ('A' for Active; 'I' for Inactive)
REMARK    1  A    between atoms: O_1  and  C_2
REMARK    2  A    between atoms: C_2  and  C_3
REMARK    3  A    between atoms: C_3  and  C_5
REMARK    4  A    between atoms: C_3  and  C_20
REMARK    5  A    between atoms: C_5  and  C_7
REMARK    6  A    between atoms: C_5  and  C_9
REMARK    7  A    between atoms: C_7  and  O_8
REMARK    8  A    between atoms: C_9  and  C_10
REMARK    9  A    between atoms: C_13  and  O_14
REMARK   10  A    between atoms: O_14  and  C_15
REMARK   11  A    between atoms: C_16  and  O_17
REMARK   12  A    between atoms: O_17  and  C_18
REMARK   13  A    between atoms: C_20  and  C_21
REMARK   14  A    between atoms: C_23  and  O_24
REMARK   15  A    between atoms: O_24  and  C_25
REMARK   16  A    between atoms: C_26  and  O_27
REMARK   17  A    between atoms: O_27  and  C_28
REMARK                            x       y       z     vdW  Elec       q    Type
REMARK                         _______ _______ _______ _____ _____    ______ ____
ROOT
ATOM      1  C   LIG A   1      -8.736  -1.795 124.479  0.00  0.00    +0.024 C 
ENDROOT
BRANCH   1   2
ATOM      2  C   LIG A   1      -9.037  -2.655 123.223  0.00  0.00    +0.160 C 
BRANCH   2   3
ATOM      3  O   LIG A   1     -10.138  -3.542 123.329  0.00  0.00    -0.395 OA
ATOM      4  H   LIG A   1     -10.811  -3.138 123.904  0.00  0.00    +0.209 HD
ENDBRANCH   2   3
ENDBRANCH   1   2
BRANCH   1   5
ATOM      5  C   LIG A   1      -9.121  -0.273 124.234  0.00  0.00    +0.024 C 
BRANCH   5   6
ATOM      6  C   LIG A   1      -9.671  -0.200 122.792  0.00  0.00    +0.160 C 
BRANCH   6   7
ATOM      7  O   LIG A   1     -10.887   0.462 122.621  0.00  0.00    -0.395 OA
ATOM      8  H   LIG A   1     -11.529  -0.126 123.064  0.00  0.00    +0.209 HD
ENDBRANCH   6   7
ENDBRANCH   5   6
BRANCH   5   9
ATOM      9  C   LIG A   1      -7.980   0.726 124.580  0.00  0.00    +0.041 C 
BRANCH   9  10
ATOM     10  C   LIG A   1      -7.920   1.506 125.885  0.00  0.00    -0.043 A 
ATOM     11  C   LIG A   1      -8.606   1.193 127.080  0.00  0.00    +0.007 A 
ATOM     12  C   LIG A   1      -8.638   2.033 128.188  0.00  0.00    +0.050 A 
ATOM     13  C   LIG A   1      -7.828   3.096 128.244  0.00  0.00    +0.162 A 
ATOM     14  C   LIG A   1      -7.074   3.441 127.099  0.00  0.00    +0.162 A 
ATOM     15  C   LIG A   1      -7.152   2.643 125.939  0.00  0.00    +0.053 A 
BRANCH  13  16
ATOM     16  O   LIG A   1      -7.832   3.772 129.439  0.00  0.00    -0.491 OA
ATOM     17  C   LIG A   1      -8.307   3.047 130.563  0.00  0.00    +0.277 C 
ENDBRANCH  13  16
BRANCH  14  18
ATOM     18  O   LIG A   1      -6.258   4.524 127.168  0.00  0.00    -0.491 OA
ATOM     19  C   LIG A   1      -5.267   4.649 126.153  0.00  0.00    +0.277 C 
ENDBRANCH  14  18
ENDBRANCH   9  10
ENDBRANCH   5   9
ENDBRANCH   1   5
BRANCH   1  20
ATOM     20  C   LIG A   1      -9.355  -2.327 125.811  0.00  0.00    +0.041 C 
BRANCH  20  21
ATOM     21  C   LIG A   1      -8.444  -2.608 126.969  0.00  0.00    -0.043 A 
ATOM     22  C   LIG A   1      -7.222  -1.932 127.050  0.00  0.00    +0.053 A 
ATOM     23  C   LIG A   1      -6.374  -2.089 128.157  0.00  0.00    +0.162 A 
ATOM     24  C   LIG A   1      -6.771  -2.947 129.208  0.00  0.00    +0.162 A 
ATOM     25  C   LIG A   1      -7.943  -3.686 129.059  0.00  0.00    +0.050 A 
ATOM     26  C   LIG A   1      -8.721  -3.558 127.925  0.00  0.00    +0.007 A 
BRANCH  23  27
ATOM     27  O   LIG A   1      -5.167  -1.427 128.225  0.00  0.00    -0.491 OA
ATOM     28  C   LIG A   1      -5.262  -0.018 128.477  0.00  0.00    +0.277 C 
ENDBRANCH  23  27
BRANCH  24  29
ATOM     29  O   LIG A   1      -5.985  -3.089 130.324  0.00  0.00    -0.491 OA
ATOM     30  C   LIG A   1      -5.637  -4.425 130.712  0.00  0.00    +0.277 C 
ENDBRANCH  24  29
ENDBRANCH  20  21
ENDBRANCH   1  20
TORSDOF 13
ENDMDL
MODEL 7
REMARK VINA RESULT:      -6.4      3.755      8.364
REMARK  Name = NuBBE_2470
REMARK  17 active torsions:
REMARK  status: ('A' for Active; 'I' for Inactive)
REMARK    1  A    between atoms: O_1  and  C_2
REMARK    2  A    between atoms: C_2  and  C_3
REMARK    3  A    between atoms: C_3  and  C_5
REMARK    4  A    between atoms: C_3  and  C_20
REMARK    5  A    between atoms: C_5  and  C_7
REMARK    6  A    between atoms: C_5  and  C_9
REMARK    7  A    between atoms: C_7  and  O_8
REMARK    8  A    between atoms: C_9  and  C_10
REMARK    9  A    between atoms: C_13  and  O_14
REMARK   10  A    between atoms: O_14  and  C_15
REMARK   11  A    between atoms: C_16  and  O_17
REMARK   12  A    between atoms: O_17  and  C_18
REMARK   13  A    between atoms: C_20  and  C_21
REMARK   14  A    between atoms: C_23  and  O_24
REMARK   15  A    between atoms: O_24  and  C_25
REMARK   16  A    between atoms: C_26  and  O_27
REMARK   17  A    between atoms: O_27  and  C_28
REMARK                            x       y       z     vdW  Elec       q    Type
REMARK                         _______ _______ _______ _____ _____    ______ ____
ROOT
ATOM      1  C   LIG A   1      -8.956   4.785 131.572  0.00  0.00    +0.024 C 
ENDROOT
BRANCH   1   2
ATOM      2  C   LIG A   1      -8.882   4.636 133.115  0.00  0.00    +0.160 C 
BRANCH   2   3
ATOM      3  O   LIG A   1     -10.070   4.193 133.751  0.00  0.00    -0.395 OA
ATOM      4  H   LIG A   1     -10.190   4.696 134.576  0.00  0.00    +0.209 HD
ENDBRANCH   2   3
ENDBRANCH   1   2
BRANCH   1   5
ATOM      5  C   LIG A   1      -8.001   3.740 130.852  0.00  0.00    +0.024 C 
BRANCH   5   6
ATOM      6  C   LIG A   1      -7.144   4.559 129.861  0.00  0.00    +0.160 C 
BRANCH   6   7
ATOM      7  O   LIG A   1      -7.740   4.883 128.641  0.00  0.00    -0.395 OA
ATOM      8  H   LIG A   1      -7.087   5.477 128.221  0.00  0.00    +0.209 HD
ENDBRANCH   6   7
ENDBRANCH   5   6
BRANCH   5   9
ATOM      9  C   LIG A   1      -8.747   2.512 130.256  0.00  0.00    +0.041 C 
BRANCH   9  10
ATOM     10  C   LIG A   1      -8.303   1.075 130.480  0.00  0.00    -0.043 A 
ATOM     11  C   LIG A   1      -8.001   0.126 129.476  0.00  0.00    +0.007 A 
ATOM     12  C   LIG A   1      -7.757  -1.218 129.740  0.00  0.00    +0.050 A 
ATOM     13  C   LIG A   1      -7.586  -1.630 131.001  0.00  0.00    +0.162 A 
ATOM     14  C   LIG A   1      -7.824  -0.720 132.055  0.00  0.00    +0.162 A 
ATOM     15  C   LIG A   1      -8.194   0.609 131.767  0.00  0.00    +0.053 A 
BRANCH  13  16
ATOM     16  O   LIG A   1      -7.205  -2.942 131.140  0.00  0.00    -0.491 OA
ATOM     17  C   LIG A   1      -6.878  -3.626 129.941  0.00  0.00    +0.277 C 
ENDBRANCH  13  16
BRANCH  14  18
ATOM     18  O   LIG A   1      -7.650  -1.153 133.330  0.00  0.00    -0.491 OA
ATOM     19  C   LIG A   1      -6.364  -0.951 133.908  0.00  0.00    +0.277 C 
ENDBRANCH  14  18
ENDBRANCH   9  10
ENDBRANCH   5   9
ENDBRANCH   1   5
BRANCH   1  20
ATOM     20  C   LIG A   1     -10.397   4.743 130.969  0.00  0.00    +0.041 C 
BRANCH  20  21
ATOM     21  C   LIG A   1     -11.062   6.035 130.598  0.00  0.00    -0.043 A 
ATOM     22  C   LIG A   1     -10.615   6.727 129.467  0.00  0.00    +0.053 A 
ATOM     23  C   LIG A   1     -11.261   7.892 129.024  0.00  0.00    +0.162 A 
ATOM     24  C   LIG A   1     -12.385   8.367 129.737  0.00  0.00    +0.162 A 
ATOM     25  C   LIG A   1     -12.748   7.718 130.916  0.00  0.00    +0.050 A 
ATOM     26  C   LIG A   1     -12.049   6.613 131.361  0.00  0.00    +0.007 A 
BRANCH  23  27
ATOM     27  O   LIG A   1     -10.809   8.574 127.914  0.00  0.00    -0.491 OA
ATOM     28  C   LIG A   1     -10.881   7.842 126.683  0.00  0.00    +0.277 C 
ENDBRANCH  23  27
BRANCH  24  29
ATOM     29  O   LIG A   1     -13.064   9.477 129.305  0.00  0.00    -0.491 OA
ATOM     30  C   LIG A   1     -13.281  10.524 130.261  0.00  0.00    +0.277 C 
ENDBRANCH  24  29
ENDBRANCH  20  21
ENDBRANCH   1  20
TORSDOF 13
ENDMDL
MODEL 8
REMARK VINA RESULT:      -6.4      2.956      5.395
REMARK  Name = NuBBE_2470
REMARK  17 active torsions:
REMARK  status: ('A' for Active; 'I' for Inactive)
REMARK    1  A    between atoms: O_1  and  C_2
REMARK    2  A    between atoms: C_2  and  C_3
REMARK    3  A    between atoms: C_3  and  C_5
REMARK    4  A    between atoms: C_3  and  C_20
REMARK    5  A    between atoms: C_5  and  C_7
REMARK    6  A    between atoms: C_5  and  C_9
REMARK    7  A    between atoms: C_7  and  O_8
REMARK    8  A    between atoms: C_9  and  C_10
REMARK    9  A    between atoms: C_13  and  O_14
REMARK   10  A    between atoms: O_14  and  C_15
REMARK   11  A    between atoms: C_16  and  O_17
REMARK   12  A    between atoms: O_17  and  C_18
REMARK   13  A    between atoms: C_20  and  C_21
REMARK   14  A    between atoms: C_23  and  O_24
REMARK   15  A    between atoms: O_24  and  C_25
REMARK   16  A    between atoms: C_26  and  O_27
REMARK   17  A    between atoms: O_27  and  C_28
REMARK                            x       y       z     vdW  Elec       q    Type
REMARK                         _______ _______ _______ _____ _____    ______ ____
ROOT
ATOM      1  C   LIG A   1      -8.841   5.434 131.622  0.00  0.00    +0.024 C 
ENDROOT
BRANCH   1   2
ATOM      2  C   LIG A   1     -10.221   5.865 132.187  0.00  0.00    +0.160 C 
BRANCH   2   3
ATOM      3  O   LIG A   1     -10.190   6.611 133.392  0.00  0.00    -0.395 OA
ATOM      4  H   LIG A   1      -9.284   6.935 133.537  0.00  0.00    +0.209 HD
ENDBRANCH   2   3
ENDBRANCH   1   2
BRANCH   1   5
ATOM      5  C   LIG A   1      -9.012   4.414 130.417  0.00  0.00    +0.024 C 
BRANCH   5   6
ATOM      6  C   LIG A   1     -10.459   3.882 130.510  0.00  0.00    +0.160 C 
BRANCH   6   7
ATOM      7  O   LIG A   1     -10.647   2.706 131.238  0.00  0.00    -0.395 OA
ATOM      8  H   LIG A   1     -11.178   2.150 130.635  0.00  0.00    +0.209 HD
ENDBRANCH   6   7
ENDBRANCH   5   6
BRANCH   5   9
ATOM      9  C   LIG A   1      -7.892   3.336 130.342  0.00  0.00    +0.041 C 
BRANCH   9  10
ATOM     10  C   LIG A   1      -6.526   3.591 129.725  0.00  0.00    -0.043 A 
ATOM     11  C   LIG A   1      -5.277   3.217 130.272  0.00  0.00    +0.007 A 
ATOM     12  C   LIG A   1      -4.056   3.621 129.741  0.00  0.00    +0.050 A 
ATOM     13  C   LIG A   1      -4.012   4.215 128.544  0.00  0.00    +0.162 A 
ATOM     14  C   LIG A   1      -5.226   4.574 127.915  0.00  0.00    +0.162 A 
ATOM     15  C   LIG A   1      -6.456   4.266 128.532  0.00  0.00    +0.053 A 
BRANCH  13  16
ATOM     16  O   LIG A   1      -2.751   4.437 128.048  0.00  0.00    -0.491 OA
ATOM     17  C   LIG A   1      -2.198   3.394 127.263  0.00  0.00    +0.277 C 
ENDBRANCH  13  16
BRANCH  14  18
ATOM     18  O   LIG A   1      -5.167   5.179 126.701  0.00  0.00    -0.491 OA
ATOM     19  C   LIG A   1      -5.421   4.362 125.563  0.00  0.00    +0.277 C 
ENDBRANCH  14  18
ENDBRANCH   9  10
ENDBRANCH   5   9
ENDBRANCH   1   5
BRANCH   1  20
ATOM     20  C   LIG A   1      -7.883   6.607 131.240  0.00  0.00    +0.041 C 
BRANCH  20  21
ATOM     21  C   LIG A   1      -6.446   6.533 131.658  0.00  0.00    -0.043 A 
ATOM     22  C   LIG A   1      -5.459   6.992 130.778  0.00  0.00    +0.053 A 
ATOM     23  C   LIG A   1      -4.108   7.028 131.154  0.00  0.00    +0.162 A 
ATOM     24  C   LIG A   1      -3.744   6.595 132.450  0.00  0.00    +0.162 A 
ATOM     25  C   LIG A   1      -4.730   6.049 133.271  0.00  0.00    +0.050 A 
ATOM     26  C   LIG A   1      -6.040   5.965 132.844  0.00  0.00    +0.007 A 
BRANCH  23  27
ATOM     27  O   LIG A   1      -3.140   7.473 130.279  0.00  0.00    -0.491 OA
ATOM     28  C   LIG A   1      -3.632   7.921 129.009  0.00  0.00    +0.277 C 
ENDBRANCH  23  27
BRANCH  24  29
ATOM     29  O   LIG A   1      -2.438   6.659 132.864  0.00  0.00    -0.491 OA
ATOM     30  C   LIG A   1      -2.166   7.401 134.061  0.00  0.00    +0.277 C 
ENDBRANCH  24  29
ENDBRANCH  20  21
ENDBRANCH   1  20
TORSDOF 13
ENDMDL
MODEL 9
REMARK VINA RESULT:      -6.4      6.433      9.471
REMARK  Name = NuBBE_2470
REMARK  17 active torsions:
REMARK  status: ('A' for Active; 'I' for Inactive)
REMARK    1  A    between atoms: O_1  and  C_2
REMARK    2  A    between atoms: C_2  and  C_3
REMARK    3  A    between atoms: C_3  and  C_5
REMARK    4  A    between atoms: C_3  and  C_20
REMARK    5  A    between atoms: C_5  and  C_7
REMARK    6  A    between atoms: C_5  and  C_9
REMARK    7  A    between atoms: C_7  and  O_8
REMARK    8  A    between atoms: C_9  and  C_10
REMARK    9  A    between atoms: C_13  and  O_14
REMARK   10  A    between atoms: O_14  and  C_15
REMARK   11  A    between atoms: C_16  and  O_17
REMARK   12  A    between atoms: O_17  and  C_18
REMARK   13  A    between atoms: C_20  and  C_21
REMARK   14  A    between atoms: C_23  and  O_24
REMARK   15  A    between atoms: O_24  and  C_25
REMARK   16  A    between atoms: C_26  and  O_27
REMARK   17  A    between atoms: O_27  and  C_28
REMARK                            x       y       z     vdW  Elec       q    Type
REMARK                         _______ _______ _______ _____ _____    ______ ____
ROOT
ATOM      1  C   LIG A   1      -6.919  -1.701 130.663  0.00  0.00    +0.024 C 
ENDROOT
BRANCH   1   2
ATOM      2  C   LIG A   1      -5.566  -1.615 131.417  0.00  0.00    +0.160 C 
BRANCH   2   3
ATOM      3  O   LIG A   1      -5.594  -0.937 132.662  0.00  0.00    -0.395 OA
ATOM      4  H   LIG A   1      -4.884  -1.289 133.227  0.00  0.00    +0.209 HD
ENDBRANCH   2   3
ENDBRANCH   1   2
BRANCH   1   5
ATOM      5  C   LIG A   1      -7.237  -3.196 130.231  0.00  0.00    +0.024 C 
BRANCH   5   6
ATOM      6  C   LIG A   1      -5.868  -3.894 130.073  0.00  0.00    +0.160 C 
BRANCH   6   7
ATOM      7  O   LIG A   1      -5.724  -5.134 130.697  0.00  0.00    -0.395 OA
ATOM      8  H   LIG A   1      -5.656  -5.757 129.947  0.00  0.00    +0.209 HD
ENDBRANCH   6   7
ENDBRANCH   5   6
BRANCH   5   9
ATOM      9  C   LIG A   1      -8.204  -3.308 129.018  0.00  0.00    +0.041 C 
BRANCH   9  10
ATOM     10  C   LIG A   1      -7.887  -2.744 127.641  0.00  0.00    -0.043 A 
ATOM     11  C   LIG A   1      -6.662  -2.167 127.234  0.00  0.00    +0.007 A 
ATOM     12  C   LIG A   1      -6.486  -1.524 126.014  0.00  0.00    +0.050 A 
ATOM     13  C   LIG A   1      -7.428  -1.614 125.070  0.00  0.00    +0.162 A 
ATOM     14  C   LIG A   1      -8.663  -2.223 125.392  0.00  0.00    +0.162 A 
ATOM     15  C   LIG A   1      -8.866  -2.759 126.680  0.00  0.00    +0.053 A 
BRANCH  13  16
ATOM     16  O   LIG A   1      -7.092  -1.069 123.855  0.00  0.00    -0.491 OA
ATOM     17  C   LIG A   1      -6.919   0.338 123.830  0.00  0.00    +0.277 C 
ENDBRANCH  13  16
BRANCH  14  18
ATOM     18  O   LIG A   1      -9.612  -2.306 124.425  0.00  0.00    -0.491 OA
ATOM     19  C   LIG A   1      -9.544  -3.429 123.552  0.00  0.00    +0.277 C 
ENDBRANCH  14  18
ENDBRANCH   9  10
ENDBRANCH   5   9
ENDBRANCH   1   5
BRANCH   1  20
ATOM     20  C   LIG A   1      -8.134  -1.054 131.403  0.00  0.00    +0.041 C 
BRANCH  20  21
ATOM     21  C   LIG A   1      -8.562   0.330 131.017  0.00  0.00    -0.043 A 
ATOM     22  C   LIG A   1      -8.284   0.789 129.725  0.00  0.00    +0.053 A 
ATOM     23  C   LIG A   1      -8.741   2.041 129.284  0.00  0.00    +0.162 A 
ATOM     24  C   LIG A   1      -9.498   2.845 130.166  0.00  0.00    +0.162 A 
ATOM     25  C   LIG A   1      -9.674   2.410 131.478  0.00  0.00    +0.050 A 
ATOM     26  C   LIG A   1      -9.153   1.203 131.900  0.00  0.00    +0.007 A 
BRANCH  23  27
ATOM     27  O   LIG A   1      -8.456   2.491 128.012  0.00  0.00    -0.491 OA
ATOM     28  C   LIG A   1      -8.508   1.488 126.988  0.00  0.00    +0.277 C 
ENDBRANCH  23  27
BRANCH  24  29
ATOM     29  O   LIG A   1      -9.995   4.054 129.751  0.00  0.00    -0.491 OA
ATOM     30  C   LIG A   1     -11.085   4.606 130.503  0.00  0.00    +0.277 C 
ENDBRANCH  24  29
ENDBRANCH  20  21
ENDBRANCH   1  20
TORSDOF 13
ENDMDL
