MODEL 1
REMARK VINA RESULT:      -6.4      0.000      0.000
REMARK  Name = NuBBE_1006
REMARK  3 active torsions:
REMARK  status: ('A' for Active; 'I' for Inactive)
REMARK    1  A    between atoms: C_4  and  O_5
REMARK    2  A    between atoms: C_11  and  O_13
REMARK    3  A    between atoms: C_14  and  C_16
REMARK                            x       y       z     vdW  Elec       q    Type
REMARK                         _______ _______ _______ _____ _____    ______ ____
ROOT
ATOM      1  O   LIG A   1      -9.323   6.114 127.548  0.00  0.00    -0.245 OA
ATOM      2  C   LIG A   1      -9.828   6.161 128.662  0.00  0.00    +0.343 C 
ATOM      3  C   LIG A   1     -10.972   7.068 128.939  0.00  0.00    +0.106 A 
ATOM      4  C   LIG A   1     -11.507   7.847 127.902  0.00  0.00    +0.131 A 
ATOM      5  C   LIG A   1     -12.525   8.761 128.156  0.00  0.00    +0.046 A 
ATOM      6  C   LIG A   1     -13.012   8.918 129.451  0.00  0.00    +0.004 A 
ATOM      7  C   LIG A   1     -12.498   8.141 130.488  0.00  0.00    +0.007 A 
ATOM      8  C   LIG A   1     -11.494   7.190 130.239  0.00  0.00    +0.002 A 
ATOM      9  C   LIG A   1     -10.921   6.354 131.353  0.00  0.00    +0.186 C 
ATOM     10  C   LIG A   1     -10.234   5.100 130.788  0.00  0.00    +0.206 C 
ATOM     11  C   LIG A   1     -11.181   3.989 130.331  0.00  0.00    +0.055 C 
ATOM     12  O   LIG A   1      -9.348   5.435 129.704  0.00  0.00    -0.455 OA
ENDROOT
BRANCH   4  13
ATOM     13  O   LIG A   1     -11.079   7.773 126.603  0.00  0.00    -0.506 OA
ATOM     14  H   LIG A   1     -10.384   8.455 126.459  0.00  0.00    +0.292 HD
ENDBRANCH   4  13
BRANCH   9  15
ATOM     15  O   LIG A   1     -11.919   5.983 132.301  0.00  0.00    -0.384 OA
ATOM     16  H   LIG A   1     -12.541   6.727 132.392  0.00  0.00    +0.210 HD
ENDBRANCH   9  15
TORSDOF 2
ENDMDL
MODEL 2
REMARK VINA RESULT:      -6.1      1.587      3.641
REMARK  Name = NuBBE_1006
REMARK  3 active torsions:
REMARK  status: ('A' for Active; 'I' for Inactive)
REMARK    1  A    between atoms: C_4  and  O_5
REMARK    2  A    between atoms: C_11  and  O_13
REMARK    3  A    between atoms: C_14  and  C_16
REMARK                            x       y       z     vdW  Elec       q    Type
REMARK                         _______ _______ _______ _____ _____    ______ ____
ROOT
ATOM      1  O   LIG A   1      -9.386   6.094 127.945  0.00  0.00    -0.245 OA
ATOM      2  C   LIG A   1     -10.261   6.267 128.783  0.00  0.00    +0.343 C 
ATOM      3  C   LIG A   1      -9.936   6.244 130.234  0.00  0.00    +0.106 A 
ATOM      4  C   LIG A   1      -8.607   6.065 130.645  0.00  0.00    +0.131 A 
ATOM      5  C   LIG A   1      -8.291   5.960 131.997  0.00  0.00    +0.046 A 
ATOM      6  C   LIG A   1      -9.302   6.020 132.953  0.00  0.00    +0.004 A 
ATOM      7  C   LIG A   1     -10.626   6.210 132.558  0.00  0.00    +0.007 A 
ATOM      8  C   LIG A   1     -10.953   6.351 131.198  0.00  0.00    +0.002 A 
ATOM      9  C   LIG A   1     -12.381   6.544 130.758  0.00  0.00    +0.186 C 
ATOM     10  C   LIG A   1     -12.433   7.147 129.345  0.00  0.00    +0.206 C 
ATOM     11  C   LIG A   1     -12.120   8.643 129.264  0.00  0.00    +0.055 C 
ATOM     12  O   LIG A   1     -11.563   6.438 128.444  0.00  0.00    -0.455 OA
ENDROOT
BRANCH   4  13
ATOM     13  O   LIG A   1      -7.552   5.977 129.775  0.00  0.00    -0.506 OA
ATOM     14  H   LIG A   1      -7.225   6.884 129.580  0.00  0.00    +0.292 HD
ENDBRANCH   4  13
BRANCH   9  15
ATOM     15  O   LIG A   1     -13.108   7.364 131.670  0.00  0.00    -0.384 OA
ATOM     16  H   LIG A   1     -13.156   6.897 132.523  0.00  0.00    +0.210 HD
ENDBRANCH   9  15
TORSDOF 2
ENDMDL
MODEL 3
REMARK VINA RESULT:      -5.7      2.372      3.047
REMARK  Name = NuBBE_1006
REMARK  3 active torsions:
REMARK  status: ('A' for Active; 'I' for Inactive)
REMARK    1  A    between atoms: C_4  and  O_5
REMARK    2  A    between atoms: C_11  and  O_13
REMARK    3  A    between atoms: C_14  and  C_16
REMARK                            x       y       z     vdW  Elec       q    Type
REMARK                         _______ _______ _______ _____ _____    ______ ____
ROOT
ATOM      1  O   LIG A   1      -7.204   7.494 130.399  0.00  0.00    -0.245 OA
ATOM      2  C   LIG A   1      -7.836   6.832 131.210  0.00  0.00    +0.343 C 
ATOM      3  C   LIG A   1      -9.319   6.748 131.131  0.00  0.00    +0.106 A 
ATOM      4  C   LIG A   1      -9.996   7.400 130.089  0.00  0.00    +0.131 A 
ATOM      5  C   LIG A   1     -11.387   7.402 130.041  0.00  0.00    +0.046 A 
ATOM      6  C   LIG A   1     -12.118   6.764 131.040  0.00  0.00    +0.004 A 
ATOM      7  C   LIG A   1     -11.457   6.102 132.074  0.00  0.00    +0.007 A 
ATOM      8  C   LIG A   1     -10.053   6.063 132.115  0.00  0.00    +0.002 A 
ATOM      9  C   LIG A   1      -9.327   5.363 133.234  0.00  0.00    +0.186 C 
ATOM     10  C   LIG A   1      -7.883   5.038 132.820  0.00  0.00    +0.206 C 
ATOM     11  C   LIG A   1      -7.730   3.850 131.867  0.00  0.00    +0.055 C 
ATOM     12  O   LIG A   1      -7.236   6.186 132.242  0.00  0.00    -0.455 OA
ENDROOT
BRANCH   4  13
ATOM     13  O   LIG A   1      -9.360   8.067 129.076  0.00  0.00    -0.506 OA
ATOM     14  H   LIG A   1      -9.367   7.502 128.271  0.00  0.00    +0.292 HD
ENDBRANCH   4  13
BRANCH   9  15
ATOM     15  O   LIG A   1     -10.002   4.174 133.638  0.00  0.00    -0.384 OA
ATOM     16  H   LIG A   1      -9.511   3.786 134.384  0.00  0.00    +0.210 HD
ENDBRANCH   9  15
TORSDOF 2
ENDMDL
MODEL 4
REMARK VINA RESULT:      -5.7     10.146     11.243
REMARK  Name = NuBBE_1006
REMARK  3 active torsions:
REMARK  status: ('A' for Active; 'I' for Inactive)
REMARK    1  A    between atoms: C_4  and  O_5
REMARK    2  A    between atoms: C_11  and  O_13
REMARK    3  A    between atoms: C_14  and  C_16
REMARK                            x       y       z     vdW  Elec       q    Type
REMARK                         _______ _______ _______ _____ _____    ______ ____
ROOT
ATOM      1  O   LIG A   1      -5.204  -1.238 124.924  0.00  0.00    -0.245 OA
ATOM      2  C   LIG A   1      -6.249  -1.821 124.670  0.00  0.00    +0.343 C 
ATOM      3  C   LIG A   1      -7.118  -2.330 125.765  0.00  0.00    +0.106 A 
ATOM      4  C   LIG A   1      -6.758  -2.101 127.101  0.00  0.00    +0.131 A 
ATOM      5  C   LIG A   1      -7.513  -2.636 128.140  0.00  0.00    +0.046 A 
ATOM      6  C   LIG A   1      -8.630  -3.418 127.857  0.00  0.00    +0.004 A 
ATOM      7  C   LIG A   1      -9.006  -3.643 126.533  0.00  0.00    +0.007 A 
ATOM      8  C   LIG A   1      -8.272  -3.080 125.475  0.00  0.00    +0.002 A 
ATOM      9  C   LIG A   1      -8.660  -3.326 124.041  0.00  0.00    +0.186 C 
ATOM     10  C   LIG A   1      -8.047  -2.256 123.125  0.00  0.00    +0.206 C 
ATOM     11  C   LIG A   1      -8.738  -0.892 123.163  0.00  0.00    +0.055 C 
ATOM     12  O   LIG A   1      -6.645  -2.077 123.398  0.00  0.00    -0.455 OA
ENDROOT
BRANCH   4  13
ATOM     13  O   LIG A   1      -5.666  -1.361 127.473  0.00  0.00    -0.506 OA
ATOM     14  H   LIG A   1      -5.774  -0.444 127.132  0.00  0.00    +0.292 HD
ENDBRANCH   4  13
BRANCH   9  15
ATOM     15  O   LIG A   1     -10.076  -3.362 123.877  0.00  0.00    -0.384 OA
ATOM     16  H   LIG A   1     -10.327  -4.266 123.614  0.00  0.00    +0.210 HD
ENDBRANCH   9  15
TORSDOF 2
ENDMDL
MODEL 5
REMARK VINA RESULT:      -5.6      1.849      2.069
REMARK  Name = NuBBE_1006
REMARK  3 active torsions:
REMARK  status: ('A' for Active; 'I' for Inactive)
REMARK    1  A    between atoms: C_4  and  O_5
REMARK    2  A    between atoms: C_11  and  O_13
REMARK    3  A    between atoms: C_14  and  C_16
REMARK                            x       y       z     vdW  Elec       q    Type
REMARK                         _______ _______ _______ _____ _____    ______ ____
ROOT
ATOM      1  O   LIG A   1      -8.185   7.665 130.271  0.00  0.00    -0.245 OA
ATOM      2  C   LIG A   1      -9.022   6.779 130.372  0.00  0.00    +0.343 C 
ATOM      3  C   LIG A   1     -10.320   6.877 129.653  0.00  0.00    +0.106 A 
ATOM      4  C   LIG A   1     -10.569   7.976 128.817  0.00  0.00    +0.131 A 
ATOM      5  C   LIG A   1     -11.807   8.129 128.199  0.00  0.00    +0.046 A 
ATOM      6  C   LIG A   1     -12.814   7.193 128.418  0.00  0.00    +0.004 A 
ATOM      7  C   LIG A   1     -12.576   6.090 129.237  0.00  0.00    +0.007 A 
ATOM      8  C   LIG A   1     -11.319   5.906 129.840  0.00  0.00    +0.002 A 
ATOM      9  C   LIG A   1     -11.053   4.725 130.737  0.00  0.00    +0.186 C 
ATOM     10  C   LIG A   1      -9.541   4.478 130.868  0.00  0.00    +0.206 C 
ATOM     11  C   LIG A   1      -8.883   3.812 129.658  0.00  0.00    +0.055 C 
ATOM     12  O   LIG A   1      -8.838   5.698 131.170  0.00  0.00    -0.455 OA
ENDROOT
BRANCH   4  13
ATOM     13  O   LIG A   1      -9.645   8.954 128.559  0.00  0.00    -0.506 OA
ATOM     14  H   LIG A   1      -8.973   8.953 129.276  0.00  0.00    +0.292 HD
ENDBRANCH   4  13
BRANCH   9  15
ATOM     15  O   LIG A   1     -11.705   3.548 130.267  0.00  0.00    -0.384 OA
ATOM     16  H   LIG A   1     -12.607   3.536 130.633  0.00  0.00    +0.210 HD
ENDBRANCH   9  15
TORSDOF 2
ENDMDL
MODEL 6
REMARK VINA RESULT:      -5.2      7.458      9.419
REMARK  Name = NuBBE_1006
REMARK  3 active torsions:
REMARK  status: ('A' for Active; 'I' for Inactive)
REMARK    1  A    between atoms: C_4  and  O_5
REMARK    2  A    between atoms: C_11  and  O_13
REMARK    3  A    between atoms: C_14  and  C_16
REMARK                            x       y       z     vdW  Elec       q    Type
REMARK                         _______ _______ _______ _____ _____    ______ ____
ROOT
ATOM      1  O   LIG A   1     -10.892   1.205 123.978  0.00  0.00    -0.245 OA
ATOM      2  C   LIG A   1      -9.752   1.277 124.415  0.00  0.00    +0.343 C 
ATOM      3  C   LIG A   1      -8.729   0.268 124.034  0.00  0.00    +0.106 A 
ATOM      4  C   LIG A   1      -9.063  -0.752 123.130  0.00  0.00    +0.131 A 
ATOM      5  C   LIG A   1      -8.146  -1.752 122.821  0.00  0.00    +0.046 A 
ATOM      6  C   LIG A   1      -6.889  -1.754 123.421  0.00  0.00    +0.004 A 
ATOM      7  C   LIG A   1      -6.540  -0.739 124.312  0.00  0.00    +0.007 A 
ATOM      8  C   LIG A   1      -7.445   0.296 124.606  0.00  0.00    +0.002 A 
ATOM      9  C   LIG A   1      -7.085   1.390 125.576  0.00  0.00    +0.186 C 
ATOM     10  C   LIG A   1      -7.987   2.616 125.365  0.00  0.00    +0.206 C 
ATOM     11  C   LIG A   1      -7.646   3.474 124.145  0.00  0.00    +0.055 C 
ATOM     12  O   LIG A   1      -9.374   2.237 125.297  0.00  0.00    -0.455 OA
ENDROOT
BRANCH   4  13
ATOM     13  O   LIG A   1     -10.279  -0.841 122.506  0.00  0.00    -0.506 OA
ATOM     14  H   LIG A   1     -10.827  -1.509 122.975  0.00  0.00    +0.292 HD
ENDBRANCH   4  13
BRANCH   9  15
ATOM     15  O   LIG A   1      -5.713   1.764 125.465  0.00  0.00    -0.384 OA
ATOM     16  H   LIG A   1      -5.544   2.018 124.540  0.00  0.00    +0.210 HD
ENDBRANCH   9  15
TORSDOF 2
ENDMDL
MODEL 7
REMARK VINA RESULT:      -5.2      3.127      4.734
REMARK  Name = NuBBE_1006
REMARK  3 active torsions:
REMARK  status: ('A' for Active; 'I' for Inactive)
REMARK    1  A    between atoms: C_4  and  O_5
REMARK    2  A    between atoms: C_11  and  O_13
REMARK    3  A    between atoms: C_14  and  C_16
REMARK                            x       y       z     vdW  Elec       q    Type
REMARK                         _______ _______ _______ _____ _____    ______ ____
ROOT
ATOM      1  O   LIG A   1      -8.846   4.990 128.119  0.00  0.00    -0.245 OA
ATOM      2  C   LIG A   1      -8.992   5.274 129.300  0.00  0.00    +0.343 C 
ATOM      3  C   LIG A   1      -9.125   4.206 130.326  0.00  0.00    +0.106 A 
ATOM      4  C   LIG A   1      -9.038   2.860 129.942  0.00  0.00    +0.131 A 
ATOM      5  C   LIG A   1      -9.239   1.843 130.872  0.00  0.00    +0.046 A 
ATOM      6  C   LIG A   1      -9.541   2.160 132.193  0.00  0.00    +0.004 A 
ATOM      7  C   LIG A   1      -9.618   3.494 132.591  0.00  0.00    +0.007 A 
ATOM      8  C   LIG A   1      -9.383   4.529 131.670  0.00  0.00    +0.002 A 
ATOM      9  C   LIG A   1      -9.476   5.975 132.084  0.00  0.00    +0.186 C 
ATOM     10  C   LIG A   1      -8.725   6.871 131.086  0.00  0.00    +0.206 C 
ATOM     11  C   LIG A   1      -7.200   6.848 131.210  0.00  0.00    +0.055 C 
ATOM     12  O   LIG A   1      -9.089   6.558 129.729  0.00  0.00    -0.455 OA
ENDROOT
BRANCH   4  13
ATOM     13  O   LIG A   1      -8.763   2.455 128.662  0.00  0.00    -0.506 OA
ATOM     14  H   LIG A   1      -8.001   2.975 128.322  0.00  0.00    +0.292 HD
ENDBRANCH   4  13
BRANCH   9  15
ATOM     15  O   LIG A   1      -8.974   6.179 133.403  0.00  0.00    -0.384 OA
ATOM     16  H   LIG A   1      -8.339   6.917 133.373  0.00  0.00    +0.210 HD
ENDBRANCH   9  15
TORSDOF 2
ENDMDL
MODEL 8
REMARK VINA RESULT:      -5.2      7.993      9.638
REMARK  Name = NuBBE_1006
REMARK  3 active torsions:
REMARK  status: ('A' for Active; 'I' for Inactive)
REMARK    1  A    between atoms: C_4  and  O_5
REMARK    2  A    between atoms: C_11  and  O_13
REMARK    3  A    between atoms: C_14  and  C_16
REMARK                            x       y       z     vdW  Elec       q    Type
REMARK                         _______ _______ _______ _____ _____    ______ ____
ROOT
ATOM      1  O   LIG A   1      -9.638  -0.545 124.432  0.00  0.00    -0.245 OA
ATOM      2  C   LIG A   1      -8.907  -0.354 125.394  0.00  0.00    +0.343 C 
ATOM      3  C   LIG A   1      -8.642  -1.441 126.374  0.00  0.00    +0.106 A 
ATOM      4  C   LIG A   1      -9.201  -2.711 126.168  0.00  0.00    +0.131 A 
ATOM      5  C   LIG A   1      -9.032  -3.720 127.112  0.00  0.00    +0.046 A 
ATOM      6  C   LIG A   1      -8.314  -3.468 128.278  0.00  0.00    +0.004 A 
ATOM      7  C   LIG A   1      -7.743  -2.214 128.489  0.00  0.00    +0.007 A 
ATOM      8  C   LIG A   1      -7.877  -1.197 127.527  0.00  0.00    +0.002 A 
ATOM      9  C   LIG A   1      -7.275   0.166 127.749  0.00  0.00    +0.186 C 
ATOM     10  C   LIG A   1      -7.128   0.914 126.414  0.00  0.00    +0.206 C 
ATOM     11  C   LIG A   1      -5.963   0.453 125.535  0.00  0.00    +0.055 C 
ATOM     12  O   LIG A   1      -8.344   0.855 125.647  0.00  0.00    -0.455 OA
ENDROOT
BRANCH   4  13
ATOM     13  O   LIG A   1      -9.936  -3.044 125.062  0.00  0.00    -0.506 OA
ATOM     14  H   LIG A   1     -10.727  -3.553 125.348  0.00  0.00    +0.292 HD
ENDBRANCH   4  13
BRANCH   9  15
ATOM     15  O   LIG A   1      -6.015   0.086 128.410  0.00  0.00    -0.384 OA
ATOM     16  H   LIG A   1      -5.590  -0.750 128.149  0.00  0.00    +0.210 HD
ENDBRANCH   9  15
TORSDOF 2
ENDMDL
MODEL 9
REMARK VINA RESULT:      -5.0      7.614      9.258
REMARK  Name = NuBBE_1006
REMARK  3 active torsions:
REMARK  status: ('A' for Active; 'I' for Inactive)
REMARK    1  A    between atoms: C_4  and  O_5
REMARK    2  A    between atoms: C_11  and  O_13
REMARK    3  A    between atoms: C_14  and  C_16
REMARK                            x       y       z     vdW  Elec       q    Type
REMARK                         _______ _______ _______ _____ _____    ______ ____
ROOT
ATOM      1  O   LIG A   1      -8.972   1.556 126.873  0.00  0.00    -0.245 OA
ATOM      2  C   LIG A   1      -8.676   0.475 126.383  0.00  0.00    +0.343 C 
ATOM      3  C   LIG A   1      -9.018   0.165 124.969  0.00  0.00    +0.106 A 
ATOM      4  C   LIG A   1      -9.646   1.138 124.177  0.00  0.00    +0.131 A 
ATOM      5  C   LIG A   1     -10.046   0.843 122.877  0.00  0.00    +0.046 A 
ATOM      6  C   LIG A   1      -9.836  -0.432 122.357  0.00  0.00    +0.004 A 
ATOM      7  C   LIG A   1      -9.201  -1.404 123.129  0.00  0.00    +0.007 A 
ATOM      8  C   LIG A   1      -8.761  -1.109 124.431  0.00  0.00    +0.002 A 
ATOM      9  C   LIG A   1      -8.087  -2.154 125.280  0.00  0.00    +0.186 C 
ATOM     10  C   LIG A   1      -7.286  -1.494 126.414  0.00  0.00    +0.206 C 
ATOM     11  C   LIG A   1      -5.958  -0.862 125.991  0.00  0.00    +0.055 C 
ATOM     12  O   LIG A   1      -8.075  -0.506 127.102  0.00  0.00    -0.455 OA
ENDROOT
BRANCH   4  13
ATOM     13  O   LIG A   1      -9.910   2.410 124.611  0.00  0.00    -0.506 OA
ATOM     14  H   LIG A   1     -10.635   2.375 125.274  0.00  0.00    +0.292 HD
ENDBRANCH   4  13
BRANCH   9  15
ATOM     15  O   LIG A   1      -7.237  -2.996 124.504  0.00  0.00    -0.384 OA
ATOM     16  H   LIG A   1      -6.554  -3.361 125.094  0.00  0.00    +0.210 HD
ENDBRANCH   9  15
TORSDOF 2
ENDMDL
