MODEL 1
REMARK VINA RESULT:      -7.2      0.000      0.000
REMARK  Name = NuBBE_2062
REMARK  6 active torsions:
REMARK  status: ('A' for Active; 'I' for Inactive)
REMARK    1  A    between atoms: C_1  and  O_2
REMARK    2  A    between atoms: O_2  and  C_3
REMARK    3  A    between atoms: C_16  and  O_17
REMARK    4  A    between atoms: O_17  and  C_18
REMARK    5  A    between atoms: C_19  and  O_20
REMARK    6  A    between atoms: O_20  and  C_21
REMARK                            x       y       z     vdW  Elec       q    Type
REMARK                         _______ _______ _______ _____ _____    ______ ____
ROOT
ATOM      1  C   LIG A   1      -7.939  -2.156 128.116  0.00  0.00    +0.147 C 
ATOM      2  C   LIG A   1      -6.456  -1.889 128.168  0.00  0.00    +0.005 C 
ATOM      3  C   LIG A   1      -5.640  -1.974 127.107  0.00  0.00    +0.008 C 
ATOM      4  C   LIG A   1      -6.175  -2.301 125.820  0.00  0.00    +0.009 C 
ATOM      5  C   LIG A   1      -5.485  -2.816 124.792  0.00  0.00    +0.033 C 
ATOM      6  C   LIG A   1      -6.425  -3.299 123.734  0.00  0.00    +0.160 C 
ATOM      7  N   LIG A   1      -7.803  -3.303 124.385  0.00  0.00    +0.231 N 
ATOM      8  O   LIG A   1      -8.008  -4.596 124.882  0.00  0.00    -0.774 OA
ATOM      9  C   LIG A   1      -8.942  -3.032 123.455  0.00  0.00    +0.136 C 
ATOM     10  C   LIG A   1      -8.894  -1.681 122.786  0.00  0.00    +0.086 C 
ATOM     11  C   LIG A   1      -8.599  -0.566 123.747  0.00  0.00    -0.029 A 
ATOM     12  C   LIG A   1      -8.857   0.747 123.313  0.00  0.00    +0.053 A 
ATOM     13  C   LIG A   1      -8.583   1.860 124.114  0.00  0.00    +0.162 A 
ATOM     14  C   LIG A   1      -7.997   1.662 125.366  0.00  0.00    +0.162 A 
ATOM     15  C   LIG A   1      -7.760   0.350 125.805  0.00  0.00    +0.059 A 
ATOM     16  C   LIG A   1      -8.031  -0.789 125.012  0.00  0.00    +0.015 A 
ATOM     17  C   LIG A   1      -7.680  -2.222 125.529  0.00  0.00    +0.044 C 
ATOM     18  C   LIG A   1      -8.544  -2.585 126.761  0.00  0.00    +0.103 C 
ENDROOT
BRANCH   1  20
ATOM     19  C   LIG A   1      -7.355  -3.198 130.222  0.00  0.00    +0.194 C 
ATOM     20  O   LIG A   1      -8.312  -3.053 129.174  0.00  0.00    -0.376 OA
ENDBRANCH   1  20
BRANCH  13  21
ATOM     21  O   LIG A   1      -8.871   3.052 123.507  0.00  0.00    -0.491 OA
ATOM     22  C   LIG A   1      -8.518   3.171 122.134  0.00  0.00    +0.277 C 
ENDBRANCH  13  21
BRANCH  14  23
ATOM     23  O   LIG A   1      -7.678   2.756 126.128  0.00  0.00    -0.491 OA
ATOM     24  C   LIG A   1      -6.339   3.231 126.022  0.00  0.00    +0.277 C 
ENDBRANCH  14  23
TORSDOF 3
ENDMDL
MODEL 2
REMARK VINA RESULT:      -7.1      1.868      4.187
REMARK  Name = NuBBE_2062
REMARK  6 active torsions:
REMARK  status: ('A' for Active; 'I' for Inactive)
REMARK    1  A    between atoms: C_1  and  O_2
REMARK    2  A    between atoms: O_2  and  C_3
REMARK    3  A    between atoms: C_16  and  O_17
REMARK    4  A    between atoms: O_17  and  C_18
REMARK    5  A    between atoms: C_19  and  O_20
REMARK    6  A    between atoms: O_20  and  C_21
REMARK                            x       y       z     vdW  Elec       q    Type
REMARK                         _______ _______ _______ _____ _____    ______ ____
ROOT
ATOM      1  C   LIG A   1      -6.064  -2.345 123.647  0.00  0.00    +0.147 C 
ATOM      2  C   LIG A   1      -7.419  -3.004 123.682  0.00  0.00    +0.005 C 
ATOM      3  C   LIG A   1      -8.210  -3.038 124.765  0.00  0.00    +0.008 C 
ATOM      4  C   LIG A   1      -7.796  -2.390 125.972  0.00  0.00    +0.009 C 
ATOM      5  C   LIG A   1      -8.243  -2.669 127.205  0.00  0.00    +0.033 C 
ATOM      6  C   LIG A   1      -7.374  -2.008 128.227  0.00  0.00    +0.160 C 
ATOM      7  N   LIG A   1      -6.138  -1.540 127.469  0.00  0.00    +0.231 N 
ATOM      8  O   LIG A   1      -5.181  -2.554 127.596  0.00  0.00    -0.774 OA
ATOM      9  C   LIG A   1      -5.499  -0.300 128.006  0.00  0.00    +0.136 C 
ATOM     10  C   LIG A   1      -6.386   0.920 127.981  0.00  0.00    +0.086 C 
ATOM     11  C   LIG A   1      -7.088   1.102 126.667  0.00  0.00    -0.029 A 
ATOM     12  C   LIG A   1      -7.666   2.360 126.411  0.00  0.00    +0.053 A 
ATOM     13  C   LIG A   1      -8.375   2.625 125.236  0.00  0.00    +0.162 A 
ATOM     14  C   LIG A   1      -8.549   1.597 124.307  0.00  0.00    +0.162 A 
ATOM     15  C   LIG A   1      -7.953   0.349 124.554  0.00  0.00    +0.059 A 
ATOM     16  C   LIG A   1      -7.231   0.062 125.735  0.00  0.00    +0.015 A 
ATOM     17  C   LIG A   1      -6.650  -1.368 125.986  0.00  0.00    +0.044 C 
ATOM     18  C   LIG A   1      -5.547  -1.698 124.952  0.00  0.00    +0.103 C 
ENDROOT
BRANCH   1  20
ATOM     19  C   LIG A   1      -4.543  -4.199 123.979  0.00  0.00    +0.194 C 
ATOM     20  O   LIG A   1      -5.097  -3.241 123.078  0.00  0.00    -0.376 OA
ENDBRANCH   1  20
BRANCH  13  21
ATOM     21  O   LIG A   1      -8.889   3.892 125.184  0.00  0.00    -0.491 OA
ATOM     22  C   LIG A   1      -8.119   4.919 125.798  0.00  0.00    +0.277 C 
ENDBRANCH  13  21
BRANCH  14  23
ATOM     23  O   LIG A   1      -9.289   1.841 123.180  0.00  0.00    -0.491 OA
ATOM     24  C   LIG A   1     -10.064   0.753 122.685  0.00  0.00    +0.277 C 
ENDBRANCH  14  23
TORSDOF 3
ENDMDL
MODEL 3
REMARK VINA RESULT:      -7.0      2.322      4.863
REMARK  Name = NuBBE_2062
REMARK  6 active torsions:
REMARK  status: ('A' for Active; 'I' for Inactive)
REMARK    1  A    between atoms: C_1  and  O_2
REMARK    2  A    between atoms: O_2  and  C_3
REMARK    3  A    between atoms: C_16  and  O_17
REMARK    4  A    between atoms: O_17  and  C_18
REMARK    5  A    between atoms: C_19  and  O_20
REMARK    6  A    between atoms: O_20  and  C_21
REMARK                            x       y       z     vdW  Elec       q    Type
REMARK                         _______ _______ _______ _____ _____    ______ ____
ROOT
ATOM      1  C   LIG A   1      -6.181  -2.403 125.519  0.00  0.00    +0.147 C 
ATOM      2  C   LIG A   1      -7.550  -2.995 125.304  0.00  0.00    +0.005 C 
ATOM      3  C   LIG A   1      -8.413  -3.273 126.293  0.00  0.00    +0.008 C 
ATOM      4  C   LIG A   1      -8.066  -2.971 127.648  0.00  0.00    +0.009 C 
ATOM      5  C   LIG A   1      -8.601  -3.537 128.740  0.00  0.00    +0.033 C 
ATOM      6  C   LIG A   1      -7.787  -3.194 129.947  0.00  0.00    +0.160 C 
ATOM      7  N   LIG A   1      -6.492  -2.598 129.408  0.00  0.00    +0.231 N 
ATOM      8  O   LIG A   1      -5.570  -3.648 129.327  0.00  0.00    -0.774 OA
ATOM      9  C   LIG A   1      -5.862  -1.562 130.283  0.00  0.00    +0.136 C 
ATOM     10  C   LIG A   1      -6.717  -0.342 130.520  0.00  0.00    +0.086 C 
ATOM     11  C   LIG A   1      -7.325   0.197 129.258  0.00  0.00    -0.029 A 
ATOM     12  C   LIG A   1      -7.854   1.501 129.300  0.00  0.00    +0.053 A 
ATOM     13  C   LIG A   1      -8.476   2.084 128.193  0.00  0.00    +0.162 A 
ATOM     14  C   LIG A   1      -8.612   1.335 127.022  0.00  0.00    +0.162 A 
ATOM     15  C   LIG A   1      -8.063   0.043 126.975  0.00  0.00    +0.059 A 
ATOM     16  C   LIG A   1      -7.429  -0.565 128.083  0.00  0.00    +0.015 A 
ATOM     17  C   LIG A   1      -6.900  -2.033 127.992  0.00  0.00    +0.044 C 
ATOM     18  C   LIG A   1      -5.737  -2.132 126.975  0.00  0.00    +0.103 C 
ENDROOT
BRANCH   1  20
ATOM     19  C   LIG A   1      -5.190  -2.967 123.384  0.00  0.00    +0.194 C 
ATOM     20  O   LIG A   1      -5.199  -3.163 124.797  0.00  0.00    -0.376 OA
ENDBRANCH   1  20
BRANCH  13  21
ATOM     21  O   LIG A   1      -8.956   3.343 128.438  0.00  0.00    -0.491 OA
ATOM     22  C   LIG A   1      -8.292   4.093 129.448  0.00  0.00    +0.277 C 
ENDBRANCH  13  21
BRANCH  14  23
ATOM     23  O   LIG A   1      -9.269   1.888 125.955  0.00  0.00    -0.491 OA
ATOM     24  C   LIG A   1      -8.458   2.543 124.983  0.00  0.00    +0.277 C 
ENDBRANCH  14  23
TORSDOF 3
ENDMDL
MODEL 4
REMARK VINA RESULT:      -6.8      1.813      2.561
REMARK  Name = NuBBE_2062
REMARK  6 active torsions:
REMARK  status: ('A' for Active; 'I' for Inactive)
REMARK    1  A    between atoms: C_1  and  O_2
REMARK    2  A    between atoms: O_2  and  C_3
REMARK    3  A    between atoms: C_16  and  O_17
REMARK    4  A    between atoms: O_17  and  C_18
REMARK    5  A    between atoms: C_19  and  O_20
REMARK    6  A    between atoms: O_20  and  C_21
REMARK                            x       y       z     vdW  Elec       q    Type
REMARK                         _______ _______ _______ _____ _____    ______ ____
ROOT
ATOM      1  C   LIG A   1      -7.292  -1.809 127.602  0.00  0.00    +0.147 C 
ATOM      2  C   LIG A   1      -6.020  -2.490 127.166  0.00  0.00    +0.005 C 
ATOM      3  C   LIG A   1      -5.623  -2.594 125.889  0.00  0.00    +0.008 C 
ATOM      4  C   LIG A   1      -6.409  -2.006 124.847  0.00  0.00    +0.009 C 
ATOM      5  C   LIG A   1      -6.386  -2.358 123.554  0.00  0.00    +0.033 C 
ATOM      6  C   LIG A   1      -7.542  -1.740 122.834  0.00  0.00    +0.160 C 
ATOM      7  N   LIG A   1      -8.467  -1.213 123.925  0.00  0.00    +0.231 N 
ATOM      8  O   LIG A   1      -9.410  -2.217 124.172  0.00  0.00    -0.774 OA
ATOM      9  C   LIG A   1      -9.249   0.006 123.556  0.00  0.00    +0.136 C 
ATOM     10  C   LIG A   1      -8.405   1.212 123.223  0.00  0.00    +0.086 C 
ATOM     11  C   LIG A   1      -7.315   1.454 124.225  0.00  0.00    -0.029 A 
ATOM     12  C   LIG A   1      -6.689   2.715 124.209  0.00  0.00    +0.053 A 
ATOM     13  C   LIG A   1      -5.638   3.031 125.074  0.00  0.00    +0.162 A 
ATOM     14  C   LIG A   1      -5.168   2.053 125.952  0.00  0.00    +0.162 A 
ATOM     15  C   LIG A   1      -5.808   0.803 125.982  0.00  0.00    +0.059 A 
ATOM     16  C   LIG A   1      -6.874   0.463 125.117  0.00  0.00    +0.015 A 
ATOM     17  C   LIG A   1      -7.500  -0.969 125.149  0.00  0.00    +0.044 C 
ATOM     18  C   LIG A   1      -8.207  -1.226 126.502  0.00  0.00    +0.103 C 
ENDROOT
BRANCH   1  20
ATOM     19  C   LIG A   1      -8.781  -3.696 127.888  0.00  0.00    +0.194 C 
ATOM     20  O   LIG A   1      -8.019  -2.659 128.504  0.00  0.00    -0.376 OA
ENDBRANCH   1  20
BRANCH  13  21
ATOM     21  O   LIG A   1      -5.138   4.292 124.885  0.00  0.00    -0.491 OA
ATOM     22  C   LIG A   1      -6.038   5.373 125.098  0.00  0.00    +0.277 C 
ENDBRANCH  13  21
BRANCH  14  23
ATOM     23  O   LIG A   1      -4.102   2.346 126.762  0.00  0.00    -0.491 OA
ATOM     24  C   LIG A   1      -4.357   2.355 128.164  0.00  0.00    +0.277 C 
ENDBRANCH  14  23
TORSDOF 3
ENDMDL
MODEL 5
REMARK VINA RESULT:      -6.5      2.792      4.952
REMARK  Name = NuBBE_2062
REMARK  6 active torsions:
REMARK  status: ('A' for Active; 'I' for Inactive)
REMARK    1  A    between atoms: C_1  and  O_2
REMARK    2  A    between atoms: O_2  and  C_3
REMARK    3  A    between atoms: C_16  and  O_17
REMARK    4  A    between atoms: O_17  and  C_18
REMARK    5  A    between atoms: C_19  and  O_20
REMARK    6  A    between atoms: O_20  and  C_21
REMARK                            x       y       z     vdW  Elec       q    Type
REMARK                         _______ _______ _______ _____ _____    ______ ____
ROOT
ATOM      1  C   LIG A   1      -5.537  -2.605 128.570  0.00  0.00    +0.147 C 
ATOM      2  C   LIG A   1      -6.635  -3.324 129.312  0.00  0.00    +0.005 C 
ATOM      3  C   LIG A   1      -7.624  -2.706 129.974  0.00  0.00    +0.008 C 
ATOM      4  C   LIG A   1      -7.700  -1.277 129.972  0.00  0.00    +0.009 C 
ATOM      5  C   LIG A   1      -8.339  -0.524 130.879  0.00  0.00    +0.033 C 
ATOM      6  C   LIG A   1      -7.949   0.911 130.721  0.00  0.00    +0.160 C 
ATOM      7  N   LIG A   1      -6.738   0.904 129.796  0.00  0.00    +0.231 N 
ATOM      8  O   LIG A   1      -5.605   0.890 130.618  0.00  0.00    -0.774 OA
ATOM      9  C   LIG A   1      -6.601   2.111 128.924  0.00  0.00    +0.136 C 
ATOM     10  C   LIG A   1      -7.749   2.324 127.968  0.00  0.00    +0.086 C 
ATOM     11  C   LIG A   1      -8.138   1.072 127.238  0.00  0.00    -0.029 A 
ATOM     12  C   LIG A   1      -8.950   1.213 126.098  0.00  0.00    +0.053 A 
ATOM     13  C   LIG A   1      -9.401   0.110 125.367  0.00  0.00    +0.162 A 
ATOM     14  C   LIG A   1      -9.066  -1.172 125.806  0.00  0.00    +0.162 A 
ATOM     15  C   LIG A   1      -8.237  -1.311 126.930  0.00  0.00    +0.059 A 
ATOM     16  C   LIG A   1      -7.770  -0.208 127.683  0.00  0.00    +0.015 A 
ATOM     17  C   LIG A   1      -6.906  -0.429 128.968  0.00  0.00    +0.044 C 
ATOM     18  C   LIG A   1      -5.540  -1.060 128.606  0.00  0.00    +0.103 C 
ENDROOT
BRANCH   1  20
ATOM     19  C   LIG A   1      -3.544  -2.400 129.928  0.00  0.00    +0.194 C 
ATOM     20  O   LIG A   1      -4.259  -3.144 128.943  0.00  0.00    -0.376 OA
ENDBRANCH   1  20
BRANCH  13  21
ATOM     21  O   LIG A   1     -10.206   0.448 124.312  0.00  0.00    -0.491 OA
ATOM     22  C   LIG A   1      -9.554   0.872 123.121  0.00  0.00    +0.277 C 
ENDBRANCH  13  21
BRANCH  14  23
ATOM     23  O   LIG A   1      -9.552  -2.254 125.120  0.00  0.00    -0.491 OA
ATOM     24  C   LIG A   1      -8.703  -2.797 124.112  0.00  0.00    +0.277 C 
ENDBRANCH  14  23
TORSDOF 3
ENDMDL
MODEL 6
REMARK VINA RESULT:      -6.5      6.738      9.839
REMARK  Name = NuBBE_2062
REMARK  6 active torsions:
REMARK  status: ('A' for Active; 'I' for Inactive)
REMARK    1  A    between atoms: C_1  and  O_2
REMARK    2  A    between atoms: O_2  and  C_3
REMARK    3  A    between atoms: C_16  and  O_17
REMARK    4  A    between atoms: O_17  and  C_18
REMARK    5  A    between atoms: C_19  and  O_20
REMARK    6  A    between atoms: O_20  and  C_21
REMARK                            x       y       z     vdW  Elec       q    Type
REMARK                         _______ _______ _______ _____ _____    ______ ____
ROOT
ATOM      1  C   LIG A   1     -10.874   6.358 131.082  0.00  0.00    +0.147 C 
ATOM      2  C   LIG A   1      -9.890   7.036 130.162  0.00  0.00    +0.005 C 
ATOM      3  C   LIG A   1      -8.561   7.017 130.338  0.00  0.00    +0.008 C 
ATOM      4  C   LIG A   1      -7.997   6.290 131.435  0.00  0.00    +0.009 C 
ATOM      5  C   LIG A   1      -6.788   6.500 131.977  0.00  0.00    +0.033 C 
ATOM      6  C   LIG A   1      -6.673   5.764 133.273  0.00  0.00    +0.160 C 
ATOM      7  N   LIG A   1      -8.090   5.323 133.619  0.00  0.00    +0.231 N 
ATOM      8  O   LIG A   1      -8.626   6.311 134.453  0.00  0.00    -0.774 OA
ATOM      9  C   LIG A   1      -8.185   4.041 134.383  0.00  0.00    +0.136 C 
ATOM     10  C   LIG A   1      -7.629   2.840 133.659  0.00  0.00    +0.086 C 
ATOM     11  C   LIG A   1      -8.099   2.750 132.236  0.00  0.00    -0.029 A 
ATOM     12  C   LIG A   1      -7.926   1.520 131.574  0.00  0.00    +0.053 A 
ATOM     13  C   LIG A   1      -8.293   1.340 130.237  0.00  0.00    +0.162 A 
ATOM     14  C   LIG A   1      -8.810   2.425 129.527  0.00  0.00    +0.162 A 
ATOM     15  C   LIG A   1      -9.002   3.645 130.196  0.00  0.00    +0.059 A 
ATOM     16  C   LIG A   1      -8.639   3.848 131.547  0.00  0.00    +0.015 A 
ATOM     17  C   LIG A   1      -8.812   5.251 132.217  0.00  0.00    +0.044 C 
ATOM     18  C   LIG A   1     -10.310   5.625 132.320  0.00  0.00    +0.103 C 
ENDROOT
BRANCH   1  20
ATOM     19  C   LIG A   1     -12.602   7.882 130.340  0.00  0.00    +0.194 C 
ATOM     20  O   LIG A   1     -11.923   7.272 131.436  0.00  0.00    -0.376 OA
ENDBRANCH   1  20
BRANCH  13  21
ATOM     21  O   LIG A   1      -8.017   0.086 129.761  0.00  0.00    -0.491 OA
ATOM     22  C   LIG A   1      -8.020  -0.972 130.711  0.00  0.00    +0.277 C 
ENDBRANCH  13  21
BRANCH  14  23
ATOM     23  O   LIG A   1      -9.119   2.263 128.202  0.00  0.00    -0.491 OA
ATOM     24  C   LIG A   1      -8.062   2.489 127.274  0.00  0.00    +0.277 C 
ENDBRANCH  14  23
TORSDOF 3
ENDMDL
MODEL 7
REMARK VINA RESULT:      -6.5      2.617      4.547
REMARK  Name = NuBBE_2062
REMARK  6 active torsions:
REMARK  status: ('A' for Active; 'I' for Inactive)
REMARK    1  A    between atoms: C_1  and  O_2
REMARK    2  A    between atoms: O_2  and  C_3
REMARK    3  A    between atoms: C_16  and  O_17
REMARK    4  A    between atoms: O_17  and  C_18
REMARK    5  A    between atoms: C_19  and  O_20
REMARK    6  A    between atoms: O_20  and  C_21
REMARK                            x       y       z     vdW  Elec       q    Type
REMARK                         _______ _______ _______ _____ _____    ______ ____
ROOT
ATOM      1  C   LIG A   1      -7.339   1.532 129.452  0.00  0.00    +0.147 C 
ATOM      2  C   LIG A   1      -5.995   1.715 128.793  0.00  0.00    +0.005 C 
ATOM      3  C   LIG A   1      -5.193   0.704 128.429  0.00  0.00    +0.008 C 
ATOM      4  C   LIG A   1      -5.615  -0.649 128.628  0.00  0.00    +0.009 C 
ATOM      5  C   LIG A   1      -4.810  -1.718 128.708  0.00  0.00    +0.033 C 
ATOM      6  C   LIG A   1      -5.574  -2.900 129.214  0.00  0.00    +0.160 C 
ATOM      7  N   LIG A   1      -6.890  -2.338 129.739  0.00  0.00    +0.231 N 
ATOM      8  O   LIG A   1      -6.713  -2.113 131.109  0.00  0.00    -0.774 OA
ATOM      9  C   LIG A   1      -8.062  -3.259 129.620  0.00  0.00    +0.136 C 
ATOM     10  C   LIG A   1      -8.408  -3.650 128.204  0.00  0.00    +0.086 C 
ATOM     11  C   LIG A   1      -8.443  -2.477 127.269  0.00  0.00    -0.029 A 
ATOM     12  C   LIG A   1      -9.070  -2.661 126.023  0.00  0.00    +0.053 A 
ATOM     13  C   LIG A   1      -9.125  -1.646 125.063  0.00  0.00    +0.162 A 
ATOM     14  C   LIG A   1      -8.503  -0.426 125.334  0.00  0.00    +0.162 A 
ATOM     15  C   LIG A   1      -7.896  -0.237 126.587  0.00  0.00    +0.059 A 
ATOM     16  C   LIG A   1      -7.831  -1.249 127.571  0.00  0.00    +0.015 A 
ATOM     17  C   LIG A   1      -7.080  -1.002 128.921  0.00  0.00    +0.044 C 
ATOM     18  C   LIG A   1      -7.799   0.087 129.753  0.00  0.00    +0.103 C 
ENDROOT
BRANCH   1  20
ATOM     19  C   LIG A   1      -6.666   1.955 131.739  0.00  0.00    +0.194 C 
ATOM     20  O   LIG A   1      -7.434   2.373 130.612  0.00  0.00    -0.376 OA
ENDBRANCH   1  20
BRANCH  13  21
ATOM     21  O   LIG A   1      -9.747  -2.026 123.904  0.00  0.00    -0.491 OA
ATOM     22  C   LIG A   1      -9.439  -3.324 123.410  0.00  0.00    +0.277 C 
ENDBRANCH  13  21
BRANCH  14  23
ATOM     23  O   LIG A   1      -8.510   0.549 124.372  0.00  0.00    -0.491 OA
ATOM     24  C   LIG A   1      -9.639   1.419 124.363  0.00  0.00    +0.277 C 
ENDBRANCH  14  23
TORSDOF 3
ENDMDL
MODEL 8
REMARK VINA RESULT:      -6.4      2.205      6.131
REMARK  Name = NuBBE_2062
REMARK  6 active torsions:
REMARK  status: ('A' for Active; 'I' for Inactive)
REMARK    1  A    between atoms: C_1  and  O_2
REMARK    2  A    between atoms: O_2  and  C_3
REMARK    3  A    between atoms: C_16  and  O_17
REMARK    4  A    between atoms: O_17  and  C_18
REMARK    5  A    between atoms: C_19  and  O_20
REMARK    6  A    between atoms: O_20  and  C_21
REMARK                            x       y       z     vdW  Elec       q    Type
REMARK                         _______ _______ _______ _____ _____    ______ ____
ROOT
ATOM      1  C   LIG A   1      -8.061  -2.596 125.080  0.00  0.00    +0.147 C 
ATOM      2  C   LIG A   1      -6.576  -2.809 124.923  0.00  0.00    +0.005 C 
ATOM      3  C   LIG A   1      -5.645  -1.938 125.336  0.00  0.00    +0.008 C 
ATOM      4  C   LIG A   1      -6.039  -0.735 126.004  0.00  0.00    +0.009 C 
ATOM      5  C   LIG A   1      -5.307   0.384 126.102  0.00  0.00    +0.033 C 
ATOM      6  C   LIG A   1      -6.156   1.510 126.600  0.00  0.00    +0.160 C 
ATOM      7  N   LIG A   1      -7.593   1.014 126.497  0.00  0.00    +0.231 N 
ATOM      8  O   LIG A   1      -8.081   1.452 125.260  0.00  0.00    -0.774 OA
ATOM      9  C   LIG A   1      -8.527   1.562 127.527  0.00  0.00    +0.136 C 
ATOM     10  C   LIG A   1      -8.158   1.219 128.950  0.00  0.00    +0.086 C 
ATOM     11  C   LIG A   1      -7.817  -0.231 129.129  0.00  0.00    -0.029 A 
ATOM     12  C   LIG A   1      -7.787  -0.731 130.445  0.00  0.00    +0.053 A 
ATOM     13  C   LIG A   1      -7.445  -2.057 130.727  0.00  0.00    +0.162 A 
ATOM     14  C   LIG A   1      -7.084  -2.899 129.673  0.00  0.00    +0.162 A 
ATOM     15  C   LIG A   1      -7.136  -2.405 128.360  0.00  0.00    +0.059 A 
ATOM     16  C   LIG A   1      -7.481  -1.068 128.053  0.00  0.00    +0.015 A 
ATOM     17  C   LIG A   1      -7.453  -0.557 126.575  0.00  0.00    +0.044 C 
ATOM     18  C   LIG A   1      -8.531  -1.275 125.729  0.00  0.00    +0.103 C 
ENDROOT
BRANCH   1  20
ATOM     19  C   LIG A   1      -8.302  -2.027 122.739  0.00  0.00    +0.194 C 
ATOM     20  O   LIG A   1      -8.726  -2.842 123.831  0.00  0.00    -0.376 OA
ENDBRANCH   1  20
BRANCH  13  21
ATOM     21  O   LIG A   1      -7.440  -2.345 132.065  0.00  0.00    -0.491 OA
ATOM     22  C   LIG A   1      -6.871  -1.366 132.926  0.00  0.00    +0.277 C 
ENDBRANCH  13  21
BRANCH  14  23
ATOM     23  O   LIG A   1      -6.697  -4.183 129.955  0.00  0.00    -0.491 OA
ATOM     24  C   LIG A   1      -5.342  -4.360 130.359  0.00  0.00    +0.277 C 
ENDBRANCH  14  23
TORSDOF 3
ENDMDL
MODEL 9
REMARK VINA RESULT:      -6.3      3.086      4.681
REMARK  Name = NuBBE_2062
REMARK  6 active torsions:
REMARK  status: ('A' for Active; 'I' for Inactive)
REMARK    1  A    between atoms: C_1  and  O_2
REMARK    2  A    between atoms: O_2  and  C_3
REMARK    3  A    between atoms: C_16  and  O_17
REMARK    4  A    between atoms: O_17  and  C_18
REMARK    5  A    between atoms: C_19  and  O_20
REMARK    6  A    between atoms: O_20  and  C_21
REMARK                            x       y       z     vdW  Elec       q    Type
REMARK                         _______ _______ _______ _____ _____    ______ ____
ROOT
ATOM      1  C   LIG A   1      -6.200   3.673 126.618  0.00  0.00    +0.147 C 
ATOM      2  C   LIG A   1      -4.999   2.813 126.318  0.00  0.00    +0.005 C 
ATOM      3  C   LIG A   1      -5.063   1.616 125.716  0.00  0.00    +0.008 C 
ATOM      4  C   LIG A   1      -6.327   1.100 125.286  0.00  0.00    +0.009 C 
ATOM      5  C   LIG A   1      -6.613  -0.190 125.063  0.00  0.00    +0.033 C 
ATOM      6  C   LIG A   1      -8.091  -0.371 124.921  0.00  0.00    +0.160 C 
ATOM      7  N   LIG A   1      -8.709   0.936 125.402  0.00  0.00    +0.231 N 
ATOM      8  O   LIG A   1      -9.014   0.760 126.757  0.00  0.00    -0.774 OA
ATOM      9  C   LIG A   1      -9.992   1.312 124.735  0.00  0.00    +0.136 C 
ATOM     10  C   LIG A   1      -9.882   1.524 123.245  0.00  0.00    +0.086 C 
ATOM     11  C   LIG A   1      -8.710   2.382 122.865  0.00  0.00    -0.029 A 
ATOM     12  C   LIG A   1      -8.697   2.919 121.565  0.00  0.00    +0.053 A 
ATOM     13  C   LIG A   1      -7.636   3.699 121.096  0.00  0.00    +0.162 A 
ATOM     14  C   LIG A   1      -6.538   3.917 121.931  0.00  0.00    +0.162 A 
ATOM     15  C   LIG A   1      -6.563   3.398 123.236  0.00  0.00    +0.059 A 
ATOM     16  C   LIG A   1      -7.627   2.608 123.729  0.00  0.00    +0.015 A 
ATOM     17  C   LIG A   1      -7.566   1.999 125.168  0.00  0.00    +0.044 C 
ATOM     18  C   LIG A   1      -7.592   3.119 126.236  0.00  0.00    +0.103 C 
ENDROOT
BRANCH   1  20
ATOM     19  C   LIG A   1      -4.902   3.959 128.641  0.00  0.00    +0.194 C 
ATOM     20  O   LIG A   1      -6.159   4.112 127.985  0.00  0.00    -0.376 OA
ENDBRANCH   1  20
BRANCH  13  21
ATOM     21  O   LIG A   1      -7.789   4.103 119.797  0.00  0.00    -0.491 OA
ATOM     22  C   LIG A   1      -9.122   4.187 119.308  0.00  0.00    +0.277 C 
ENDBRANCH  13  21
BRANCH  14  23
ATOM     23  O   LIG A   1      -5.475   4.637 121.452  0.00  0.00    -0.491 OA
ATOM     24  C   LIG A   1      -4.363   4.783 122.332  0.00  0.00    +0.277 C 
ENDBRANCH  14  23
TORSDOF 3
ENDMDL
