MODEL 1
REMARK VINA RESULT:      -6.4      0.000      0.000
REMARK  Name = NuBBE_441
REMARK  5 active torsions:
REMARK  status: ('A' for Active; 'I' for Inactive)
REMARK    1  A    between atoms: C_5  and  O_6
REMARK    2  A    between atoms: C_14  and  O_16
REMARK    3  A    between atoms: C_17  and  C_18
REMARK    4  A    between atoms: C_18  and  O_19
REMARK    5  A    between atoms: O_19  and  C_20
REMARK                            x       y       z     vdW  Elec       q    Type
REMARK                         _______ _______ _______ _____ _____    ______ ____
ROOT
ATOM      1  C   LIG A   1     -10.690   6.998 129.486  0.00  0.00    +0.041 C 
ATOM      2  C   LIG A   1     -10.451   7.173 127.996  0.00  0.00    -0.023 C 
ATOM      3  C   LIG A   1     -11.252   8.114 127.443  0.00  0.00    +0.006 C 
ATOM      4  C   LIG A   1     -12.360   8.463 128.372  0.00  0.00    +0.115 C 
ATOM      5  C   LIG A   1     -11.620   8.154 129.645  0.00  0.00    +0.091 C 
ATOM      6  C   LIG A   1     -12.771   8.061 130.575  0.00  0.00    +0.260 C 
ATOM      7  O   LIG A   1     -13.279   9.408 130.404  0.00  0.00    -0.348 OA
ATOM      8  C   LIG A   1     -13.032   9.726 128.951  0.00  0.00    +0.202 C 
ATOM      9  O   LIG A   1     -12.220   7.590 131.787  0.00  0.00    -0.322 OA
ATOM     10  C   LIG A   1     -11.838   6.196 131.610  0.00  0.00    +0.264 C 
ATOM     11  C   LIG A   1     -11.332   5.793 130.172  0.00  0.00    +0.161 C 
ENDROOT
BRANCH   4  12
ATOM     12  O   LIG A   1     -13.380   7.503 128.057  0.00  0.00    -0.382 OA
ATOM     13  H   LIG A   1     -14.231   7.896 128.320  0.00  0.00    +0.211 HD
ENDBRANCH   4  12
BRANCH  10  14
ATOM     14  O   LIG A   1     -10.893   5.898 132.626  0.00  0.00    -0.366 OA
ATOM     15  H   LIG A   1     -10.863   6.660 133.225  0.00  0.00    +0.212 HD
ENDBRANCH  10  14
BRANCH  11  16
ATOM     16  C   LIG A   1     -10.388   4.620 130.228  0.00  0.00    +0.315 C 
ATOM     17  O   LIG A   1     -10.717   3.448 130.067  0.00  0.00    -0.250 OA
BRANCH  16  18
ATOM     18  O   LIG A   1      -9.133   5.038 130.547  0.00  0.00    -0.468 OA
ATOM     19  C   LIG A   1      -8.281   4.001 131.036  0.00  0.00    +0.280 C 
ENDBRANCH  16  18
ENDBRANCH  11  16
TORSDOF 4
ENDMDL
MODEL 2
REMARK VINA RESULT:      -6.2      1.847      2.362
REMARK  Name = NuBBE_441
REMARK  5 active torsions:
REMARK  status: ('A' for Active; 'I' for Inactive)
REMARK    1  A    between atoms: C_5  and  O_6
REMARK    2  A    between atoms: C_14  and  O_16
REMARK    3  A    between atoms: C_17  and  C_18
REMARK    4  A    between atoms: C_18  and  O_19
REMARK    5  A    between atoms: O_19  and  C_20
REMARK                            x       y       z     vdW  Elec       q    Type
REMARK                         _______ _______ _______ _____ _____    ______ ____
ROOT
ATOM      1  C   LIG A   1      -9.797   7.215 130.103  0.00  0.00    +0.041 C 
ATOM      2  C   LIG A   1     -10.006   7.504 128.627  0.00  0.00    -0.023 C 
ATOM      3  C   LIG A   1     -11.315   7.585 128.287  0.00  0.00    +0.006 C 
ATOM      4  C   LIG A   1     -12.167   7.039 129.376  0.00  0.00    +0.115 C 
ATOM      5  C   LIG A   1     -11.227   7.357 130.507  0.00  0.00    +0.091 C 
ATOM      6  C   LIG A   1     -11.797   6.470 131.550  0.00  0.00    +0.260 C 
ATOM      7  O   LIG A   1     -13.126   7.046 131.600  0.00  0.00    -0.348 OA
ATOM      8  C   LIG A   1     -13.425   7.440 130.176  0.00  0.00    +0.202 C 
ATOM      9  O   LIG A   1     -10.882   6.539 132.624  0.00  0.00    -0.322 OA
ATOM     10  C   LIG A   1      -9.664   5.840 132.239  0.00  0.00    +0.264 C 
ATOM     11  C   LIG A   1      -9.273   5.916 130.714  0.00  0.00    +0.161 C 
ENDROOT
BRANCH   4  12
ATOM     12  O   LIG A   1     -12.244   5.637 129.074  0.00  0.00    -0.382 OA
ATOM     13  H   LIG A   1     -11.447   5.412 128.562  0.00  0.00    +0.211 HD
ENDBRANCH   4  12
BRANCH  10  14
ATOM     14  O   LIG A   1      -8.634   6.312 133.093  0.00  0.00    -0.366 OA
ATOM     15  H   LIG A   1      -9.000   7.050 133.606  0.00  0.00    +0.212 HD
ENDBRANCH  10  14
BRANCH  11  16
ATOM     16  C   LIG A   1      -7.786   5.774 130.518  0.00  0.00    +0.315 C 
ATOM     17  O   LIG A   1      -7.204   4.711 130.322  0.00  0.00    -0.250 OA
BRANCH  16  18
ATOM     18  O   LIG A   1      -7.173   6.981 130.657  0.00  0.00    -0.468 OA
ATOM     19  C   LIG A   1      -5.810   6.897 131.076  0.00  0.00    +0.280 C 
ENDBRANCH  16  18
ENDBRANCH  11  16
TORSDOF 4
ENDMDL
MODEL 3
REMARK VINA RESULT:      -6.1      1.795      3.210
REMARK  Name = NuBBE_441
REMARK  5 active torsions:
REMARK  status: ('A' for Active; 'I' for Inactive)
REMARK    1  A    between atoms: C_5  and  O_6
REMARK    2  A    between atoms: C_14  and  O_16
REMARK    3  A    between atoms: C_17  and  C_18
REMARK    4  A    between atoms: C_18  and  O_19
REMARK    5  A    between atoms: O_19  and  C_20
REMARK                            x       y       z     vdW  Elec       q    Type
REMARK                         _______ _______ _______ _____ _____    ______ ____
ROOT
ATOM      1  C   LIG A   1     -11.497   6.486 129.817  0.00  0.00    +0.041 C 
ATOM      2  C   LIG A   1     -12.694   7.401 130.009  0.00  0.00    -0.023 C 
ATOM      3  C   LIG A   1     -13.043   8.055 128.875  0.00  0.00    +0.006 C 
ATOM      4  C   LIG A   1     -11.958   7.951 127.863  0.00  0.00    +0.115 C 
ATOM      5  C   LIG A   1     -11.409   6.632 128.334  0.00  0.00    +0.091 C 
ATOM      6  C   LIG A   1     -10.085   6.671 127.667  0.00  0.00    +0.260 C 
ATOM      7  O   LIG A   1     -10.551   6.753 126.298  0.00  0.00    -0.348 OA
ATOM      8  C   LIG A   1     -11.797   7.598 126.369  0.00  0.00    +0.202 C 
ATOM      9  O   LIG A   1      -9.387   5.556 128.182  0.00  0.00    -0.322 OA
ATOM     10  C   LIG A   1      -9.053   5.822 129.575  0.00  0.00    +0.264 C 
ATOM     11  C   LIG A   1     -10.092   6.688 130.384  0.00  0.00    +0.161 C 
ENDROOT
BRANCH   4  12
ATOM     12  O   LIG A   1     -11.105   9.066 128.166  0.00  0.00    -0.382 OA
ATOM     13  H   LIG A   1     -10.358   8.720 128.686  0.00  0.00    +0.211 HD
ENDBRANCH   4  12
BRANCH  10  14
ATOM     14  O   LIG A   1      -8.797   4.566 130.182  0.00  0.00    -0.366 OA
ATOM     15  H   LIG A   1      -7.864   4.557 130.447  0.00  0.00    +0.212 HD
ENDBRANCH  10  14
BRANCH  11  16
ATOM     16  C   LIG A   1     -10.041   6.378 131.857  0.00  0.00    +0.315 C 
ATOM     17  O   LIG A   1     -11.019   6.110 132.550  0.00  0.00    -0.250 OA
BRANCH  16  18
ATOM     18  O   LIG A   1      -8.769   6.503 132.324  0.00  0.00    -0.468 OA
ATOM     19  C   LIG A   1      -8.511   5.760 133.516  0.00  0.00    +0.280 C 
ENDBRANCH  16  18
ENDBRANCH  11  16
TORSDOF 4
ENDMDL
MODEL 4
REMARK VINA RESULT:      -5.7      7.945     10.422
REMARK  Name = NuBBE_441
REMARK  5 active torsions:
REMARK  status: ('A' for Active; 'I' for Inactive)
REMARK    1  A    between atoms: C_5  and  O_6
REMARK    2  A    between atoms: C_14  and  O_16
REMARK    3  A    between atoms: C_17  and  C_18
REMARK    4  A    between atoms: C_18  and  O_19
REMARK    5  A    between atoms: O_19  and  C_20
REMARK                            x       y       z     vdW  Elec       q    Type
REMARK                         _______ _______ _______ _____ _____    ______ ____
ROOT
ATOM      1  C   LIG A   1      -7.780  -0.127 123.548  0.00  0.00    +0.041 C 
ATOM      2  C   LIG A   1      -6.698  -1.005 122.943  0.00  0.00    -0.023 C 
ATOM      3  C   LIG A   1      -6.768  -2.290 123.364  0.00  0.00    +0.006 C 
ATOM      4  C   LIG A   1      -7.664  -2.400 124.546  0.00  0.00    +0.115 C 
ATOM      5  C   LIG A   1      -8.544  -1.228 124.204  0.00  0.00    +0.091 C 
ATOM      6  C   LIG A   1      -9.177  -1.009 125.527  0.00  0.00    +0.260 C 
ATOM      7  O   LIG A   1      -9.810  -2.305 125.665  0.00  0.00    -0.348 OA
ATOM      8  C   LIG A   1      -8.842  -3.271 125.030  0.00  0.00    +0.202 C 
ATOM      9  O   LIG A   1      -9.902   0.195 125.387  0.00  0.00    -0.322 OA
ATOM     10  C   LIG A   1      -8.954   1.298 125.299  0.00  0.00    +0.264 C 
ATOM     11  C   LIG A   1      -7.585   0.980 124.584  0.00  0.00    +0.161 C 
ENDROOT
BRANCH   4  12
ATOM     12  O   LIG A   1      -6.789  -2.152 125.658  0.00  0.00    -0.382 OA
ATOM     13  H   LIG A   1      -7.336  -1.781 126.373  0.00  0.00    +0.211 HD
ENDBRANCH   4  12
BRANCH  10  14
ATOM     14  O   LIG A   1      -9.644   2.384 124.701  0.00  0.00    -0.366 OA
ATOM     15  H   LIG A   1     -10.011   2.066 123.861  0.00  0.00    +0.212 HD
ENDBRANCH  10  14
BRANCH  11  16
ATOM     16  C   LIG A   1      -6.985   2.216 123.966  0.00  0.00    +0.315 C 
ATOM     17  O   LIG A   1      -6.157   2.941 124.512  0.00  0.00    -0.250 OA
BRANCH  16  18
ATOM     18  O   LIG A   1      -7.538   2.452 122.745  0.00  0.00    -0.468 OA
ATOM     19  C   LIG A   1      -6.798   3.367 121.938  0.00  0.00    +0.280 C 
ENDBRANCH  16  18
ENDBRANCH  11  16
TORSDOF 4
ENDMDL
MODEL 5
REMARK VINA RESULT:      -5.7      8.313     10.310
REMARK  Name = NuBBE_441
REMARK  5 active torsions:
REMARK  status: ('A' for Active; 'I' for Inactive)
REMARK    1  A    between atoms: C_5  and  O_6
REMARK    2  A    between atoms: C_14  and  O_16
REMARK    3  A    between atoms: C_17  and  C_18
REMARK    4  A    between atoms: C_18  and  O_19
REMARK    5  A    between atoms: O_19  and  C_20
REMARK                            x       y       z     vdW  Elec       q    Type
REMARK                         _______ _______ _______ _____ _____    ______ ____
ROOT
ATOM      1  C   LIG A   1      -8.923  -1.062 125.473  0.00  0.00    +0.041 C 
ATOM      2  C   LIG A   1      -8.201  -0.363 126.612  0.00  0.00    -0.023 C 
ATOM      3  C   LIG A   1      -8.051   0.966 126.402  0.00  0.00    +0.006 C 
ATOM      4  C   LIG A   1      -8.331   1.301 124.981  0.00  0.00    +0.115 C 
ATOM      5  C   LIG A   1      -9.296   0.175 124.725  0.00  0.00    +0.091 C 
ATOM      6  C   LIG A   1      -9.285   0.181 123.242  0.00  0.00    +0.260 C 
ATOM      7  O   LIG A   1      -9.765   1.533 123.042  0.00  0.00    -0.348 OA
ATOM      8  C   LIG A   1      -9.157   2.325 124.172  0.00  0.00    +0.202 C 
ATOM      9  O   LIG A   1     -10.022  -0.965 122.870  0.00  0.00    -0.322 OA
ATOM     10  C   LIG A   1      -9.233  -2.147 123.193  0.00  0.00    +0.264 C 
ATOM     11  C   LIG A   1      -8.314  -2.040 124.469  0.00  0.00    +0.161 C 
ENDROOT
BRANCH   4  12
ATOM     12  O   LIG A   1      -7.061   1.123 124.335  0.00  0.00    -0.382 OA
ATOM     13  H   LIG A   1      -6.684   2.011 124.199  0.00  0.00    +0.211 HD
ENDBRANCH   4  12
BRANCH  10  14
ATOM     14  O   LIG A   1     -10.138  -3.237 123.259  0.00  0.00    -0.366 OA
ATOM     15  H   LIG A   1     -10.697  -3.102 124.041  0.00  0.00    +0.212 HD
ENDBRANCH  10  14
BRANCH  11  16
ATOM     16  C   LIG A   1      -8.074  -3.391 125.090  0.00  0.00    +0.315 C 
ATOM     17  O   LIG A   1      -8.586  -3.782 126.137  0.00  0.00    -0.250 OA
BRANCH  16  18
ATOM     18  O   LIG A   1      -7.159  -4.091 124.365  0.00  0.00    -0.468 OA
ATOM     19  C   LIG A   1      -5.919  -3.407 124.179  0.00  0.00    +0.280 C 
ENDBRANCH  16  18
ENDBRANCH  11  16
TORSDOF 4
ENDMDL
MODEL 6
REMARK VINA RESULT:      -5.6      7.446      9.435
REMARK  Name = NuBBE_441
REMARK  5 active torsions:
REMARK  status: ('A' for Active; 'I' for Inactive)
REMARK    1  A    between atoms: C_5  and  O_6
REMARK    2  A    between atoms: C_14  and  O_16
REMARK    3  A    between atoms: C_17  and  C_18
REMARK    4  A    between atoms: C_18  and  O_19
REMARK    5  A    between atoms: O_19  and  C_20
REMARK                            x       y       z     vdW  Elec       q    Type
REMARK                         _______ _______ _______ _____ _____    ______ ____
ROOT
ATOM      1  C   LIG A   1      -8.860  -0.050 125.161  0.00  0.00    +0.041 C 
ATOM      2  C   LIG A   1      -7.885  -0.481 126.243  0.00  0.00    -0.023 C 
ATOM      3  C   LIG A   1      -7.285   0.567 126.857  0.00  0.00    +0.006 C 
ATOM      4  C   LIG A   1      -7.495   1.815 126.076  0.00  0.00    +0.115 C 
ATOM      5  C   LIG A   1      -8.807   1.412 125.457  0.00  0.00    +0.091 C 
ATOM      6  C   LIG A   1      -8.864   2.398 124.351  0.00  0.00    +0.260 C 
ATOM      7  O   LIG A   1      -8.844   3.604 125.155  0.00  0.00    -0.348 OA
ATOM      8  C   LIG A   1      -7.943   3.272 126.318  0.00  0.00    +0.202 C 
ATOM      9  O   LIG A   1      -9.976   2.005 123.573  0.00  0.00    -0.322 OA
ATOM     10  C   LIG A   1      -9.641   0.767 122.882  0.00  0.00    +0.264 C 
ATOM     11  C   LIG A   1      -8.684  -0.221 123.653  0.00  0.00    +0.161 C 
ENDROOT
BRANCH   4  12
ATOM     12  O   LIG A   1      -6.402   1.819 125.144  0.00  0.00    -0.382 OA
ATOM     13  H   LIG A   1      -5.777   1.132 125.436  0.00  0.00    +0.211 HD
ENDBRANCH   4  12
BRANCH  10  14
ATOM     14  O   LIG A   1     -10.869   0.162 122.510  0.00  0.00    -0.366 OA
ATOM     15  H   LIG A   1     -10.837   0.006 121.553  0.00  0.00    +0.212 HD
ENDBRANCH  10  14
BRANCH  11  16
ATOM     16  C   LIG A   1      -8.908  -1.649 123.229  0.00  0.00    +0.315 C 
ATOM     17  O   LIG A   1      -9.783  -2.384 123.680  0.00  0.00    -0.250 OA
BRANCH  16  18
ATOM     18  O   LIG A   1      -7.964  -2.029 122.326  0.00  0.00    -0.468 OA
ATOM     19  C   LIG A   1      -6.621  -1.838 122.773  0.00  0.00    +0.280 C 
ENDBRANCH  16  18
ENDBRANCH  11  16
TORSDOF 4
ENDMDL
MODEL 7
REMARK VINA RESULT:      -5.4      8.494     10.410
REMARK  Name = NuBBE_441
REMARK  5 active torsions:
REMARK  status: ('A' for Active; 'I' for Inactive)
REMARK    1  A    between atoms: C_5  and  O_6
REMARK    2  A    between atoms: C_14  and  O_16
REMARK    3  A    between atoms: C_17  and  C_18
REMARK    4  A    between atoms: C_18  and  O_19
REMARK    5  A    between atoms: O_19  and  C_20
REMARK                            x       y       z     vdW  Elec       q    Type
REMARK                         _______ _______ _______ _____ _____    ______ ____
ROOT
ATOM      1  C   LIG A   1      -7.458  -0.511 124.753  0.00  0.00    +0.041 C 
ATOM      2  C   LIG A   1      -6.257   0.208 125.343  0.00  0.00    -0.023 C 
ATOM      3  C   LIG A   1      -6.355   1.556 125.250  0.00  0.00    +0.006 C 
ATOM      4  C   LIG A   1      -7.438   1.933 124.305  0.00  0.00    +0.115 C 
ATOM      5  C   LIG A   1      -8.286   0.707 124.516  0.00  0.00    +0.091 C 
ATOM      6  C   LIG A   1      -9.147   0.800 123.312  0.00  0.00    +0.260 C 
ATOM      7  O   LIG A   1      -9.748   2.088 123.592  0.00  0.00    -0.348 OA
ATOM      8  C   LIG A   1      -8.652   2.885 124.252  0.00  0.00    +0.202 C 
ATOM      9  O   LIG A   1      -9.877  -0.409 123.296  0.00  0.00    -0.322 OA
ATOM     10  C   LIG A   1      -8.967  -1.494 122.957  0.00  0.00    +0.264 C 
ATOM     11  C   LIG A   1      -7.485  -1.343 123.471  0.00  0.00    +0.161 C 
ENDROOT
BRANCH   4  12
ATOM     12  O   LIG A   1      -6.779   1.959 123.029  0.00  0.00    -0.382 OA
ATOM     13  H   LIG A   1      -5.822   1.917 123.202  0.00  0.00    +0.211 HD
ENDBRANCH   4  12
BRANCH  10  14
ATOM     14  O   LIG A   1      -9.580  -2.695 123.399  0.00  0.00    -0.366 OA
ATOM     15  H   LIG A   1      -9.627  -3.293 122.637  0.00  0.00    +0.212 HD
ENDBRANCH  10  14
BRANCH  11  16
ATOM     16  C   LIG A   1      -6.830  -2.685 123.670  0.00  0.00    +0.315 C 
ATOM     17  O   LIG A   1      -7.238  -3.558 124.432  0.00  0.00    -0.250 OA
BRANCH  16  18
ATOM     18  O   LIG A   1      -5.686  -2.767 122.937  0.00  0.00    -0.468 OA
ATOM     19  C   LIG A   1      -4.643  -3.512 123.566  0.00  0.00    +0.280 C 
ENDBRANCH  16  18
ENDBRANCH  11  16
TORSDOF 4
ENDMDL
MODEL 8
REMARK VINA RESULT:      -5.4      8.306      9.750
REMARK  Name = NuBBE_441
REMARK  5 active torsions:
REMARK  status: ('A' for Active; 'I' for Inactive)
REMARK    1  A    between atoms: C_5  and  O_6
REMARK    2  A    between atoms: C_14  and  O_16
REMARK    3  A    between atoms: C_17  and  C_18
REMARK    4  A    between atoms: C_18  and  O_19
REMARK    5  A    between atoms: O_19  and  C_20
REMARK                            x       y       z     vdW  Elec       q    Type
REMARK                         _______ _______ _______ _____ _____    ______ ____
ROOT
ATOM      1  C   LIG A   1      -8.669  -0.614 123.438  0.00  0.00    +0.041 C 
ATOM      2  C   LIG A   1      -9.937  -0.359 122.642  0.00  0.00    -0.023 C 
ATOM      3  C   LIG A   1     -10.167   0.959 122.428  0.00  0.00    +0.006 C 
ATOM      4  C   LIG A   1      -9.305   1.785 123.313  0.00  0.00    +0.115 C 
ATOM      5  C   LIG A   1      -8.178   0.795 123.429  0.00  0.00    +0.091 C 
ATOM      6  C   LIG A   1      -7.491   1.351 124.620  0.00  0.00    +0.260 C 
ATOM      7  O   LIG A   1      -7.181   2.661 124.081  0.00  0.00    -0.348 OA
ATOM      8  C   LIG A   1      -8.359   3.000 123.204  0.00  0.00    +0.202 C 
ATOM      9  O   LIG A   1      -6.504   0.395 124.948  0.00  0.00    -0.322 OA
ATOM     10  C   LIG A   1      -7.165  -0.787 125.482  0.00  0.00    +0.264 C 
ATOM     11  C   LIG A   1      -8.581  -1.124 124.876  0.00  0.00    +0.161 C 
ENDROOT
BRANCH   4  12
ATOM     12  O   LIG A   1     -10.079   1.913 124.516  0.00  0.00    -0.382 OA
ATOM     13  H   LIG A   1     -10.151   1.023 124.904  0.00  0.00    +0.211 HD
ENDBRANCH   4  12
BRANCH  10  14
ATOM     14  O   LIG A   1      -6.246  -1.861 125.357  0.00  0.00    -0.366 OA
ATOM     15  H   LIG A   1      -6.399  -2.460 126.105  0.00  0.00    +0.212 HD
ENDBRANCH  10  14
BRANCH  11  16
ATOM     16  C   LIG A   1      -8.881  -2.598 124.959  0.00  0.00    +0.315 C 
ATOM     17  O   LIG A   1      -8.546  -3.429 124.118  0.00  0.00    -0.250 OA
BRANCH  16  18
ATOM     18  O   LIG A   1      -9.631  -2.867 126.062  0.00  0.00    -0.468 OA
ATOM     19  C   LIG A   1      -8.947  -3.623 127.061  0.00  0.00    +0.280 C 
ENDBRANCH  16  18
ENDBRANCH  11  16
TORSDOF 4
ENDMDL
MODEL 9
REMARK VINA RESULT:      -5.3      7.455      9.627
REMARK  Name = NuBBE_441
REMARK  5 active torsions:
REMARK  status: ('A' for Active; 'I' for Inactive)
REMARK    1  A    between atoms: C_5  and  O_6
REMARK    2  A    between atoms: C_14  and  O_16
REMARK    3  A    between atoms: C_17  and  C_18
REMARK    4  A    between atoms: C_18  and  O_19
REMARK    5  A    between atoms: O_19  and  C_20
REMARK                            x       y       z     vdW  Elec       q    Type
REMARK                         _______ _______ _______ _____ _____    ______ ____
ROOT
ATOM      1  C   LIG A   1      -7.150   0.755 124.232  0.00  0.00    +0.041 C 
ATOM      2  C   LIG A   1      -6.477  -0.523 124.703  0.00  0.00    -0.023 C 
ATOM      3  C   LIG A   1      -7.178  -1.636 124.379  0.00  0.00    +0.006 C 
ATOM      4  C   LIG A   1      -8.557  -1.275 123.957  0.00  0.00    +0.115 C 
ATOM      5  C   LIG A   1      -8.224   0.096 123.432  0.00  0.00    +0.091 C 
ATOM      6  C   LIG A   1      -9.588   0.678 123.395  0.00  0.00    +0.260 C 
ATOM      7  O   LIG A   1     -10.185  -0.267 122.472  0.00  0.00    -0.348 OA
ATOM      8  C   LIG A   1      -9.536  -1.586 122.804  0.00  0.00    +0.202 C 
ATOM      9  O   LIG A   1      -9.391   2.042 123.088  0.00  0.00    -0.322 OA
ATOM     10  C   LIG A   1      -8.795   2.695 124.245  0.00  0.00    +0.264 C 
ATOM     11  C   LIG A   1      -7.814   1.815 125.110  0.00  0.00    +0.161 C 
ENDROOT
BRANCH   4  12
ATOM     12  O   LIG A   1      -9.293  -1.251 125.190  0.00  0.00    -0.382 OA
ATOM     13  H   LIG A   1      -8.783  -1.771 125.836  0.00  0.00    +0.211 HD
ENDBRANCH   4  12
BRANCH  10  14
ATOM     14  O   LIG A   1      -8.188   3.888 123.774  0.00  0.00    -0.366 OA
ATOM     15  H   LIG A   1      -8.747   4.628 124.058  0.00  0.00    +0.212 HD
ENDBRANCH  10  14
BRANCH  11  16
ATOM     16  C   LIG A   1      -6.791   2.663 125.820  0.00  0.00    +0.315 C 
ATOM     17  O   LIG A   1      -6.930   3.129 126.949  0.00  0.00    -0.250 OA
BRANCH  16  18
ATOM     18  O   LIG A   1      -5.723   2.896 125.010  0.00  0.00    -0.468 OA
ATOM     19  C   LIG A   1      -4.928   4.015 125.402  0.00  0.00    +0.280 C 
ENDBRANCH  16  18
ENDBRANCH  11  16
TORSDOF 4
ENDMDL
