MODEL 1
REMARK VINA RESULT:      -6.9      0.000      0.000
REMARK  Name = NuBBE_1444
REMARK  12 active torsions:
REMARK  status: ('A' for Active; 'I' for Inactive)
REMARK    1  A    between atoms: O_1  and  C_2
REMARK    2  A    between atoms: C_4  and  O_5
REMARK    3  A    between atoms: O_5  and  C_6
REMARK    4  A    between atoms: C_7  and  O_27
REMARK    5  A    between atoms: C_11  and  O_12
REMARK    6  A    between atoms: O_12  and  C_13
REMARK    7  A    between atoms: C_14  and  C_16
REMARK    8  A    between atoms: C_19  and  O_24
REMARK    9  A    between atoms: C_20  and  O_21
REMARK   10  A    between atoms: O_21  and  C_22
REMARK   11  A    between atoms: O_24  and  C_25
REMARK   12  A    between atoms: O_27  and  C_28
REMARK                            x       y       z     vdW  Elec       q    Type
REMARK                         _______ _______ _______ _____ _____    ______ ____
ROOT
ATOM      1  C   LIG A   1     -10.647   6.548 131.587  0.00  0.00    +0.135 A 
ATOM      2  C   LIG A   1     -11.773   7.220 131.128  0.00  0.00    +0.095 A 
ATOM      3  C   LIG A   1     -12.012   7.319 129.750  0.00  0.00    +0.169 A 
ATOM      4  C   LIG A   1     -11.148   6.680 128.829  0.00  0.00    +0.205 A 
ATOM      5  C   LIG A   1     -10.020   5.995 129.311  0.00  0.00    +0.188 A 
ATOM      6  C   LIG A   1      -9.751   5.977 130.680  0.00  0.00    +0.113 A 
ATOM      7  C   LIG A   1      -8.466   5.413 131.093  0.00  0.00    +0.238 A 
ATOM      8  C   LIG A   1      -7.869   4.375 130.211  0.00  0.00    +0.211 A 
ATOM      9  C   LIG A   1      -8.257   4.448 128.920  0.00  0.00    +0.181 A 
ATOM     10  O   LIG A   1      -9.187   5.346 128.436  0.00  0.00    -0.447 OA
ATOM     11  O   LIG A   1      -7.873   5.872 132.078  0.00  0.00    -0.283 OA
ENDROOT
BRANCH   9  12
ATOM     12  C   LIG A   1      -7.722   3.567 127.869  0.00  0.00    +0.025 A 
ATOM     13  C   LIG A   1      -8.223   2.273 127.749  0.00  0.00    +0.015 A 
ATOM     14  C   LIG A   1      -7.725   1.410 126.773  0.00  0.00    +0.050 A 
ATOM     15  C   LIG A   1      -6.707   1.821 125.903  0.00  0.00    +0.162 A 
ATOM     16  C   LIG A   1      -6.225   3.145 125.976  0.00  0.00    +0.162 A 
ATOM     17  C   LIG A   1      -6.744   4.008 126.958  0.00  0.00    +0.061 A 
BRANCH  16  18
ATOM     18  O   LIG A   1      -5.242   3.500 125.081  0.00  0.00    -0.491 OA
ATOM     19  C   LIG A   1      -5.615   4.295 123.958  0.00  0.00    +0.277 C 
ENDBRANCH  16  18
BRANCH  15  20
ATOM     20  O   LIG A   1      -6.183   0.980 124.946  0.00  0.00    -0.491 OA
ATOM     21  C   LIG A   1      -7.093   0.588 123.915  0.00  0.00    +0.277 C 
ENDBRANCH  15  20
ENDBRANCH   9  12
BRANCH   1  22
ATOM     22  O   LIG A   1     -10.448   6.416 132.932  0.00  0.00    -0.506 OA
ATOM     23  H   LIG A   1     -10.882   7.137 133.413  0.00  0.00    +0.292 HD
ENDBRANCH   1  22
BRANCH   3  24
ATOM     24  O   LIG A   1     -13.100   7.989 129.238  0.00  0.00    -0.491 OA
ATOM     25  C   LIG A   1     -12.999   9.413 129.199  0.00  0.00    +0.277 C 
ENDBRANCH   3  24
BRANCH   8  26
ATOM     26  O   LIG A   1      -6.981   3.407 130.650  0.00  0.00    -0.488 OA
ATOM     27  C   LIG A   1      -7.523   2.372 131.465  0.00  0.00    +0.277 C 
ENDBRANCH   8  26
BRANCH   4  28
ATOM     28  O   LIG A   1     -11.534   6.736 127.510  0.00  0.00    -0.488 OA
ATOM     29  C   LIG A   1     -10.889   7.685 126.667  0.00  0.00    +0.277 C 
ENDBRANCH   4  28
TORSDOF 7
ENDMDL
MODEL 2
REMARK VINA RESULT:      -6.9      1.443      2.057
REMARK  Name = NuBBE_1444
REMARK  12 active torsions:
REMARK  status: ('A' for Active; 'I' for Inactive)
REMARK    1  A    between atoms: O_1  and  C_2
REMARK    2  A    between atoms: C_4  and  O_5
REMARK    3  A    between atoms: O_5  and  C_6
REMARK    4  A    between atoms: C_7  and  O_27
REMARK    5  A    between atoms: C_11  and  O_12
REMARK    6  A    between atoms: O_12  and  C_13
REMARK    7  A    between atoms: C_14  and  C_16
REMARK    8  A    between atoms: C_19  and  O_24
REMARK    9  A    between atoms: C_20  and  O_21
REMARK   10  A    between atoms: O_21  and  C_22
REMARK   11  A    between atoms: O_24  and  C_25
REMARK   12  A    between atoms: O_27  and  C_28
REMARK                            x       y       z     vdW  Elec       q    Type
REMARK                         _______ _______ _______ _____ _____    ______ ____
ROOT
ATOM      1  C   LIG A   1     -11.842   6.793 131.209  0.00  0.00    +0.135 A 
ATOM      2  C   LIG A   1     -12.497   7.786 130.491  0.00  0.00    +0.095 A 
ATOM      3  C   LIG A   1     -11.930   8.280 129.309  0.00  0.00    +0.169 A 
ATOM      4  C   LIG A   1     -10.729   7.723 128.808  0.00  0.00    +0.205 A 
ATOM      5  C   LIG A   1     -10.084   6.712 129.541  0.00  0.00    +0.188 A 
ATOM      6  C   LIG A   1     -10.619   6.291 130.759  0.00  0.00    +0.113 A 
ATOM      7  C   LIG A   1      -9.802   5.377 131.558  0.00  0.00    +0.238 A 
ATOM      8  C   LIG A   1      -8.861   4.493 130.820  0.00  0.00    +0.211 A 
ATOM      9  C   LIG A   1      -8.466   4.972 129.621  0.00  0.00    +0.181 A 
ATOM     10  O   LIG A   1      -8.935   6.142 129.057  0.00  0.00    -0.447 OA
ATOM     11  O   LIG A   1      -9.834   5.433 132.794  0.00  0.00    -0.283 OA
ENDROOT
BRANCH   9  12
ATOM     12  C   LIG A   1      -7.477   4.292 128.770  0.00  0.00    +0.025 A 
ATOM     13  C   LIG A   1      -6.120   4.524 128.988  0.00  0.00    +0.015 A 
ATOM     14  C   LIG A   1      -5.160   3.907 128.188  0.00  0.00    +0.050 A 
ATOM     15  C   LIG A   1      -5.537   3.053 127.144  0.00  0.00    +0.162 A 
ATOM     16  C   LIG A   1      -6.904   2.766 126.941  0.00  0.00    +0.162 A 
ATOM     17  C   LIG A   1      -7.861   3.388 127.764  0.00  0.00    +0.061 A 
BRANCH  16  18
ATOM     18  O   LIG A   1      -7.214   1.903 125.916  0.00  0.00    -0.491 OA
ATOM     19  C   LIG A   1      -7.830   2.442 124.749  0.00  0.00    +0.277 C 
ENDBRANCH  16  18
BRANCH  15  20
ATOM     20  O   LIG A   1      -4.608   2.449 126.325  0.00  0.00    -0.491 OA
ATOM     21  C   LIG A   1      -3.249   2.819 126.567  0.00  0.00    +0.277 C 
ENDBRANCH  15  20
ENDBRANCH   9  12
BRANCH   1  22
ATOM     22  O   LIG A   1     -12.426   6.285 132.335  0.00  0.00    -0.506 OA
ATOM     23  H   LIG A   1     -12.535   5.324 132.259  0.00  0.00    +0.292 HD
ENDBRANCH   1  22
BRANCH   3  24
ATOM     24  O   LIG A   1     -12.524   9.276 128.568  0.00  0.00    -0.491 OA
ATOM     25  C   LIG A   1     -13.329  10.205 129.294  0.00  0.00    +0.277 C 
ENDBRANCH   3  24
BRANCH   8  26
ATOM     26  O   LIG A   1      -8.405   3.277 131.303  0.00  0.00    -0.488 OA
ATOM     27  C   LIG A   1      -9.346   2.207 131.315  0.00  0.00    +0.277 C 
ENDBRANCH   8  26
BRANCH   4  28
ATOM     28  O   LIG A   1     -10.318   8.194 127.582  0.00  0.00    -0.488 OA
ATOM     29  C   LIG A   1     -10.817   7.543 126.418  0.00  0.00    +0.277 C 
ENDBRANCH   4  28
TORSDOF 7
ENDMDL
MODEL 3
REMARK VINA RESULT:      -6.8      1.785      2.763
REMARK  Name = NuBBE_1444
REMARK  12 active torsions:
REMARK  status: ('A' for Active; 'I' for Inactive)
REMARK    1  A    between atoms: O_1  and  C_2
REMARK    2  A    between atoms: C_4  and  O_5
REMARK    3  A    between atoms: O_5  and  C_6
REMARK    4  A    between atoms: C_7  and  O_27
REMARK    5  A    between atoms: C_11  and  O_12
REMARK    6  A    between atoms: O_12  and  C_13
REMARK    7  A    between atoms: C_14  and  C_16
REMARK    8  A    between atoms: C_19  and  O_24
REMARK    9  A    between atoms: C_20  and  O_21
REMARK   10  A    between atoms: O_21  and  C_22
REMARK   11  A    between atoms: O_24  and  C_25
REMARK   12  A    between atoms: O_27  and  C_28
REMARK                            x       y       z     vdW  Elec       q    Type
REMARK                         _______ _______ _______ _____ _____    ______ ____
ROOT
ATOM      1  C   LIG A   1     -10.040   4.574 131.029  0.00  0.00    +0.135 A 
ATOM      2  C   LIG A   1     -10.877   5.676 131.158  0.00  0.00    +0.095 A 
ATOM      3  C   LIG A   1     -10.856   6.685 130.185  0.00  0.00    +0.169 A 
ATOM      4  C   LIG A   1     -10.036   6.552 129.039  0.00  0.00    +0.205 A 
ATOM      5  C   LIG A   1      -9.204   5.426 128.919  0.00  0.00    +0.188 A 
ATOM      6  C   LIG A   1      -9.175   4.473 129.937  0.00  0.00    +0.113 A 
ATOM      7  C   LIG A   1      -8.152   3.431 129.838  0.00  0.00    +0.238 A 
ATOM      8  C   LIG A   1      -7.692   3.066 128.472  0.00  0.00    +0.211 A 
ATOM      9  C   LIG A   1      -7.833   4.044 127.553  0.00  0.00    +0.181 A 
ATOM     10  O   LIG A   1      -8.424   5.267 127.802  0.00  0.00    -0.447 OA
ATOM     11  O   LIG A   1      -7.634   2.969 130.862  0.00  0.00    -0.283 OA
ENDROOT
BRANCH   9  12
ATOM     12  C   LIG A   1      -7.366   3.916 126.163  0.00  0.00    +0.025 A 
ATOM     13  C   LIG A   1      -6.049   4.254 125.857  0.00  0.00    +0.015 A 
ATOM     14  C   LIG A   1      -5.583   4.158 124.546  0.00  0.00    +0.050 A 
ATOM     15  C   LIG A   1      -6.426   3.733 123.512  0.00  0.00    +0.162 A 
ATOM     16  C   LIG A   1      -7.747   3.337 123.813  0.00  0.00    +0.162 A 
ATOM     17  C   LIG A   1      -8.201   3.429 125.142  0.00  0.00    +0.061 A 
BRANCH  16  18
ATOM     18  O   LIG A   1      -8.523   2.906 122.762  0.00  0.00    -0.491 OA
ATOM     19  C   LIG A   1      -9.318   1.738 122.952  0.00  0.00    +0.277 C 
ENDBRANCH  16  18
BRANCH  15  20
ATOM     20  O   LIG A   1      -5.995   3.651 122.206  0.00  0.00    -0.491 OA
ATOM     21  C   LIG A   1      -4.913   4.521 121.866  0.00  0.00    +0.277 C 
ENDBRANCH  15  20
ENDBRANCH   9  12
BRANCH   1  22
ATOM     22  O   LIG A   1     -10.102   3.574 131.957  0.00  0.00    -0.506 OA
ATOM     23  H   LIG A   1     -10.903   3.041 131.832  0.00  0.00    +0.292 HD
ENDBRANCH   1  22
BRANCH   3  24
ATOM     24  O   LIG A   1     -11.648   7.807 130.271  0.00  0.00    -0.491 OA
ATOM     25  C   LIG A   1     -13.053   7.578 130.377  0.00  0.00    +0.277 C 
ENDBRANCH   3  24
BRANCH   8  26
ATOM     26  O   LIG A   1      -7.151   1.832 128.144  0.00  0.00    -0.488 OA
ATOM     27  C   LIG A   1      -8.058   0.735 128.099  0.00  0.00    +0.277 C 
ENDBRANCH   8  26
BRANCH   4  28
ATOM     28  O   LIG A   1     -10.176   7.536 128.088  0.00  0.00    -0.488 OA
ATOM     29  C   LIG A   1     -11.059   7.288 126.998  0.00  0.00    +0.277 C 
ENDBRANCH   4  28
TORSDOF 7
ENDMDL
MODEL 4
REMARK VINA RESULT:      -6.7      2.113      2.786
REMARK  Name = NuBBE_1444
REMARK  12 active torsions:
REMARK  status: ('A' for Active; 'I' for Inactive)
REMARK    1  A    between atoms: O_1  and  C_2
REMARK    2  A    between atoms: C_4  and  O_5
REMARK    3  A    between atoms: O_5  and  C_6
REMARK    4  A    between atoms: C_7  and  O_27
REMARK    5  A    between atoms: C_11  and  O_12
REMARK    6  A    between atoms: O_12  and  C_13
REMARK    7  A    between atoms: C_14  and  C_16
REMARK    8  A    between atoms: C_19  and  O_24
REMARK    9  A    between atoms: C_20  and  O_21
REMARK   10  A    between atoms: O_21  and  C_22
REMARK   11  A    between atoms: O_24  and  C_25
REMARK   12  A    between atoms: O_27  and  C_28
REMARK                            x       y       z     vdW  Elec       q    Type
REMARK                         _______ _______ _______ _____ _____    ______ ____
ROOT
ATOM      1  C   LIG A   1     -11.745   6.843 131.327  0.00  0.00    +0.135 A 
ATOM      2  C   LIG A   1     -12.477   7.593 130.414  0.00  0.00    +0.095 A 
ATOM      3  C   LIG A   1     -11.884   7.994 129.209  0.00  0.00    +0.169 A 
ATOM      4  C   LIG A   1     -10.568   7.582 128.890  0.00  0.00    +0.205 A 
ATOM      5  C   LIG A   1      -9.846   6.816 129.821  0.00  0.00    +0.188 A 
ATOM      6  C   LIG A   1     -10.421   6.496 131.051  0.00  0.00    +0.113 A 
ATOM      7  C   LIG A   1      -9.550   5.864 132.042  0.00  0.00    +0.238 A 
ATOM      8  C   LIG A   1      -8.416   5.053 131.525  0.00  0.00    +0.211 A 
ATOM      9  C   LIG A   1      -7.989   5.409 130.295  0.00  0.00    +0.181 A 
ATOM     10  O   LIG A   1      -8.580   6.384 129.517  0.00  0.00    -0.447 OA
ATOM     11  O   LIG A   1      -9.708   6.096 133.248  0.00  0.00    -0.283 OA
ENDROOT
BRANCH   9  12
ATOM     12  C   LIG A   1      -6.828   4.788 129.636  0.00  0.00    +0.025 A 
ATOM     13  C   LIG A   1      -7.041   3.802 128.675  0.00  0.00    +0.015 A 
ATOM     14  C   LIG A   1      -5.961   3.185 128.045  0.00  0.00    +0.050 A 
ATOM     15  C   LIG A   1      -4.644   3.534 128.371  0.00  0.00    +0.162 A 
ATOM     16  C   LIG A   1      -4.411   4.567 129.304  0.00  0.00    +0.162 A 
ATOM     17  C   LIG A   1      -5.510   5.189 129.923  0.00  0.00    +0.061 A 
BRANCH  16  18
ATOM     18  O   LIG A   1      -3.098   4.884 129.568  0.00  0.00    -0.491 OA
ATOM     19  C   LIG A   1      -2.717   6.256 129.512  0.00  0.00    +0.277 C 
ENDBRANCH  16  18
BRANCH  15  20
ATOM     20  O   LIG A   1      -3.560   2.923 127.779  0.00  0.00    -0.491 OA
ATOM     21  C   LIG A   1      -3.248   3.380 126.461  0.00  0.00    +0.277 C 
ENDBRANCH  15  20
ENDBRANCH   9  12
BRANCH   1  22
ATOM     22  O   LIG A   1     -12.347   6.416 132.477  0.00  0.00    -0.506 OA
ATOM     23  H   LIG A   1     -12.964   7.087 132.809  0.00  0.00    +0.292 HD
ENDBRANCH   1  22
BRANCH   3  24
ATOM     24  O   LIG A   1     -12.554   8.753 128.277  0.00  0.00    -0.491 OA
ATOM     25  C   LIG A   1     -13.777   8.207 127.783  0.00  0.00    +0.277 C 
ENDBRANCH   3  24
BRANCH   8  26
ATOM     26  O   LIG A   1      -7.823   4.018 132.230  0.00  0.00    -0.488 OA
ATOM     27  C   LIG A   1      -8.572   2.811 132.334  0.00  0.00    +0.277 C 
ENDBRANCH   8  26
BRANCH   4  28
ATOM     28  O   LIG A   1     -10.121   7.928 127.636  0.00  0.00    -0.488 OA
ATOM     29  C   LIG A   1     -10.435   7.057 126.553  0.00  0.00    +0.277 C 
ENDBRANCH   4  28
TORSDOF 7
ENDMDL
MODEL 5
REMARK VINA RESULT:      -6.5      0.892      1.875
REMARK  Name = NuBBE_1444
REMARK  12 active torsions:
REMARK  status: ('A' for Active; 'I' for Inactive)
REMARK    1  A    between atoms: O_1  and  C_2
REMARK    2  A    between atoms: C_4  and  O_5
REMARK    3  A    between atoms: O_5  and  C_6
REMARK    4  A    between atoms: C_7  and  O_27
REMARK    5  A    between atoms: C_11  and  O_12
REMARK    6  A    between atoms: O_12  and  C_13
REMARK    7  A    between atoms: C_14  and  C_16
REMARK    8  A    between atoms: C_19  and  O_24
REMARK    9  A    between atoms: C_20  and  O_21
REMARK   10  A    between atoms: O_21  and  C_22
REMARK   11  A    between atoms: O_24  and  C_25
REMARK   12  A    between atoms: O_27  and  C_28
REMARK                            x       y       z     vdW  Elec       q    Type
REMARK                         _______ _______ _______ _____ _____    ______ ____
ROOT
ATOM      1  C   LIG A   1     -10.432   6.401 131.771  0.00  0.00    +0.135 A 
ATOM      2  C   LIG A   1     -11.575   7.097 131.395  0.00  0.00    +0.095 A 
ATOM      3  C   LIG A   1     -11.896   7.226 130.037  0.00  0.00    +0.169 A 
ATOM      4  C   LIG A   1     -11.099   6.593 129.053  0.00  0.00    +0.205 A 
ATOM      5  C   LIG A   1      -9.953   5.885 129.451  0.00  0.00    +0.188 A 
ATOM      6  C   LIG A   1      -9.602   5.837 130.801  0.00  0.00    +0.113 A 
ATOM      7  C   LIG A   1      -8.302   5.249 131.124  0.00  0.00    +0.238 A 
ATOM      8  C   LIG A   1      -7.775   4.220 130.187  0.00  0.00    +0.211 A 
ATOM      9  C   LIG A   1      -8.239   4.324 128.924  0.00  0.00    +0.181 A 
ATOM     10  O   LIG A   1      -9.185   5.242 128.515  0.00  0.00    -0.447 OA
ATOM     11  O   LIG A   1      -7.643   5.681 132.079  0.00  0.00    -0.283 OA
ENDROOT
BRANCH   9  12
ATOM     12  C   LIG A   1      -7.782   3.457 127.826  0.00  0.00    +0.025 A 
ATOM     13  C   LIG A   1      -6.810   3.932 126.947  0.00  0.00    +0.015 A 
ATOM     14  C   LIG A   1      -6.369   3.140 125.888  0.00  0.00    +0.050 A 
ATOM     15  C   LIG A   1      -6.898   1.861 125.678  0.00  0.00    +0.162 A 
ATOM     16  C   LIG A   1      -7.845   1.344 126.588  0.00  0.00    +0.162 A 
ATOM     17  C   LIG A   1      -8.273   2.150 127.659  0.00  0.00    +0.061 A 
BRANCH  16  18
ATOM     18  O   LIG A   1      -8.313   0.073 126.346  0.00  0.00    -0.491 OA
ATOM     19  C   LIG A   1      -7.820  -0.988 127.161  0.00  0.00    +0.277 C 
ENDBRANCH  16  18
BRANCH  15  20
ATOM     20  O   LIG A   1      -6.494   1.068 124.626  0.00  0.00    -0.491 OA
ATOM     21  C   LIG A   1      -7.087   1.382 123.364  0.00  0.00    +0.277 C 
ENDBRANCH  15  20
ENDBRANCH   9  12
BRANCH   1  22
ATOM     22  O   LIG A   1     -10.154   6.240 133.099  0.00  0.00    -0.506 OA
ATOM     23  H   LIG A   1     -10.970   6.246 133.623  0.00  0.00    +0.292 HD
ENDBRANCH   1  22
BRANCH   3  24
ATOM     24  O   LIG A   1     -13.004   7.920 129.606  0.00  0.00    -0.491 OA
ATOM     25  C   LIG A   1     -12.892   9.343 129.604  0.00  0.00    +0.277 C 
ENDBRANCH   3  24
BRANCH   8  26
ATOM     26  O   LIG A   1      -6.874   3.232 130.553  0.00  0.00    -0.488 OA
ATOM     27  C   LIG A   1      -5.497   3.594 130.539  0.00  0.00    +0.277 C 
ENDBRANCH   8  26
BRANCH   4  28
ATOM     28  O   LIG A   1     -11.564   6.680 127.762  0.00  0.00    -0.488 OA
ATOM     29  C   LIG A   1     -10.951   7.629 126.895  0.00  0.00    +0.277 C 
ENDBRANCH   4  28
TORSDOF 7
ENDMDL
MODEL 6
REMARK VINA RESULT:      -6.5      5.637      8.518
REMARK  Name = NuBBE_1444
REMARK  12 active torsions:
REMARK  status: ('A' for Active; 'I' for Inactive)
REMARK    1  A    between atoms: O_1  and  C_2
REMARK    2  A    between atoms: C_4  and  O_5
REMARK    3  A    between atoms: O_5  and  C_6
REMARK    4  A    between atoms: C_7  and  O_27
REMARK    5  A    between atoms: C_11  and  O_12
REMARK    6  A    between atoms: O_12  and  C_13
REMARK    7  A    between atoms: C_14  and  C_16
REMARK    8  A    between atoms: C_19  and  O_24
REMARK    9  A    between atoms: C_20  and  O_21
REMARK   10  A    between atoms: O_21  and  C_22
REMARK   11  A    between atoms: O_24  and  C_25
REMARK   12  A    between atoms: O_27  and  C_28
REMARK                            x       y       z     vdW  Elec       q    Type
REMARK                         _______ _______ _______ _____ _____    ______ ____
ROOT
ATOM      1  C   LIG A   1      -9.201  -2.844 126.300  0.00  0.00    +0.135 A 
ATOM      2  C   LIG A   1      -8.625  -3.303 127.479  0.00  0.00    +0.095 A 
ATOM      3  C   LIG A   1      -7.387  -2.795 127.894  0.00  0.00    +0.169 A 
ATOM      4  C   LIG A   1      -6.753  -1.769 127.153  0.00  0.00    +0.205 A 
ATOM      5  C   LIG A   1      -7.353  -1.308 125.969  0.00  0.00    +0.188 A 
ATOM      6  C   LIG A   1      -8.545  -1.884 125.526  0.00  0.00    +0.113 A 
ATOM      7  C   LIG A   1      -9.013  -1.493 124.196  0.00  0.00    +0.238 A 
ATOM      8  C   LIG A   1      -8.622  -0.141 123.714  0.00  0.00    +0.211 A 
ATOM      9  C   LIG A   1      -7.489   0.344 124.264  0.00  0.00    +0.181 A 
ATOM     10  O   LIG A   1      -6.769  -0.296 125.254  0.00  0.00    -0.447 OA
ATOM     11  O   LIG A   1      -9.613  -2.308 123.483  0.00  0.00    -0.283 OA
ENDROOT
BRANCH   9  12
ATOM     12  C   LIG A   1      -6.886   1.626 123.866  0.00  0.00    +0.025 A 
ATOM     13  C   LIG A   1      -6.785   1.935 122.511  0.00  0.00    +0.015 A 
ATOM     14  C   LIG A   1      -6.204   3.135 122.102  0.00  0.00    +0.050 A 
ATOM     15  C   LIG A   1      -5.702   4.046 123.040  0.00  0.00    +0.162 A 
ATOM     16  C   LIG A   1      -5.842   3.772 124.417  0.00  0.00    +0.162 A 
ATOM     17  C   LIG A   1      -6.440   2.563 124.815  0.00  0.00    +0.061 A 
BRANCH  16  18
ATOM     18  O   LIG A   1      -5.351   4.713 125.293  0.00  0.00    -0.491 OA
ATOM     19  C   LIG A   1      -5.291   4.373 126.676  0.00  0.00    +0.277 C 
ENDBRANCH  16  18
BRANCH  15  20
ATOM     20  O   LIG A   1      -5.103   5.227 122.660  0.00  0.00    -0.491 OA
ATOM     21  C   LIG A   1      -4.280   5.147 121.494  0.00  0.00    +0.277 C 
ENDBRANCH  15  20
ENDBRANCH   9  12
BRANCH   1  22
ATOM     22  O   LIG A   1     -10.430  -3.310 125.929  0.00  0.00    -0.506 OA
ATOM     23  H   LIG A   1     -10.509  -3.334 124.963  0.00  0.00    +0.292 HD
ENDBRANCH   1  22
BRANCH   3  24
ATOM     24  O   LIG A   1      -6.762  -3.227 129.041  0.00  0.00    -0.491 OA
ATOM     25  C   LIG A   1      -7.470  -3.012 130.262  0.00  0.00    +0.277 C 
ENDBRANCH   3  24
BRANCH   8  26
ATOM     26  O   LIG A   1      -9.339   0.579 122.772  0.00  0.00    -0.488 OA
ATOM     27  C   LIG A   1     -10.544   1.190 123.224  0.00  0.00    +0.277 C 
ENDBRANCH   8  26
BRANCH   4  28
ATOM     28  O   LIG A   1      -5.603  -1.257 127.706  0.00  0.00    -0.488 OA
ATOM     29  C   LIG A   1      -5.705  -0.052 128.460  0.00  0.00    +0.277 C 
ENDBRANCH   4  28
TORSDOF 7
ENDMDL
MODEL 7
REMARK VINA RESULT:      -6.4      5.748      7.934
REMARK  Name = NuBBE_1444
REMARK  12 active torsions:
REMARK  status: ('A' for Active; 'I' for Inactive)
REMARK    1  A    between atoms: O_1  and  C_2
REMARK    2  A    between atoms: C_4  and  O_5
REMARK    3  A    between atoms: O_5  and  C_6
REMARK    4  A    between atoms: C_7  and  O_27
REMARK    5  A    between atoms: C_11  and  O_12
REMARK    6  A    between atoms: O_12  and  C_13
REMARK    7  A    between atoms: C_14  and  C_16
REMARK    8  A    between atoms: C_19  and  O_24
REMARK    9  A    between atoms: C_20  and  O_21
REMARK   10  A    between atoms: O_21  and  C_22
REMARK   11  A    between atoms: O_24  and  C_25
REMARK   12  A    between atoms: O_27  and  C_28
REMARK                            x       y       z     vdW  Elec       q    Type
REMARK                         _______ _______ _______ _____ _____    ______ ____
ROOT
ATOM      1  C   LIG A   1      -8.469   2.355 122.920  0.00  0.00    +0.135 A 
ATOM      2  C   LIG A   1      -7.571   3.347 122.548  0.00  0.00    +0.095 A 
ATOM      3  C   LIG A   1      -6.478   3.643 123.375  0.00  0.00    +0.169 A 
ATOM      4  C   LIG A   1      -6.250   2.889 124.551  0.00  0.00    +0.205 A 
ATOM      5  C   LIG A   1      -7.163   1.881 124.907  0.00  0.00    +0.188 A 
ATOM      6  C   LIG A   1      -8.291   1.657 124.116  0.00  0.00    +0.113 A 
ATOM      7  C   LIG A   1      -9.292   0.729 124.643  0.00  0.00    +0.238 A 
ATOM      8  C   LIG A   1      -8.808  -0.338 125.558  0.00  0.00    +0.211 A 
ATOM      9  C   LIG A   1      -7.670  -0.036 126.218  0.00  0.00    +0.181 A 
ATOM     10  O   LIG A   1      -6.943   1.122 126.027  0.00  0.00    -0.447 OA
ATOM     11  O   LIG A   1     -10.493   0.912 124.408  0.00  0.00    -0.283 OA
ENDROOT
BRANCH   9  12
ATOM     12  C   LIG A   1      -7.068  -0.920 127.230  0.00  0.00    +0.025 A 
ATOM     13  C   LIG A   1      -5.893  -1.603 126.920  0.00  0.00    +0.015 A 
ATOM     14  C   LIG A   1      -5.309  -2.459 127.853  0.00  0.00    +0.050 A 
ATOM     15  C   LIG A   1      -5.892  -2.659 129.110  0.00  0.00    +0.162 A 
ATOM     16  C   LIG A   1      -7.052  -1.935 129.459  0.00  0.00    +0.162 A 
ATOM     17  C   LIG A   1      -7.626  -1.066 128.513  0.00  0.00    +0.061 A 
BRANCH  16  18
ATOM     18  O   LIG A   1      -7.568  -2.153 130.716  0.00  0.00    -0.491 OA
ATOM     19  C   LIG A   1      -7.880  -1.016 131.518  0.00  0.00    +0.277 C 
ENDBRANCH  16  18
BRANCH  15  20
ATOM     20  O   LIG A   1      -5.345  -3.516 130.040  0.00  0.00    -0.491 OA
ATOM     21  C   LIG A   1      -3.917  -3.574 130.051  0.00  0.00    +0.277 C 
ENDBRANCH  15  20
ENDBRANCH   9  12
BRANCH   1  22
ATOM     22  O   LIG A   1      -9.504   2.041 122.084  0.00  0.00    -0.506 OA
ATOM     23  H   LIG A   1      -9.657   2.757 121.448  0.00  0.00    +0.292 HD
ENDBRANCH   1  22
BRANCH   3  24
ATOM     24  O   LIG A   1      -5.568   4.628 123.068  0.00  0.00    -0.491 OA
ATOM     25  C   LIG A   1      -4.938   4.525 121.791  0.00  0.00    +0.277 C 
ENDBRANCH   3  24
BRANCH   8  26
ATOM     26  O   LIG A   1      -9.457  -1.549 125.743  0.00  0.00    -0.488 OA
ATOM     27  C   LIG A   1      -9.147  -2.582 124.814  0.00  0.00    +0.277 C 
ENDBRANCH   8  26
BRANCH   4  28
ATOM     28  O   LIG A   1      -5.089   3.177 125.229  0.00  0.00    -0.488 OA
ATOM     29  C   LIG A   1      -5.173   4.044 126.356  0.00  0.00    +0.277 C 
ENDBRANCH   4  28
TORSDOF 7
ENDMDL
MODEL 8
REMARK VINA RESULT:      -6.3      3.705      5.815
REMARK  Name = NuBBE_1444
REMARK  12 active torsions:
REMARK  status: ('A' for Active; 'I' for Inactive)
REMARK    1  A    between atoms: O_1  and  C_2
REMARK    2  A    between atoms: C_4  and  O_5
REMARK    3  A    between atoms: O_5  and  C_6
REMARK    4  A    between atoms: C_7  and  O_27
REMARK    5  A    between atoms: C_11  and  O_12
REMARK    6  A    between atoms: O_12  and  C_13
REMARK    7  A    between atoms: C_14  and  C_16
REMARK    8  A    between atoms: C_19  and  O_24
REMARK    9  A    between atoms: C_20  and  O_21
REMARK   10  A    between atoms: O_21  and  C_22
REMARK   11  A    between atoms: O_24  and  C_25
REMARK   12  A    between atoms: O_27  and  C_28
REMARK                            x       y       z     vdW  Elec       q    Type
REMARK                         _______ _______ _______ _____ _____    ______ ____
ROOT
ATOM      1  C   LIG A   1      -9.239   1.197 131.383  0.00  0.00    +0.135 A 
ATOM      2  C   LIG A   1      -9.653   2.497 131.119  0.00  0.00    +0.095 A 
ATOM      3  C   LIG A   1      -9.300   3.108 129.908  0.00  0.00    +0.169 A 
ATOM      4  C   LIG A   1      -8.583   2.383 128.927  0.00  0.00    +0.205 A 
ATOM      5  C   LIG A   1      -8.181   1.066 129.206  0.00  0.00    +0.188 A 
ATOM      6  C   LIG A   1      -8.468   0.502 130.450  0.00  0.00    +0.113 A 
ATOM      7  C   LIG A   1      -7.858  -0.796 130.742  0.00  0.00    +0.238 A 
ATOM      8  C   LIG A   1      -7.559  -1.678 129.583  0.00  0.00    +0.211 A 
ATOM      9  C   LIG A   1      -7.369  -1.025 128.417  0.00  0.00    +0.181 A 
ATOM     10  O   LIG A   1      -7.510   0.338 128.257  0.00  0.00    -0.447 OA
ATOM     11  O   LIG A   1      -7.518  -1.076 131.899  0.00  0.00    -0.283 OA
ENDROOT
BRANCH   9  12
ATOM     12  C   LIG A   1      -6.984  -1.704 127.169  0.00  0.00    +0.025 A 
ATOM     13  C   LIG A   1      -5.675  -1.581 126.707  0.00  0.00    +0.015 A 
ATOM     14  C   LIG A   1      -5.285  -2.199 125.520  0.00  0.00    +0.050 A 
ATOM     15  C   LIG A   1      -6.198  -2.944 124.764  0.00  0.00    +0.162 A 
ATOM     16  C   LIG A   1      -7.513  -3.122 125.243  0.00  0.00    +0.162 A 
ATOM     17  C   LIG A   1      -7.890  -2.502 126.448  0.00  0.00    +0.061 A 
BRANCH  16  18
ATOM     18  O   LIG A   1      -8.360  -3.883 124.471  0.00  0.00    -0.491 OA
ATOM     19  C   LIG A   1      -9.365  -3.209 123.716  0.00  0.00    +0.277 C 
ENDBRANCH  16  18
BRANCH  15  20
ATOM     20  O   LIG A   1      -5.842  -3.546 123.576  0.00  0.00    -0.491 OA
ATOM     21  C   LIG A   1      -4.563  -4.183 123.574  0.00  0.00    +0.277 C 
ENDBRANCH  15  20
ENDBRANCH   9  12
BRANCH   1  22
ATOM     22  O   LIG A   1      -9.627   0.594 132.546  0.00  0.00    -0.506 OA
ATOM     23  H   LIG A   1     -10.324  -0.060 132.375  0.00  0.00    +0.292 HD
ENDBRANCH   1  22
BRANCH   3  24
ATOM     24  O   LIG A   1      -9.665   4.399 129.601  0.00  0.00    -0.491 OA
ATOM     25  C   LIG A   1      -9.340   5.392 130.574  0.00  0.00    +0.277 C 
ENDBRANCH   3  24
BRANCH   8  26
ATOM     26  O   LIG A   1      -7.470  -3.059 129.667  0.00  0.00    -0.488 OA
ATOM     27  C   LIG A   1      -6.203  -3.590 130.045  0.00  0.00    +0.277 C 
ENDBRANCH   8  26
BRANCH   4  28
ATOM     28  O   LIG A   1      -8.389   3.030 127.729  0.00  0.00    -0.488 OA
ATOM     29  C   LIG A   1      -7.137   3.674 127.513  0.00  0.00    +0.277 C 
ENDBRANCH   4  28
TORSDOF 7
ENDMDL
MODEL 9
REMARK VINA RESULT:      -6.2      5.153      7.387
REMARK  Name = NuBBE_1444
REMARK  12 active torsions:
REMARK  status: ('A' for Active; 'I' for Inactive)
REMARK    1  A    between atoms: O_1  and  C_2
REMARK    2  A    between atoms: C_4  and  O_5
REMARK    3  A    between atoms: O_5  and  C_6
REMARK    4  A    between atoms: C_7  and  O_27
REMARK    5  A    between atoms: C_11  and  O_12
REMARK    6  A    between atoms: O_12  and  C_13
REMARK    7  A    between atoms: C_14  and  C_16
REMARK    8  A    between atoms: C_19  and  O_24
REMARK    9  A    between atoms: C_20  and  O_21
REMARK   10  A    between atoms: O_21  and  C_22
REMARK   11  A    between atoms: O_24  and  C_25
REMARK   12  A    between atoms: O_27  and  C_28
REMARK                            x       y       z     vdW  Elec       q    Type
REMARK                         _______ _______ _______ _____ _____    ______ ____
ROOT
ATOM      1  C   LIG A   1      -8.267  -2.669 127.663  0.00  0.00    +0.135 A 
ATOM      2  C   LIG A   1      -8.918  -2.968 126.472  0.00  0.00    +0.095 A 
ATOM      3  C   LIG A   1      -9.095  -1.969 125.506  0.00  0.00    +0.169 A 
ATOM      4  C   LIG A   1      -8.555  -0.677 125.709  0.00  0.00    +0.205 A 
ATOM      5  C   LIG A   1      -7.890  -0.394 126.914  0.00  0.00    +0.188 A 
ATOM      6  C   LIG A   1      -7.796  -1.377 127.901  0.00  0.00    +0.113 A 
ATOM      7  C   LIG A   1      -7.262  -0.960 129.198  0.00  0.00    +0.238 A 
ATOM      8  C   LIG A   1      -6.311   0.183 129.201  0.00  0.00    +0.211 A 
ATOM      9  C   LIG A   1      -6.450   1.030 128.160  0.00  0.00    +0.181 A 
ATOM     10  O   LIG A   1      -7.336   0.843 127.117  0.00  0.00    -0.447 OA
ATOM     11  O   LIG A   1      -7.682  -1.481 130.240  0.00  0.00    -0.283 OA
ENDROOT
BRANCH   9  12
ATOM     12  C   LIG A   1      -5.664   2.266 128.018  0.00  0.00    +0.025 A 
ATOM     13  C   LIG A   1      -6.029   3.391 128.754  0.00  0.00    +0.015 A 
ATOM     14  C   LIG A   1      -5.313   4.581 128.628  0.00  0.00    +0.050 A 
ATOM     15  C   LIG A   1      -4.222   4.674 127.755  0.00  0.00    +0.162 A 
ATOM     16  C   LIG A   1      -3.806   3.530 127.040  0.00  0.00    +0.162 A 
ATOM     17  C   LIG A   1      -4.532   2.333 127.185  0.00  0.00    +0.061 A 
BRANCH  16  18
ATOM     18  O   LIG A   1      -2.715   3.673 126.215  0.00  0.00    -0.491 OA
ATOM     19  C   LIG A   1      -1.521   2.974 126.557  0.00  0.00    +0.277 C 
ENDBRANCH  16  18
BRANCH  15  20
ATOM     20  O   LIG A   1      -3.512   5.844 127.596  0.00  0.00    -0.491 OA
ATOM     21  C   LIG A   1      -2.662   6.194 128.691  0.00  0.00    +0.277 C 
ENDBRANCH  15  20
ENDBRANCH   9  12
BRANCH   1  22
ATOM     22  O   LIG A   1      -8.057  -3.662 128.578  0.00  0.00    -0.506 OA
ATOM     23  H   LIG A   1      -7.627  -4.425 128.162  0.00  0.00    +0.292 HD
ENDBRANCH   1  22
BRANCH   3  24
ATOM     24  O   LIG A   1      -9.749  -2.202 124.317  0.00  0.00    -0.491 OA
ATOM     25  C   LIG A   1      -9.423  -3.421 123.650  0.00  0.00    +0.277 C 
ENDBRANCH   3  24
BRANCH   8  26
ATOM     26  O   LIG A   1      -5.355   0.389 130.184  0.00  0.00    -0.488 OA
ATOM     27  C   LIG A   1      -4.247  -0.505 130.187  0.00  0.00    +0.277 C 
ENDBRANCH   8  26
BRANCH   4  28
ATOM     28  O   LIG A   1      -8.679   0.196 124.653  0.00  0.00    -0.488 OA
ATOM     29  C   LIG A   1      -9.723   1.163 124.707  0.00  0.00    +0.277 C 
ENDBRANCH   4  28
TORSDOF 7
ENDMDL
