MODEL 1
REMARK VINA RESULT:      -7.9      0.000      0.000
REMARK  Name = NuBBE_1045
REMARK  1 active torsions:
REMARK  status: ('A' for Active; 'I' for Inactive)
REMARK    1  A    between atoms: C_10  and  C_11
REMARK                            x       y       z     vdW  Elec       q    Type
REMARK                         _______ _______ _______ _____ _____    ______ ____
ROOT
ATOM      1  O   LIG A   1     -13.077   6.846 131.519  0.00  0.00    -0.287 OA
ATOM      2  C   LIG A   1     -12.016   6.840 130.910  0.00  0.00    +0.193 A 
ATOM      3  C   LIG A   1     -11.941   7.043 129.456  0.00  0.00    +0.064 A 
ATOM      4  C   LIG A   1     -13.097   7.257 128.701  0.00  0.00    +0.015 A 
ATOM      5  C   LIG A   1     -12.993   7.448 127.322  0.00  0.00    +0.001 A 
ATOM      6  C   LIG A   1     -11.740   7.425 126.706  0.00  0.00    +0.004 A 
ATOM      7  C   LIG A   1     -10.589   7.211 127.465  0.00  0.00    +0.047 A 
ATOM      8  C   LIG A   1     -10.690   7.020 128.843  0.00  0.00    +0.139 A 
ATOM      9  O   LIG A   1      -9.524   6.815 129.536  0.00  0.00    -0.455 OA
ATOM     10  C   LIG A   1      -9.598   6.614 130.907  0.00  0.00    +0.139 A 
ATOM     11  C   LIG A   1     -10.740   6.623 131.610  0.00  0.00    +0.098 A 
ENDROOT
BRANCH  10  12
ATOM     12  C   LIG A   1      -8.289   6.411 131.558  0.00  0.00    +0.017 A 
ATOM     13  C   LIG A   1      -8.220   5.789 132.814  0.00  0.00    +0.011 A 
ATOM     14  C   LIG A   1      -6.991   5.596 133.452  0.00  0.00    +0.001 A 
ATOM     15  C   LIG A   1      -5.816   6.030 132.843  0.00  0.00    +0.000 A 
ATOM     16  C   LIG A   1      -5.867   6.659 131.603  0.00  0.00    +0.001 A 
ATOM     17  C   LIG A   1      -7.096   6.851 130.964  0.00  0.00    +0.011 A 
ENDBRANCH  10  12
TORSDOF 1
ENDMDL
MODEL 2
REMARK VINA RESULT:      -7.4      1.523      5.855
REMARK  Name = NuBBE_1045
REMARK  1 active torsions:
REMARK  status: ('A' for Active; 'I' for Inactive)
REMARK    1  A    between atoms: C_10  and  C_11
REMARK                            x       y       z     vdW  Elec       q    Type
REMARK                         _______ _______ _______ _____ _____    ______ ____
ROOT
ATOM      1  O   LIG A   1      -9.044   4.997 133.713  0.00  0.00    -0.287 OA
ATOM      2  C   LIG A   1      -8.820   5.671 132.716  0.00  0.00    +0.193 A 
ATOM      3  C   LIG A   1      -7.461   6.069 132.322  0.00  0.00    +0.064 A 
ATOM      4  C   LIG A   1      -6.353   5.683 133.081  0.00  0.00    +0.015 A 
ATOM      5  C   LIG A   1      -5.074   6.075 132.681  0.00  0.00    +0.001 A 
ATOM      6  C   LIG A   1      -4.909   6.845 131.528  0.00  0.00    +0.004 A 
ATOM      7  C   LIG A   1      -6.020   7.227 130.773  0.00  0.00    +0.047 A 
ATOM      8  C   LIG A   1      -7.298   6.837 131.172  0.00  0.00    +0.139 A 
ATOM      9  O   LIG A   1      -8.350   7.241 130.390  0.00  0.00    -0.455 OA
ATOM     10  C   LIG A   1      -9.633   6.874 130.769  0.00  0.00    +0.139 A 
ATOM     11  C   LIG A   1      -9.916   6.129 131.848  0.00  0.00    +0.098 A 
ENDROOT
BRANCH  10  12
ATOM     12  C   LIG A   1     -10.692   7.352 129.858  0.00  0.00    +0.017 A 
ATOM     13  C   LIG A   1     -12.040   7.118 130.167  0.00  0.00    +0.011 A 
ATOM     14  C   LIG A   1     -13.057   7.555 129.313  0.00  0.00    +0.001 A 
ATOM     15  C   LIG A   1     -12.737   8.224 128.134  0.00  0.00    +0.000 A 
ATOM     16  C   LIG A   1     -11.404   8.454 127.806  0.00  0.00    +0.001 A 
ATOM     17  C   LIG A   1     -10.386   8.019 128.662  0.00  0.00    +0.011 A 
ENDBRANCH  10  12
TORSDOF 1
ENDMDL
MODEL 3
REMARK VINA RESULT:      -7.4      8.367     10.229
REMARK  Name = NuBBE_1045
REMARK  1 active torsions:
REMARK  status: ('A' for Active; 'I' for Inactive)
REMARK    1  A    between atoms: C_10  and  C_11
REMARK                            x       y       z     vdW  Elec       q    Type
REMARK                         _______ _______ _______ _____ _____    ______ ____
ROOT
ATOM      1  O   LIG A   1      -4.158   4.824 122.103  0.00  0.00    -0.287 OA
ATOM      2  C   LIG A   1      -5.273   4.373 121.878  0.00  0.00    +0.193 A 
ATOM      3  C   LIG A   1      -5.961   4.573 120.595  0.00  0.00    +0.064 A 
ATOM      4  C   LIG A   1      -5.357   5.297 119.564  0.00  0.00    +0.015 A 
ATOM      5  C   LIG A   1      -6.036   5.470 118.356  0.00  0.00    +0.001 A 
ATOM      6  C   LIG A   1      -7.308   4.920 118.184  0.00  0.00    +0.004 A 
ATOM      7  C   LIG A   1      -7.906   4.197 119.219  0.00  0.00    +0.047 A 
ATOM      8  C   LIG A   1      -7.230   4.024 120.427  0.00  0.00    +0.139 A 
ATOM      9  O   LIG A   1      -7.867   3.305 121.405  0.00  0.00    -0.455 OA
ATOM     10  C   LIG A   1      -7.220   3.124 122.619  0.00  0.00    +0.139 A 
ATOM     11  C   LIG A   1      -5.995   3.595 122.898  0.00  0.00    +0.098 A 
ENDROOT
BRANCH  10  12
ATOM     12  C   LIG A   1      -7.986   2.331 123.599  0.00  0.00    +0.017 A 
ATOM     13  C   LIG A   1      -7.334   1.765 124.706  0.00  0.00    +0.011 A 
ATOM     14  C   LIG A   1      -8.040   1.003 125.641  0.00  0.00    +0.001 A 
ATOM     15  C   LIG A   1      -9.407   0.790 125.476  0.00  0.00    +0.000 A 
ATOM     16  C   LIG A   1     -10.068   1.334 124.378  0.00  0.00    +0.001 A 
ATOM     17  C   LIG A   1      -9.362   2.098 123.444  0.00  0.00    +0.011 A 
ENDBRANCH  10  12
TORSDOF 1
ENDMDL
MODEL 4
REMARK VINA RESULT:      -7.1      1.333      2.192
REMARK  Name = NuBBE_1045
REMARK  1 active torsions:
REMARK  status: ('A' for Active; 'I' for Inactive)
REMARK    1  A    between atoms: C_10  and  C_11
REMARK                            x       y       z     vdW  Elec       q    Type
REMARK                         _______ _______ _______ _____ _____    ______ ____
ROOT
ATOM      1  O   LIG A   1     -11.168   5.718 132.476  0.00  0.00    -0.287 OA
ATOM      2  C   LIG A   1     -10.376   6.260 131.718  0.00  0.00    +0.193 A 
ATOM      3  C   LIG A   1     -10.807   6.993 130.519  0.00  0.00    +0.064 A 
ATOM      4  C   LIG A   1     -12.162   7.102 130.195  0.00  0.00    +0.015 A 
ATOM      5  C   LIG A   1     -12.541   7.806 129.049  0.00  0.00    +0.001 A 
ATOM      6  C   LIG A   1     -11.569   8.395 128.238  0.00  0.00    +0.004 A 
ATOM      7  C   LIG A   1     -10.217   8.282 128.568  0.00  0.00    +0.047 A 
ATOM      8  C   LIG A   1      -9.837   7.580 129.710  0.00  0.00    +0.139 A 
ATOM      9  O   LIG A   1      -8.494   7.504 129.983  0.00  0.00    -0.455 OA
ATOM     10  C   LIG A   1      -8.088   6.804 131.109  0.00  0.00    +0.139 A 
ATOM     11  C   LIG A   1      -8.927   6.205 131.968  0.00  0.00    +0.098 A 
ENDROOT
BRANCH  10  12
ATOM     12  C   LIG A   1      -6.627   6.789 131.316  0.00  0.00    +0.017 A 
ATOM     13  C   LIG A   1      -5.785   7.468 130.422  0.00  0.00    +0.011 A 
ATOM     14  C   LIG A   1      -4.398   7.459 130.596  0.00  0.00    +0.001 A 
ATOM     15  C   LIG A   1      -3.835   6.762 131.663  0.00  0.00    +0.000 A 
ATOM     16  C   LIG A   1      -4.654   6.073 132.553  0.00  0.00    +0.001 A 
ATOM     17  C   LIG A   1      -6.042   6.084 132.380  0.00  0.00    +0.011 A 
ENDBRANCH  10  12
TORSDOF 1
ENDMDL
MODEL 5
REMARK VINA RESULT:      -7.1      1.506      6.328
REMARK  Name = NuBBE_1045
REMARK  1 active torsions:
REMARK  status: ('A' for Active; 'I' for Inactive)
REMARK    1  A    between atoms: C_10  and  C_11
REMARK                            x       y       z     vdW  Elec       q    Type
REMARK                         _______ _______ _______ _____ _____    ______ ____
ROOT
ATOM      1  O   LIG A   1      -6.103   7.265 130.895  0.00  0.00    -0.287 OA
ATOM      2  C   LIG A   1      -7.231   6.881 131.173  0.00  0.00    +0.193 A 
ATOM      3  C   LIG A   1      -7.504   5.994 132.313  0.00  0.00    +0.064 A 
ATOM      4  C   LIG A   1      -6.468   5.549 133.139  0.00  0.00    +0.015 A 
ATOM      5  C   LIG A   1      -6.759   4.707 134.214  0.00  0.00    +0.001 A 
ATOM      6  C   LIG A   1      -8.077   4.317 134.460  0.00  0.00    +0.004 A 
ATOM      7  C   LIG A   1      -9.108   4.766 133.631  0.00  0.00    +0.047 A 
ATOM      8  C   LIG A   1      -8.819   5.606 132.556  0.00  0.00    +0.139 A 
ATOM      9  O   LIG A   1      -9.873   6.015 131.778  0.00  0.00    -0.455 OA
ATOM     10  C   LIG A   1      -9.613   6.845 130.698  0.00  0.00    +0.139 A 
ATOM     11  C   LIG A   1      -8.392   7.293 130.368  0.00  0.00    +0.098 A 
ENDROOT
BRANCH  10  12
ATOM     12  C   LIG A   1     -10.813   7.233 129.932  0.00  0.00    +0.017 A 
ATOM     13  C   LIG A   1     -10.693   8.095 128.831  0.00  0.00    +0.011 A 
ATOM     14  C   LIG A   1     -11.819   8.481 128.098  0.00  0.00    +0.001 A 
ATOM     15  C   LIG A   1     -13.080   8.016 128.462  0.00  0.00    +0.000 A 
ATOM     16  C   LIG A   1     -13.218   7.168 129.558  0.00  0.00    +0.001 A 
ATOM     17  C   LIG A   1     -12.092   6.780 130.290  0.00  0.00    +0.011 A 
ENDBRANCH  10  12
TORSDOF 1
ENDMDL
MODEL 6
REMARK VINA RESULT:      -7.0      1.802      2.955
REMARK  Name = NuBBE_1045
REMARK  1 active torsions:
REMARK  status: ('A' for Active; 'I' for Inactive)
REMARK    1  A    between atoms: C_10  and  C_11
REMARK                            x       y       z     vdW  Elec       q    Type
REMARK                         _______ _______ _______ _____ _____    ______ ____
ROOT
ATOM      1  O   LIG A   1      -9.737   6.420 127.446  0.00  0.00    -0.287 OA
ATOM      2  C   LIG A   1     -10.125   6.541 128.601  0.00  0.00    +0.193 A 
ATOM      3  C   LIG A   1     -11.222   7.446 128.974  0.00  0.00    +0.064 A 
ATOM      4  C   LIG A   1     -11.877   8.213 128.007  0.00  0.00    +0.015 A 
ATOM      5  C   LIG A   1     -12.917   9.063 128.393  0.00  0.00    +0.001 A 
ATOM      6  C   LIG A   1     -13.296   9.140 129.735  0.00  0.00    +0.004 A 
ATOM      7  C   LIG A   1     -12.637   8.369 130.695  0.00  0.00    +0.047 A 
ATOM      8  C   LIG A   1     -11.598   7.521 130.312  0.00  0.00    +0.139 A 
ATOM      9  O   LIG A   1     -10.990   6.788 131.300  0.00  0.00    -0.455 OA
ATOM     10  C   LIG A   1      -9.948   5.943 130.948  0.00  0.00    +0.139 A 
ATOM     11  C   LIG A   1      -9.503   5.777 129.693  0.00  0.00    +0.098 A 
ENDROOT
BRANCH  10  12
ATOM     12  C   LIG A   1      -9.368   5.196 132.081  0.00  0.00    +0.017 A 
ATOM     13  C   LIG A   1      -8.710   5.885 133.111  0.00  0.00    +0.011 A 
ATOM     14  C   LIG A   1      -8.146   5.195 134.188  0.00  0.00    +0.001 A 
ATOM     15  C   LIG A   1      -8.227   3.805 134.244  0.00  0.00    +0.000 A 
ATOM     16  C   LIG A   1      -8.867   3.105 133.225  0.00  0.00    +0.001 A 
ATOM     17  C   LIG A   1      -9.432   3.796 132.148  0.00  0.00    +0.011 A 
ENDBRANCH  10  12
TORSDOF 1
ENDMDL
MODEL 7
REMARK VINA RESULT:      -7.0      2.097      6.006
REMARK  Name = NuBBE_1045
REMARK  1 active torsions:
REMARK  status: ('A' for Active; 'I' for Inactive)
REMARK    1  A    between atoms: C_10  and  C_11
REMARK                            x       y       z     vdW  Elec       q    Type
REMARK                         _______ _______ _______ _____ _____    ______ ____
ROOT
ATOM      1  O   LIG A   1      -9.822   2.459 131.092  0.00  0.00    -0.287 OA
ATOM      2  C   LIG A   1      -9.760   3.643 131.395  0.00  0.00    +0.193 A 
ATOM      3  C   LIG A   1      -9.023   4.118 132.574  0.00  0.00    +0.064 A 
ATOM      4  C   LIG A   1      -8.350   3.221 133.408  0.00  0.00    +0.015 A 
ATOM      5  C   LIG A   1      -7.658   3.703 134.521  0.00  0.00    +0.001 A 
ATOM      6  C   LIG A   1      -7.639   5.073 134.793  0.00  0.00    +0.004 A 
ATOM      7  C   LIG A   1      -8.313   5.964 133.955  0.00  0.00    +0.047 A 
ATOM      8  C   LIG A   1      -9.006   5.484 132.844  0.00  0.00    +0.139 A 
ATOM      9  O   LIG A   1      -9.648   6.407 132.058  0.00  0.00    -0.455 OA
ATOM     10  C   LIG A   1     -10.351   5.957 130.951  0.00  0.00    +0.139 A 
ATOM     11  C   LIG A   1     -10.433   4.669 130.583  0.00  0.00    +0.098 A 
ENDROOT
BRANCH  10  12
ATOM     12  C   LIG A   1     -10.997   7.029 130.169  0.00  0.00    +0.017 A 
ATOM     13  C   LIG A   1     -12.238   7.542 130.576  0.00  0.00    +0.011 A 
ATOM     14  C   LIG A   1     -12.871   8.551 129.844  0.00  0.00    +0.001 A 
ATOM     15  C   LIG A   1     -12.273   9.053 128.690  0.00  0.00    +0.000 A 
ATOM     16  C   LIG A   1     -11.048   8.548 128.266  0.00  0.00    +0.001 A 
ATOM     17  C   LIG A   1     -10.414   7.540 128.999  0.00  0.00    +0.011 A 
ENDBRANCH  10  12
TORSDOF 1
ENDMDL
MODEL 8
REMARK VINA RESULT:      -7.0      2.502      5.951
REMARK  Name = NuBBE_1045
REMARK  1 active torsions:
REMARK  status: ('A' for Active; 'I' for Inactive)
REMARK    1  A    between atoms: C_10  and  C_11
REMARK                            x       y       z     vdW  Elec       q    Type
REMARK                         _______ _______ _______ _____ _____    ______ ____
ROOT
ATOM      1  O   LIG A   1      -8.788   6.220 133.577  0.00  0.00    -0.287 OA
ATOM      2  C   LIG A   1      -9.427   5.733 132.654  0.00  0.00    +0.193 A 
ATOM      3  C   LIG A   1      -9.416   4.293 132.359  0.00  0.00    +0.064 A 
ATOM      4  C   LIG A   1      -8.664   3.409 133.138  0.00  0.00    +0.015 A 
ATOM      5  C   LIG A   1      -8.675   2.046 132.834  0.00  0.00    +0.001 A 
ATOM      6  C   LIG A   1      -9.433   1.575 131.760  0.00  0.00    +0.004 A 
ATOM      7  C   LIG A   1     -10.181   2.464 130.986  0.00  0.00    +0.047 A 
ATOM      8  C   LIG A   1     -10.172   3.826 131.288  0.00  0.00    +0.139 A 
ATOM      9  O   LIG A   1     -10.928   4.650 130.493  0.00  0.00    -0.455 OA
ATOM     10  C   LIG A   1     -10.930   6.010 130.766  0.00  0.00    +0.139 A 
ATOM     11  C   LIG A   1     -10.251   6.577 131.774  0.00  0.00    +0.098 A 
ENDROOT
BRANCH  10  12
ATOM     12  C   LIG A   1     -11.780   6.806 129.859  0.00  0.00    +0.017 A 
ATOM     13  C   LIG A   1     -12.784   6.177 129.107  0.00  0.00    +0.011 A 
ATOM     14  C   LIG A   1     -13.593   6.913 128.236  0.00  0.00    +0.001 A 
ATOM     15  C   LIG A   1     -13.402   8.286 128.100  0.00  0.00    +0.000 A 
ATOM     16  C   LIG A   1     -12.404   8.924 128.831  0.00  0.00    +0.001 A 
ATOM     17  C   LIG A   1     -11.595   8.189 129.703  0.00  0.00    +0.011 A 
ENDBRANCH  10  12
TORSDOF 1
ENDMDL
MODEL 9
REMARK VINA RESULT:      -6.9      1.529      1.980
REMARK  Name = NuBBE_1045
REMARK  1 active torsions:
REMARK  status: ('A' for Active; 'I' for Inactive)
REMARK    1  A    between atoms: C_10  and  C_11
REMARK                            x       y       z     vdW  Elec       q    Type
REMARK                         _______ _______ _______ _____ _____    ______ ____
ROOT
ATOM      1  O   LIG A   1     -13.213   7.501 131.867  0.00  0.00    -0.287 OA
ATOM      2  C   LIG A   1     -12.191   7.099 131.328  0.00  0.00    +0.193 A 
ATOM      3  C   LIG A   1     -11.857   7.421 129.933  0.00  0.00    +0.064 A 
ATOM      4  C   LIG A   1     -12.706   8.214 129.157  0.00  0.00    +0.015 A 
ATOM      5  C   LIG A   1     -12.360   8.504 127.836  0.00  0.00    +0.001 A 
ATOM      6  C   LIG A   1     -11.173   8.003 127.298  0.00  0.00    +0.004 A 
ATOM      7  C   LIG A   1     -10.329   7.210 128.079  0.00  0.00    +0.047 A 
ATOM      8  C   LIG A   1     -10.672   6.920 129.399  0.00  0.00    +0.139 A 
ATOM      9  O   LIG A   1      -9.803   6.138 130.116  0.00  0.00    -0.455 OA
ATOM     10  C   LIG A   1     -10.125   5.827 131.429  0.00  0.00    +0.139 A 
ATOM     11  C   LIG A   1     -11.230   6.257 132.057  0.00  0.00    +0.098 A 
ENDROOT
BRANCH  10  12
ATOM     12  C   LIG A   1      -9.121   4.988 132.114  0.00  0.00    +0.017 A 
ATOM     13  C   LIG A   1      -7.939   4.627 131.450  0.00  0.00    +0.011 A 
ATOM     14  C   LIG A   1      -6.980   3.827 132.079  0.00  0.00    +0.001 A 
ATOM     15  C   LIG A   1      -7.197   3.370 133.377  0.00  0.00    +0.000 A 
ATOM     16  C   LIG A   1      -8.370   3.710 134.046  0.00  0.00    +0.001 A 
ATOM     17  C   LIG A   1      -9.328   4.512 133.418  0.00  0.00    +0.011 A 
ENDBRANCH  10  12
TORSDOF 1
ENDMDL
