MODEL 1
REMARK VINA RESULT:      -7.4      0.000      0.000
REMARK  Name = NuBBE_1560
REMARK  7 active torsions:
REMARK  status: ('A' for Active; 'I' for Inactive)
REMARK    1  A    between atoms: C_3  and  C_14
REMARK    2  A    between atoms: C_8  and  O_9
REMARK    3  A    between atoms: C_11  and  O_13
REMARK    4  A    between atoms: C_15  and  O_16
REMARK    5  A    between atoms: O_16  and  C_17
REMARK    6  A    between atoms: C_19  and  O_22
REMARK    7  A    between atoms: O_22  and  C_23
REMARK                            x       y       z     vdW  Elec       q    Type
REMARK                         _______ _______ _______ _____ _____    ______ ____
ROOT
ATOM      1  O   LIG A   1      -9.471   5.051 129.194  0.00  0.00    -0.286 OA
ATOM      2  C   LIG A   1     -10.169   5.655 129.998  0.00  0.00    +0.204 A 
ATOM      3  C   LIG A   1     -10.242   5.308 131.441  0.00  0.00    +0.068 A 
ATOM      4  C   LIG A   1     -11.131   5.976 132.189  0.00  0.00    +0.208 A 
ATOM      5  O   LIG A   1     -12.000   6.949 131.752  0.00  0.00    -0.462 OA
ATOM      6  C   LIG A   1     -11.881   7.374 130.451  0.00  0.00    +0.145 A 
ATOM      7  C   LIG A   1     -10.995   6.791 129.548  0.00  0.00    +0.106 A 
ATOM      8  C   LIG A   1     -10.897   7.297 128.246  0.00  0.00    +0.135 A 
ATOM      9  C   LIG A   1     -11.677   8.386 127.851  0.00  0.00    +0.091 A 
ATOM     10  C   LIG A   1     -12.572   8.944 128.758  0.00  0.00    +0.124 A 
ATOM     11  C   LIG A   1     -12.684   8.445 130.053  0.00  0.00    +0.092 A 
ENDROOT
BRANCH   3  12
ATOM     12  C   LIG A   1      -9.365   4.284 132.034  0.00  0.00    +0.031 A 
ATOM     13  C   LIG A   1      -8.119   4.609 132.602  0.00  0.00    +0.131 A 
ATOM     14  C   LIG A   1      -7.328   3.596 133.164  0.00  0.00    +0.091 A 
ATOM     15  C   LIG A   1      -7.755   2.262 133.150  0.00  0.00    +0.124 A 
ATOM     16  C   LIG A   1      -8.982   1.943 132.575  0.00  0.00    +0.046 A 
ATOM     17  C   LIG A   1      -9.784   2.946 132.023  0.00  0.00    +0.016 A 
BRANCH  13  18
ATOM     18  O   LIG A   1      -7.783   5.940 132.626  0.00  0.00    -0.494 OA
ATOM     19  C   LIG A   1      -6.692   6.326 131.795  0.00  0.00    +0.277 C 
ENDBRANCH  13  18
BRANCH  15  20
ATOM     20  O   LIG A   1      -6.899   1.368 133.739  0.00  0.00    -0.495 OA
ATOM     21  C   LIG A   1      -6.625   0.176 133.007  0.00  0.00    +0.277 C 
ENDBRANCH  15  20
ENDBRANCH   3  12
BRANCH   8  22
ATOM     22  O   LIG A   1     -10.047   6.780 127.306  0.00  0.00    -0.506 OA
ATOM     23  H   LIG A   1      -9.464   6.125 127.755  0.00  0.00    +0.292 HD
ENDBRANCH   8  22
BRANCH  10  24
ATOM     24  O   LIG A   1     -13.363  10.000 128.413  0.00  0.00    -0.506 OA
ATOM     25  H   LIG A   1     -12.799  10.722 128.085  0.00  0.00    +0.292 HD
ENDBRANCH  10  24
TORSDOF 5
ENDMDL
MODEL 2
REMARK VINA RESULT:      -6.9      8.167      9.652
REMARK  Name = NuBBE_1560
REMARK  7 active torsions:
REMARK  status: ('A' for Active; 'I' for Inactive)
REMARK    1  A    between atoms: C_3  and  C_14
REMARK    2  A    between atoms: C_8  and  O_9
REMARK    3  A    between atoms: C_11  and  O_13
REMARK    4  A    between atoms: C_15  and  O_16
REMARK    5  A    between atoms: O_16  and  C_17
REMARK    6  A    between atoms: C_19  and  O_22
REMARK    7  A    between atoms: O_22  and  C_23
REMARK                            x       y       z     vdW  Elec       q    Type
REMARK                         _______ _______ _______ _____ _____    ______ ____
ROOT
ATOM      1  O   LIG A   1      -9.002   2.880 122.239  0.00  0.00    -0.286 OA
ATOM      2  C   LIG A   1      -7.825   3.214 122.182  0.00  0.00    +0.204 A 
ATOM      3  C   LIG A   1      -6.853   2.971 123.279  0.00  0.00    +0.068 A 
ATOM      4  C   LIG A   1      -5.625   3.489 123.136  0.00  0.00    +0.208 A 
ATOM      5  O   LIG A   1      -5.172   4.240 122.075  0.00  0.00    -0.462 OA
ATOM      6  C   LIG A   1      -6.007   4.387 120.995  0.00  0.00    +0.145 A 
ATOM      7  C   LIG A   1      -7.311   3.897 120.980  0.00  0.00    +0.106 A 
ATOM      8  C   LIG A   1      -8.097   4.048 119.831  0.00  0.00    +0.135 A 
ATOM      9  C   LIG A   1      -7.580   4.681 118.700  0.00  0.00    +0.091 A 
ATOM     10  C   LIG A   1      -6.283   5.184 118.737  0.00  0.00    +0.124 A 
ATOM     11  C   LIG A   1      -5.494   5.046 119.875  0.00  0.00    +0.092 A 
ENDROOT
BRANCH   3  12
ATOM     12  C   LIG A   1      -7.212   2.182 124.469  0.00  0.00    +0.031 A 
ATOM     13  C   LIG A   1      -7.247   0.775 124.447  0.00  0.00    +0.131 A 
ATOM     14  C   LIG A   1      -7.585   0.072 125.612  0.00  0.00    +0.091 A 
ATOM     15  C   LIG A   1      -7.906   0.752 126.794  0.00  0.00    +0.124 A 
ATOM     16  C   LIG A   1      -7.884   2.145 126.807  0.00  0.00    +0.046 A 
ATOM     17  C   LIG A   1      -7.537   2.856 125.655  0.00  0.00    +0.016 A 
BRANCH  13  18
ATOM     18  O   LIG A   1      -6.874   0.169 123.272  0.00  0.00    -0.494 OA
ATOM     19  C   LIG A   1      -6.657  -1.237 123.334  0.00  0.00    +0.277 C 
ENDBRANCH  13  18
BRANCH  15  20
ATOM     20  O   LIG A   1      -8.208  -0.047 127.865  0.00  0.00    -0.495 OA
ATOM     21  C   LIG A   1      -7.322  -1.134 128.114  0.00  0.00    +0.277 C 
ENDBRANCH  15  20
ENDBRANCH   3  12
BRANCH   8  22
ATOM     22  O   LIG A   1      -9.384   3.589 119.740  0.00  0.00    -0.506 OA
ATOM     23  H   LIG A   1      -9.549   3.003 120.515  0.00  0.00    +0.292 HD
ENDBRANCH   8  22
BRANCH  10  24
ATOM     24  O   LIG A   1      -5.740   5.821 117.660  0.00  0.00    -0.506 OA
ATOM     25  H   LIG A   1      -4.906   6.243 117.932  0.00  0.00    +0.292 HD
ENDBRANCH  10  24
TORSDOF 5
ENDMDL
MODEL 3
REMARK VINA RESULT:      -6.8      1.716      2.428
REMARK  Name = NuBBE_1560
REMARK  7 active torsions:
REMARK  status: ('A' for Active; 'I' for Inactive)
REMARK    1  A    between atoms: C_3  and  C_14
REMARK    2  A    between atoms: C_8  and  O_9
REMARK    3  A    between atoms: C_11  and  O_13
REMARK    4  A    between atoms: C_15  and  O_16
REMARK    5  A    between atoms: O_16  and  C_17
REMARK    6  A    between atoms: C_19  and  O_22
REMARK    7  A    between atoms: O_22  and  C_23
REMARK                            x       y       z     vdW  Elec       q    Type
REMARK                         _______ _______ _______ _____ _____    ______ ____
ROOT
ATOM      1  O   LIG A   1      -8.748   5.069 128.310  0.00  0.00    -0.286 OA
ATOM      2  C   LIG A   1      -9.259   5.662 129.251  0.00  0.00    +0.204 A 
ATOM      3  C   LIG A   1      -8.911   5.397 130.671  0.00  0.00    +0.068 A 
ATOM      4  C   LIG A   1      -9.626   6.035 131.608  0.00  0.00    +0.208 A 
ATOM      5  O   LIG A   1     -10.669   6.907 131.388  0.00  0.00    -0.462 OA
ATOM      6  C   LIG A   1     -10.942   7.261 130.090  0.00  0.00    +0.145 A 
ATOM      7  C   LIG A   1     -10.279   6.698 129.001  0.00  0.00    +0.106 A 
ATOM      8  C   LIG A   1     -10.580   7.131 127.705  0.00  0.00    +0.135 A 
ATOM      9  C   LIG A   1     -11.536   8.127 127.496  0.00  0.00    +0.091 A 
ATOM     10  C   LIG A   1     -12.204   8.665 128.592  0.00  0.00    +0.124 A 
ATOM     11  C   LIG A   1     -11.919   8.238 129.886  0.00  0.00    +0.092 A 
ENDROOT
BRANCH   3  12
ATOM     12  C   LIG A   1      -7.815   4.485 131.040  0.00  0.00    +0.031 A 
ATOM     13  C   LIG A   1      -8.020   3.101 131.199  0.00  0.00    +0.131 A 
ATOM     14  C   LIG A   1      -6.940   2.275 131.540  0.00  0.00    +0.091 A 
ATOM     15  C   LIG A   1      -5.662   2.812 131.742  0.00  0.00    +0.124 A 
ATOM     16  C   LIG A   1      -5.466   4.183 131.597  0.00  0.00    +0.046 A 
ATOM     17  C   LIG A   1      -6.533   5.014 131.245  0.00  0.00    +0.016 A 
BRANCH  13  18
ATOM     18  O   LIG A   1      -9.285   2.633 130.940  0.00  0.00    -0.494 OA
ATOM     19  C   LIG A   1      -9.910   1.900 131.989  0.00  0.00    +0.277 C 
ENDBRANCH  13  18
BRANCH  15  20
ATOM     20  O   LIG A   1      -4.688   1.901 132.060  0.00  0.00    -0.495 OA
ATOM     21  C   LIG A   1      -3.468   2.431 132.571  0.00  0.00    +0.277 C 
ENDBRANCH  15  20
ENDBRANCH   3  12
BRANCH   8  22
ATOM     22  O   LIG A   1      -9.967   6.629 126.588  0.00  0.00    -0.506 OA
ATOM     23  H   LIG A   1      -9.480   5.815 126.853  0.00  0.00    +0.292 HD
ENDBRANCH   8  22
BRANCH  10  24
ATOM     24  O   LIG A   1     -13.155   9.631 128.437  0.00  0.00    -0.506 OA
ATOM     25  H   LIG A   1     -14.033   9.214 128.459  0.00  0.00    +0.292 HD
ENDBRANCH  10  24
TORSDOF 5
ENDMDL
MODEL 4
REMARK VINA RESULT:      -6.7      1.793      3.279
REMARK  Name = NuBBE_1560
REMARK  7 active torsions:
REMARK  status: ('A' for Active; 'I' for Inactive)
REMARK    1  A    between atoms: C_3  and  C_14
REMARK    2  A    between atoms: C_8  and  O_9
REMARK    3  A    between atoms: C_11  and  O_13
REMARK    4  A    between atoms: C_15  and  O_16
REMARK    5  A    between atoms: O_16  and  C_17
REMARK    6  A    between atoms: C_19  and  O_22
REMARK    7  A    between atoms: O_22  and  C_23
REMARK                            x       y       z     vdW  Elec       q    Type
REMARK                         _______ _______ _______ _____ _____    ______ ____
ROOT
ATOM      1  O   LIG A   1     -10.749   6.503 132.735  0.00  0.00    -0.286 OA
ATOM      2  C   LIG A   1     -10.285   6.308 131.618  0.00  0.00    +0.204 A 
ATOM      3  C   LIG A   1      -8.942   5.716 131.384  0.00  0.00    +0.068 A 
ATOM      4  C   LIG A   1      -8.509   5.663 130.116  0.00  0.00    +0.208 A 
ATOM      5  O   LIG A   1      -9.179   6.116 129.003  0.00  0.00    -0.462 OA
ATOM      6  C   LIG A   1     -10.466   6.564 129.171  0.00  0.00    +0.145 A 
ATOM      7  C   LIG A   1     -11.069   6.669 130.422  0.00  0.00    +0.106 A 
ATOM      8  C   LIG A   1     -12.398   7.097 130.519  0.00  0.00    +0.135 A 
ATOM      9  C   LIG A   1     -13.124   7.414 129.371  0.00  0.00    +0.091 A 
ATOM     10  C   LIG A   1     -12.502   7.325 128.129  0.00  0.00    +0.124 A 
ATOM     11  C   LIG A   1     -11.179   6.907 128.019  0.00  0.00    +0.092 A 
ENDROOT
BRANCH   3  12
ATOM     12  C   LIG A   1      -8.124   5.194 132.491  0.00  0.00    +0.031 A 
ATOM     13  C   LIG A   1      -8.410   3.963 133.112  0.00  0.00    +0.131 A 
ATOM     14  C   LIG A   1      -7.591   3.507 134.155  0.00  0.00    +0.091 A 
ATOM     15  C   LIG A   1      -6.503   4.268 134.599  0.00  0.00    +0.124 A 
ATOM     16  C   LIG A   1      -6.232   5.492 133.990  0.00  0.00    +0.046 A 
ATOM     17  C   LIG A   1      -7.033   5.951 132.942  0.00  0.00    +0.016 A 
BRANCH  13  18
ATOM     18  O   LIG A   1      -9.461   3.245 132.597  0.00  0.00    -0.494 OA
ATOM     19  C   LIG A   1      -9.195   1.879 132.291  0.00  0.00    +0.277 C 
ENDBRANCH  13  18
BRANCH  15  20
ATOM     20  O   LIG A   1      -5.774   3.709 135.616  0.00  0.00    -0.495 OA
ATOM     21  C   LIG A   1      -5.516   4.544 136.742  0.00  0.00    +0.277 C 
ENDBRANCH  15  20
ENDBRANCH   3  12
BRANCH   8  22
ATOM     22  O   LIG A   1     -13.058   7.220 131.713  0.00  0.00    -0.506 OA
ATOM     23  H   LIG A   1     -13.077   6.332 132.139  0.00  0.00    +0.292 HD
ENDBRANCH   8  22
BRANCH  10  24
ATOM     24  O   LIG A   1     -13.167   7.636 126.980  0.00  0.00    -0.506 OA
ATOM     25  H   LIG A   1     -13.920   7.028 126.878  0.00  0.00    +0.292 HD
ENDBRANCH  10  24
TORSDOF 5
ENDMDL
MODEL 5
REMARK VINA RESULT:      -6.7      6.602      8.241
REMARK  Name = NuBBE_1560
REMARK  7 active torsions:
REMARK  status: ('A' for Active; 'I' for Inactive)
REMARK    1  A    between atoms: C_3  and  C_14
REMARK    2  A    between atoms: C_8  and  O_9
REMARK    3  A    between atoms: C_11  and  O_13
REMARK    4  A    between atoms: C_15  and  O_16
REMARK    5  A    between atoms: O_16  and  C_17
REMARK    6  A    between atoms: C_19  and  O_22
REMARK    7  A    between atoms: O_22  and  C_23
REMARK                            x       y       z     vdW  Elec       q    Type
REMARK                         _______ _______ _______ _____ _____    ______ ____
ROOT
ATOM      1  O   LIG A   1      -6.270   4.169 124.216  0.00  0.00    -0.286 OA
ATOM      2  C   LIG A   1      -6.432   3.068 124.728  0.00  0.00    +0.204 A 
ATOM      3  C   LIG A   1      -5.650   2.588 125.896  0.00  0.00    +0.068 A 
ATOM      4  C   LIG A   1      -5.847   1.320 126.286  0.00  0.00    +0.208 A 
ATOM      5  O   LIG A   1      -6.696   0.407 125.702  0.00  0.00    -0.462 OA
ATOM      6  C   LIG A   1      -7.515   0.852 124.694  0.00  0.00    +0.145 A 
ATOM      7  C   LIG A   1      -7.444   2.145 124.182  0.00  0.00    +0.106 A 
ATOM      8  C   LIG A   1      -8.335   2.545 123.179  0.00  0.00    +0.135 A 
ATOM      9  C   LIG A   1      -9.297   1.658 122.693  0.00  0.00    +0.091 A 
ATOM     10  C   LIG A   1      -9.342   0.362 123.199  0.00  0.00    +0.124 A 
ATOM     11  C   LIG A   1      -8.457  -0.050 124.192  0.00  0.00    +0.092 A 
ENDROOT
BRANCH   3  12
ATOM     12  C   LIG A   1      -4.709   3.466 126.610  0.00  0.00    +0.031 A 
ATOM     13  C   LIG A   1      -5.151   4.495 127.464  0.00  0.00    +0.131 A 
ATOM     14  C   LIG A   1      -4.211   5.295 128.128  0.00  0.00    +0.091 A 
ATOM     15  C   LIG A   1      -2.838   5.097 127.940  0.00  0.00    +0.124 A 
ATOM     16  C   LIG A   1      -2.405   4.087 127.084  0.00  0.00    +0.046 A 
ATOM     17  C   LIG A   1      -3.332   3.275 126.426  0.00  0.00    +0.016 A 
BRANCH  13  18
ATOM     18  O   LIG A   1      -6.509   4.604 127.642  0.00  0.00    -0.494 OA
ATOM     19  C   LIG A   1      -7.006   4.212 128.918  0.00  0.00    +0.277 C 
ENDBRANCH  13  18
BRANCH  15  20
ATOM     20  O   LIG A   1      -2.022   5.936 128.653  0.00  0.00    -0.495 OA
ATOM     21  C   LIG A   1      -2.443   6.255 129.977  0.00  0.00    +0.277 C 
ENDBRANCH  15  20
ENDBRANCH   3  12
BRANCH   8  22
ATOM     22  O   LIG A   1      -8.329   3.800 122.631  0.00  0.00    -0.506 OA
ATOM     23  H   LIG A   1      -9.203   4.214 122.819  0.00  0.00    +0.292 HD
ENDBRANCH   8  22
BRANCH  10  24
ATOM     24  O   LIG A   1     -10.255  -0.544 122.746  0.00  0.00    -0.506 OA
ATOM     25  H   LIG A   1     -10.905  -0.083 122.187  0.00  0.00    +0.292 HD
ENDBRANCH  10  24
TORSDOF 5
ENDMDL
MODEL 6
REMARK VINA RESULT:      -6.5      7.167     11.150
REMARK  Name = NuBBE_1560
REMARK  7 active torsions:
REMARK  status: ('A' for Active; 'I' for Inactive)
REMARK    1  A    between atoms: C_3  and  C_14
REMARK    2  A    between atoms: C_8  and  O_9
REMARK    3  A    between atoms: C_11  and  O_13
REMARK    4  A    between atoms: C_15  and  O_16
REMARK    5  A    between atoms: O_16  and  C_17
REMARK    6  A    between atoms: C_19  and  O_22
REMARK    7  A    between atoms: O_22  and  C_23
REMARK                            x       y       z     vdW  Elec       q    Type
REMARK                         _______ _______ _______ _____ _____    ______ ____
ROOT
ATOM      1  O   LIG A   1      -5.271  -2.016 127.505  0.00  0.00    -0.286 OA
ATOM      2  C   LIG A   1      -6.069  -2.506 128.294  0.00  0.00    +0.204 A 
ATOM      3  C   LIG A   1      -7.520  -2.645 128.010  0.00  0.00    +0.068 A 
ATOM      4  C   LIG A   1      -8.300  -3.093 129.003  0.00  0.00    +0.208 A 
ATOM      5  O   LIG A   1      -7.893  -3.428 130.275  0.00  0.00    -0.462 OA
ATOM      6  C   LIG A   1      -6.545  -3.420 130.536  0.00  0.00    +0.145 A 
ATOM      7  C   LIG A   1      -5.601  -2.993 129.605  0.00  0.00    +0.106 A 
ATOM      8  C   LIG A   1      -4.238  -3.047 129.923  0.00  0.00    +0.135 A 
ATOM      9  C   LIG A   1      -3.821  -3.530 131.164  0.00  0.00    +0.091 A 
ATOM     10  C   LIG A   1      -4.777  -3.933 132.092  0.00  0.00    +0.124 A 
ATOM     11  C   LIG A   1      -6.135  -3.879 131.791  0.00  0.00    +0.092 A 
ENDROOT
BRANCH   3  12
ATOM     12  C   LIG A   1      -8.083  -2.319 126.689  0.00  0.00    +0.031 A 
ATOM     13  C   LIG A   1      -8.448  -1.006 126.338  0.00  0.00    +0.131 A 
ATOM     14  C   LIG A   1      -8.968  -0.749 125.061  0.00  0.00    +0.091 A 
ATOM     15  C   LIG A   1      -9.146  -1.786 124.136  0.00  0.00    +0.124 A 
ATOM     16  C   LIG A   1      -8.796  -3.086 124.493  0.00  0.00    +0.046 A 
ATOM     17  C   LIG A   1      -8.265  -3.352 125.757  0.00  0.00    +0.016 A 
BRANCH  13  18
ATOM     18  O   LIG A   1      -8.202  -0.029 127.271  0.00  0.00    -0.494 OA
ATOM     19  C   LIG A   1      -8.603   1.291 126.917  0.00  0.00    +0.277 C 
ENDBRANCH  13  18
BRANCH  15  20
ATOM     20  O   LIG A   1      -9.652  -1.405 122.921  0.00  0.00    -0.495 OA
ATOM     21  C   LIG A   1      -9.796  -0.004 122.705  0.00  0.00    +0.277 C 
ENDBRANCH  15  20
ENDBRANCH   3  12
BRANCH   8  22
ATOM     22  O   LIG A   1      -3.253  -2.650 129.059  0.00  0.00    -0.506 OA
ATOM     23  H   LIG A   1      -2.831  -1.843 129.436  0.00  0.00    +0.292 HD
ENDBRANCH   8  22
BRANCH  10  24
ATOM     24  O   LIG A   1      -4.417  -4.401 133.322  0.00  0.00    -0.506 OA
ATOM     25  H   LIG A   1      -3.994  -3.680 133.820  0.00  0.00    +0.292 HD
ENDBRANCH  10  24
TORSDOF 5
ENDMDL
MODEL 7
REMARK VINA RESULT:      -6.5      1.817      2.753
REMARK  Name = NuBBE_1560
REMARK  7 active torsions:
REMARK  status: ('A' for Active; 'I' for Inactive)
REMARK    1  A    between atoms: C_3  and  C_14
REMARK    2  A    between atoms: C_8  and  O_9
REMARK    3  A    between atoms: C_11  and  O_13
REMARK    4  A    between atoms: C_15  and  O_16
REMARK    5  A    between atoms: O_16  and  C_17
REMARK    6  A    between atoms: C_19  and  O_22
REMARK    7  A    between atoms: O_22  and  C_23
REMARK                            x       y       z     vdW  Elec       q    Type
REMARK                         _______ _______ _______ _____ _____    ______ ____
ROOT
ATOM      1  O   LIG A   1     -10.121   4.582 131.908  0.00  0.00    -0.286 OA
ATOM      2  C   LIG A   1      -9.882   4.940 130.761  0.00  0.00    +0.204 A 
ATOM      3  C   LIG A   1      -8.878   4.276 129.890  0.00  0.00    +0.068 A 
ATOM      4  C   LIG A   1      -8.633   4.838 128.698  0.00  0.00    +0.208 A 
ATOM      5  O   LIG A   1      -9.210   5.984 128.200  0.00  0.00    -0.462 OA
ATOM      6  C   LIG A   1     -10.222   6.558 128.929  0.00  0.00    +0.145 A 
ATOM      7  C   LIG A   1     -10.607   6.087 130.183  0.00  0.00    +0.106 A 
ATOM      8  C   LIG A   1     -11.673   6.695 130.856  0.00  0.00    +0.135 A 
ATOM      9  C   LIG A   1     -12.355   7.767 130.278  0.00  0.00    +0.091 A 
ATOM     10  C   LIG A   1     -11.946   8.240 129.035  0.00  0.00    +0.124 A 
ATOM     11  C   LIG A   1     -10.883   7.648 128.358  0.00  0.00    +0.092 A 
ENDROOT
BRANCH   3  12
ATOM     12  C   LIG A   1      -8.190   3.043 130.306  0.00  0.00    +0.031 A 
ATOM     13  C   LIG A   1      -6.996   3.072 131.052  0.00  0.00    +0.131 A 
ATOM     14  C   LIG A   1      -6.387   1.868 131.433  0.00  0.00    +0.091 A 
ATOM     15  C   LIG A   1      -6.942   0.635 131.066  0.00  0.00    +0.124 A 
ATOM     16  C   LIG A   1      -8.116   0.611 130.316  0.00  0.00    +0.046 A 
ATOM     17  C   LIG A   1      -8.738   1.805 129.941  0.00  0.00    +0.016 A 
BRANCH  13  18
ATOM     18  O   LIG A   1      -6.532   4.311 131.421  0.00  0.00    -0.494 OA
ATOM     19  C   LIG A   1      -6.532   4.590 132.818  0.00  0.00    +0.277 C 
ENDBRANCH  13  18
BRANCH  15  20
ATOM     20  O   LIG A   1      -6.260  -0.469 131.507  0.00  0.00    -0.495 OA
ATOM     21  C   LIG A   1      -5.369  -0.267 132.600  0.00  0.00    +0.277 C 
ENDBRANCH  15  20
ENDBRANCH   3  12
BRANCH   8  22
ATOM     22  O   LIG A   1     -12.110   6.285 132.087  0.00  0.00    -0.506 OA
ATOM     23  H   LIG A   1     -12.340   7.089 132.608  0.00  0.00    +0.292 HD
ENDBRANCH   8  22
BRANCH  10  24
ATOM     24  O   LIG A   1     -12.573   9.292 128.436  0.00  0.00    -0.506 OA
ATOM     25  H   LIG A   1     -13.277   8.951 127.857  0.00  0.00    +0.292 HD
ENDBRANCH  10  24
TORSDOF 5
ENDMDL
MODEL 8
REMARK VINA RESULT:      -6.5      7.711      9.415
REMARK  Name = NuBBE_1560
REMARK  7 active torsions:
REMARK  status: ('A' for Active; 'I' for Inactive)
REMARK    1  A    between atoms: C_3  and  C_14
REMARK    2  A    between atoms: C_8  and  O_9
REMARK    3  A    between atoms: C_11  and  O_13
REMARK    4  A    between atoms: C_15  and  O_16
REMARK    5  A    between atoms: O_16  and  C_17
REMARK    6  A    between atoms: C_19  and  O_22
REMARK    7  A    between atoms: O_22  and  C_23
REMARK                            x       y       z     vdW  Elec       q    Type
REMARK                         _______ _______ _______ _____ _____    ______ ____
ROOT
ATOM      1  O   LIG A   1      -5.495  -2.077 128.002  0.00  0.00    -0.286 OA
ATOM      2  C   LIG A   1      -6.632  -2.510 127.868  0.00  0.00    +0.204 A 
ATOM      3  C   LIG A   1      -7.333  -3.302 128.911  0.00  0.00    +0.068 A 
ATOM      4  C   LIG A   1      -8.530  -3.813 128.592  0.00  0.00    +0.208 A 
ATOM      5  O   LIG A   1      -9.177  -3.688 127.384  0.00  0.00    -0.462 OA
ATOM      6  C   LIG A   1      -8.612  -2.869 126.439  0.00  0.00    +0.145 A 
ATOM      7  C   LIG A   1      -7.375  -2.252 126.620  0.00  0.00    +0.106 A 
ATOM      8  C   LIG A   1      -6.873  -1.399 125.631  0.00  0.00    +0.135 A 
ATOM      9  C   LIG A   1      -7.605  -1.157 124.467  0.00  0.00    +0.091 A 
ATOM     10  C   LIG A   1      -8.828  -1.796 124.291  0.00  0.00    +0.124 A 
ATOM     11  C   LIG A   1      -9.336  -2.653 125.264  0.00  0.00    +0.092 A 
ENDROOT
BRANCH   3  12
ATOM     12  C   LIG A   1      -6.748  -3.510 130.246  0.00  0.00    +0.031 A 
ATOM     13  C   LIG A   1      -6.992  -2.622 131.312  0.00  0.00    +0.131 A 
ATOM     14  C   LIG A   1      -6.419  -2.873 132.567  0.00  0.00    +0.091 A 
ATOM     15  C   LIG A   1      -5.593  -3.985 132.770  0.00  0.00    +0.124 A 
ATOM     16  C   LIG A   1      -5.343  -4.853 131.709  0.00  0.00    +0.046 A 
ATOM     17  C   LIG A   1      -5.918  -4.620 130.457  0.00  0.00    +0.016 A 
BRANCH  13  18
ATOM     18  O   LIG A   1      -7.850  -1.580 131.060  0.00  0.00    -0.494 OA
ATOM     19  C   LIG A   1      -8.153  -0.736 132.167  0.00  0.00    +0.277 C 
ENDBRANCH  13  18
BRANCH  15  20
ATOM     20  O   LIG A   1      -5.103  -4.126 134.042  0.00  0.00    -0.495 OA
ATOM     21  C   LIG A   1      -5.292  -5.399 134.656  0.00  0.00    +0.277 C 
ENDBRANCH  15  20
ENDBRANCH   3  12
BRANCH   8  22
ATOM     22  O   LIG A   1      -5.670  -0.755 125.741  0.00  0.00    -0.506 OA
ATOM     23  H   LIG A   1      -5.002  -1.277 125.238  0.00  0.00    +0.292 HD
ENDBRANCH   8  22
BRANCH  10  24
ATOM     24  O   LIG A   1      -9.573  -1.600 123.165  0.00  0.00    -0.506 OA
ATOM     25  H   LIG A   1      -8.977  -1.561 122.397  0.00  0.00    +0.292 HD
ENDBRANCH  10  24
TORSDOF 5
ENDMDL
MODEL 9
REMARK VINA RESULT:      -6.4      7.232      8.157
REMARK  Name = NuBBE_1560
REMARK  7 active torsions:
REMARK  status: ('A' for Active; 'I' for Inactive)
REMARK    1  A    between atoms: C_3  and  C_14
REMARK    2  A    between atoms: C_8  and  O_9
REMARK    3  A    between atoms: C_11  and  O_13
REMARK    4  A    between atoms: C_15  and  O_16
REMARK    5  A    between atoms: O_16  and  C_17
REMARK    6  A    between atoms: C_19  and  O_22
REMARK    7  A    between atoms: O_22  and  C_23
REMARK                            x       y       z     vdW  Elec       q    Type
REMARK                         _______ _______ _______ _____ _____    ______ ____
ROOT
ATOM      1  O   LIG A   1      -9.820   0.066 125.803  0.00  0.00    -0.286 OA
ATOM      2  C   LIG A   1      -8.713   0.546 125.591  0.00  0.00    +0.204 A 
ATOM      3  C   LIG A   1      -7.537   0.306 126.467  0.00  0.00    +0.068 A 
ATOM      4  C   LIG A   1      -6.415   0.982 126.185  0.00  0.00    +0.208 A 
ATOM      5  O   LIG A   1      -6.242   1.894 125.168  0.00  0.00    -0.462 OA
ATOM      6  C   LIG A   1      -7.272   2.054 124.273  0.00  0.00    +0.145 A 
ATOM      7  C   LIG A   1      -8.500   1.413 124.417  0.00  0.00    +0.106 A 
ATOM      8  C   LIG A   1      -9.494   1.590 123.448  0.00  0.00    +0.135 A 
ATOM      9  C   LIG A   1      -9.260   2.401 122.336  0.00  0.00    +0.091 A 
ATOM     10  C   LIG A   1      -8.036   3.052 122.217  0.00  0.00    +0.124 A 
ATOM     11  C   LIG A   1      -7.041   2.889 123.177  0.00  0.00    +0.092 A 
ENDROOT
BRANCH   3  12
ATOM     12  C   LIG A   1      -7.591  -0.646 127.589  0.00  0.00    +0.031 A 
ATOM     13  C   LIG A   1      -7.525  -2.038 127.389  0.00  0.00    +0.131 A 
ATOM     14  C   LIG A   1      -7.569  -2.900 128.494  0.00  0.00    +0.091 A 
ATOM     15  C   LIG A   1      -7.695  -2.394 129.794  0.00  0.00    +0.124 A 
ATOM     16  C   LIG A   1      -7.773  -1.016 129.986  0.00  0.00    +0.046 A 
ATOM     17  C   LIG A   1      -7.718  -0.147 128.894  0.00  0.00    +0.016 A 
BRANCH  13  18
ATOM     18  O   LIG A   1      -7.354  -2.465 126.095  0.00  0.00    -0.494 OA
ATOM     19  C   LIG A   1      -8.353  -3.344 125.588  0.00  0.00    +0.277 C 
ENDBRANCH  13  18
BRANCH  15  20
ATOM     20  O   LIG A   1      -7.716  -3.336 130.789  0.00  0.00    -0.495 OA
ATOM     21  C   LIG A   1      -7.324  -2.895 132.087  0.00  0.00    +0.277 C 
ENDBRANCH  15  20
ENDBRANCH   3  12
BRANCH   8  22
ATOM     22  O   LIG A   1     -10.723   0.990 123.519  0.00  0.00    -0.506 OA
ATOM     23  H   LIG A   1     -11.091   0.951 122.606  0.00  0.00    +0.292 HD
ENDBRANCH   8  22
BRANCH  10  24
ATOM     24  O   LIG A   1      -7.766   3.864 121.154  0.00  0.00    -0.506 OA
ATOM     25  H   LIG A   1      -6.965   3.541 120.707  0.00  0.00    +0.292 HD
ENDBRANCH  10  24
TORSDOF 5
ENDMDL
