MODEL 1
REMARK VINA RESULT:      -5.6      0.000      0.000
REMARK  Name = NuBBE_1805
REMARK  13 active torsions:
REMARK  status: ('A' for Active; 'I' for Inactive)
REMARK    1  A    between atoms: C_1  and  C_2
REMARK    2  A    between atoms: C_2  and  C_3
REMARK    3  A    between atoms: C_3  and  C_4
REMARK    4  A    between atoms: C_4  and  C_5
REMARK    5  A    between atoms: C_5  and  C_6
REMARK    6  A    between atoms: C_6  and  C_7
REMARK    7  A    between atoms: C_7  and  C_8
REMARK    8  A    between atoms: C_8  and  C_9
REMARK    9  A    between atoms: C_9  and  C_10
REMARK   10  A    between atoms: C_10  and  C_11
REMARK   11  A    between atoms: C_13  and  C_14
REMARK   12  A    between atoms: C_14  and  C_15
REMARK   13  A    between atoms: C_15  and  O_16
REMARK                            x       y       z     vdW  Elec       q    Type
REMARK                         _______ _______ _______ _____ _____    ______ ____
ROOT
ATOM      1  C   LIG A   1      -8.039  -2.018 127.382  0.00  0.00    +0.045 C 
ENDROOT
BRANCH   1   2
ATOM      2  C   LIG A   1      -7.282  -2.284 128.685  0.00  0.00    +0.177 C 
ATOM      3  C   LIG A   1      -7.686  -3.546 129.417  0.00  0.00    +0.059 C 
ATOM      4  C   LIG A   1      -6.417  -3.953 130.152  0.00  0.00    +0.103 C 
ATOM      5  C   LIG A   1      -5.344  -3.327 129.299  0.00  0.00    +0.311 C 
ATOM      6  O   LIG A   1      -5.886  -2.467 128.398  0.00  0.00    -0.461 OA
ATOM      7  O   LIG A   1      -4.135  -3.542 129.404  0.00  0.00    -0.251 OA
BRANCH   4   8
ATOM      8  C   LIG A   1      -6.391  -3.449 131.593  0.00  0.00    +0.042 C 
BRANCH   8   9
ATOM      9  C   LIG A   1      -5.713  -4.425 132.549  0.00  0.00    +0.156 C 
BRANCH   9  10
ATOM     10  O   LIG A   1      -4.303  -4.336 132.388  0.00  0.00    -0.395 OA
ATOM     11  H   LIG A   1      -3.892  -4.695 133.192  0.00  0.00    +0.209 HD
ENDBRANCH   9  10
ENDBRANCH   8   9
ENDBRANCH   4   8
ENDBRANCH   1   2
BRANCH   1  12
ATOM     12  C   LIG A   1      -8.494  -3.286 126.637  0.00  0.00    +0.003 C 
BRANCH  12  13
ATOM     13  C   LIG A   1      -9.461  -2.919 125.498  0.00  0.00    +0.000 C 
BRANCH  13  14
ATOM     14  C   LIG A   1      -9.046  -3.404 124.098  0.00  0.00    -0.000 C 
BRANCH  14  15
ATOM     15  C   LIG A   1      -8.851  -2.200 123.154  0.00  0.00    -0.000 C 
BRANCH  15  16
ATOM     16  C   LIG A   1      -7.396  -1.877 122.791  0.00  0.00    -0.000 C 
BRANCH  16  17
ATOM     17  C   LIG A   1      -6.504  -1.404 123.937  0.00  0.00    -0.000 C 
BRANCH  17  18
ATOM     18  C   LIG A   1      -5.503  -2.443 124.449  0.00  0.00    -0.000 C 
BRANCH  18  20
ATOM     19  C   LIG A   1      -4.228  -4.532 123.801  0.00  0.00    +0.004 C 
ATOM     20  C   LIG A   1      -4.892  -3.256 123.302  0.00  0.00    -0.003 C 
ENDBRANCH  18  20
ENDBRANCH  17  18
ENDBRANCH  16  17
ENDBRANCH  15  16
ENDBRANCH  14  15
ENDBRANCH  13  14
ENDBRANCH  12  13
ENDBRANCH   1  12
TORSDOF 12
ENDMDL
MODEL 2
REMARK VINA RESULT:      -5.6      3.887      7.077
REMARK  Name = NuBBE_1805
REMARK  13 active torsions:
REMARK  status: ('A' for Active; 'I' for Inactive)
REMARK    1  A    between atoms: C_1  and  C_2
REMARK    2  A    between atoms: C_2  and  C_3
REMARK    3  A    between atoms: C_3  and  C_4
REMARK    4  A    between atoms: C_4  and  C_5
REMARK    5  A    between atoms: C_5  and  C_6
REMARK    6  A    between atoms: C_6  and  C_7
REMARK    7  A    between atoms: C_7  and  C_8
REMARK    8  A    between atoms: C_8  and  C_9
REMARK    9  A    between atoms: C_9  and  C_10
REMARK   10  A    between atoms: C_10  and  C_11
REMARK   11  A    between atoms: C_13  and  C_14
REMARK   12  A    between atoms: C_14  and  C_15
REMARK   13  A    between atoms: C_15  and  O_16
REMARK                            x       y       z     vdW  Elec       q    Type
REMARK                         _______ _______ _______ _____ _____    ______ ____
ROOT
ATOM      1  C   LIG A   1      -7.695  -2.653 124.456  0.00  0.00    +0.045 C 
ENDROOT
BRANCH   1   2
ATOM      2  C   LIG A   1      -8.392  -1.291 124.460  0.00  0.00    +0.177 C 
ATOM      3  C   LIG A   1      -7.542  -0.132 123.980  0.00  0.00    +0.059 C 
ATOM      4  C   LIG A   1      -8.559   0.836 123.394  0.00  0.00    +0.103 C 
ATOM      5  C   LIG A   1      -9.692  -0.084 123.019  0.00  0.00    +0.311 C 
ATOM      6  O   LIG A   1      -9.504  -1.320 123.550  0.00  0.00    -0.461 OA
ATOM      7  O   LIG A   1     -10.671   0.231 122.340  0.00  0.00    -0.251 OA
BRANCH   4   8
ATOM      8  C   LIG A   1      -8.981   1.912 124.392  0.00  0.00    +0.042 C 
BRANCH   8   9
ATOM      9  C   LIG A   1      -8.203   3.213 124.224  0.00  0.00    +0.156 C 
BRANCH   9  10
ATOM     10  O   LIG A   1      -8.349   3.677 122.887  0.00  0.00    -0.395 OA
ATOM     11  H   LIG A   1      -7.889   4.531 122.822  0.00  0.00    +0.209 HD
ENDBRANCH   9  10
ENDBRANCH   8   9
ENDBRANCH   4   8
ENDBRANCH   1   2
BRANCH   1  12
ATOM     12  C   LIG A   1      -8.380  -3.724 125.325  0.00  0.00    +0.003 C 
BRANCH  12  13
ATOM     13  C   LIG A   1      -8.923  -3.095 126.620  0.00  0.00    +0.000 C 
BRANCH  13  14
ATOM     14  C   LIG A   1      -8.900  -4.009 127.857  0.00  0.00    -0.000 C 
BRANCH  14  15
ATOM     15  C   LIG A   1      -8.401  -3.225 129.088  0.00  0.00    -0.000 C 
BRANCH  15  16
ATOM     16  C   LIG A   1      -6.946  -3.494 129.494  0.00  0.00    -0.000 C 
BRANCH  16  17
ATOM     17  C   LIG A   1      -5.936  -2.402 129.148  0.00  0.00    -0.000 C 
BRANCH  17  18
ATOM     18  C   LIG A   1      -5.525  -2.344 127.674  0.00  0.00    -0.000 C 
BRANCH  18  20
ATOM     19  C   LIG A   1      -6.820  -0.169 127.667  0.00  0.00    +0.004 C 
ATOM     20  C   LIG A   1      -5.618  -0.921 127.113  0.00  0.00    -0.003 C 
ENDBRANCH  18  20
ENDBRANCH  17  18
ENDBRANCH  16  17
ENDBRANCH  15  16
ENDBRANCH  14  15
ENDBRANCH  13  14
ENDBRANCH  12  13
ENDBRANCH   1  12
TORSDOF 12
ENDMDL
MODEL 3
REMARK VINA RESULT:      -5.6      4.692      6.869
REMARK  Name = NuBBE_1805
REMARK  13 active torsions:
REMARK  status: ('A' for Active; 'I' for Inactive)
REMARK    1  A    between atoms: C_1  and  C_2
REMARK    2  A    between atoms: C_2  and  C_3
REMARK    3  A    between atoms: C_3  and  C_4
REMARK    4  A    between atoms: C_4  and  C_5
REMARK    5  A    between atoms: C_5  and  C_6
REMARK    6  A    between atoms: C_6  and  C_7
REMARK    7  A    between atoms: C_7  and  C_8
REMARK    8  A    between atoms: C_8  and  C_9
REMARK    9  A    between atoms: C_9  and  C_10
REMARK   10  A    between atoms: C_10  and  C_11
REMARK   11  A    between atoms: C_13  and  C_14
REMARK   12  A    between atoms: C_14  and  C_15
REMARK   13  A    between atoms: C_15  and  O_16
REMARK                            x       y       z     vdW  Elec       q    Type
REMARK                         _______ _______ _______ _____ _____    ______ ____
ROOT
ATOM      1  C   LIG A   1      -9.242  -0.404 124.198  0.00  0.00    +0.045 C 
ENDROOT
BRANCH   1   2
ATOM      2  C   LIG A   1      -8.826   1.069 124.158  0.00  0.00    +0.177 C 
ATOM      3  C   LIG A   1      -7.335   1.313 124.048  0.00  0.00    +0.059 C 
ATOM      4  C   LIG A   1      -7.245   2.644 123.317  0.00  0.00    +0.103 C 
ATOM      5  C   LIG A   1      -8.546   2.675 122.557  0.00  0.00    +0.311 C 
ATOM      6  O   LIG A   1      -9.378   1.690 122.985  0.00  0.00    -0.461 OA
ATOM      7  O   LIG A   1      -8.838   3.487 121.677  0.00  0.00    -0.251 OA
BRANCH   4   8
ATOM      8  C   LIG A   1      -7.094   3.825 124.273  0.00  0.00    +0.042 C 
BRANCH   8   9
ATOM      9  C   LIG A   1      -5.736   4.510 124.156  0.00  0.00    +0.156 C 
BRANCH   9  10
ATOM     10  O   LIG A   1      -4.790   3.816 124.960  0.00  0.00    -0.395 OA
ATOM     11  H   LIG A   1      -4.641   2.946 124.552  0.00  0.00    +0.209 HD
ENDBRANCH   9  10
ENDBRANCH   8   9
ENDBRANCH   4   8
ENDBRANCH   1   2
BRANCH   1  12
ATOM     12  C   LIG A   1      -9.005  -1.171 122.884  0.00  0.00    +0.003 C 
BRANCH  12  13
ATOM     13  C   LIG A   1      -9.261  -2.674 123.088  0.00  0.00    +0.000 C 
BRANCH  13  14
ATOM     14  C   LIG A   1      -9.175  -3.166 124.543  0.00  0.00    -0.000 C 
BRANCH  14  15
ATOM     15  C   LIG A   1      -7.773  -3.743 124.828  0.00  0.00    -0.000 C 
BRANCH  15  16
ATOM     16  C   LIG A   1      -6.825  -2.815 125.599  0.00  0.00    -0.000 C 
BRANCH  16  17
ATOM     17  C   LIG A   1      -5.822  -2.027 124.759  0.00  0.00    -0.000 C 
BRANCH  17  18
ATOM     18  C   LIG A   1      -5.530  -2.618 123.377  0.00  0.00    -0.000 C 
BRANCH  18  20
ATOM     19  C   LIG A   1      -4.458  -4.907 123.530  0.00  0.00    +0.004 C 
ATOM     20  C   LIG A   1      -4.219  -3.412 123.364  0.00  0.00    -0.003 C 
ENDBRANCH  18  20
ENDBRANCH  17  18
ENDBRANCH  16  17
ENDBRANCH  15  16
ENDBRANCH  14  15
ENDBRANCH  13  14
ENDBRANCH  12  13
ENDBRANCH   1  12
TORSDOF 12
ENDMDL
MODEL 4
REMARK VINA RESULT:      -5.5      1.160      1.621
REMARK  Name = NuBBE_1805
REMARK  13 active torsions:
REMARK  status: ('A' for Active; 'I' for Inactive)
REMARK    1  A    between atoms: C_1  and  C_2
REMARK    2  A    between atoms: C_2  and  C_3
REMARK    3  A    between atoms: C_3  and  C_4
REMARK    4  A    between atoms: C_4  and  C_5
REMARK    5  A    between atoms: C_5  and  C_6
REMARK    6  A    between atoms: C_6  and  C_7
REMARK    7  A    between atoms: C_7  and  C_8
REMARK    8  A    between atoms: C_8  and  C_9
REMARK    9  A    between atoms: C_9  and  C_10
REMARK   10  A    between atoms: C_10  and  C_11
REMARK   11  A    between atoms: C_13  and  C_14
REMARK   12  A    between atoms: C_14  and  C_15
REMARK   13  A    between atoms: C_15  and  O_16
REMARK                            x       y       z     vdW  Elec       q    Type
REMARK                         _______ _______ _______ _____ _____    ______ ____
ROOT
ATOM      1  C   LIG A   1      -7.180  -2.593 128.476  0.00  0.00    +0.045 C 
ENDROOT
BRANCH   1   2
ATOM      2  C   LIG A   1      -6.147  -2.847 129.576  0.00  0.00    +0.177 C 
ATOM      3  C   LIG A   1      -6.215  -4.217 130.219  0.00  0.00    +0.059 C 
ATOM      4  C   LIG A   1      -4.780  -4.478 130.653  0.00  0.00    +0.103 C 
ATOM      5  C   LIG A   1      -3.998  -3.616 129.694  0.00  0.00    +0.311 C 
ATOM      6  O   LIG A   1      -4.825  -2.779 129.016  0.00  0.00    -0.461 OA
ATOM      7  O   LIG A   1      -2.775  -3.643 129.548  0.00  0.00    -0.251 OA
BRANCH   4   8
ATOM      8  C   LIG A   1      -4.536  -4.103 132.113  0.00  0.00    +0.042 C 
BRANCH   8   9
ATOM      9  C   LIG A   1      -4.663  -5.294 133.058  0.00  0.00    +0.156 C 
BRANCH   9  10
ATOM     10  O   LIG A   1      -5.671  -5.021 134.023  0.00  0.00    -0.395 OA
ATOM     11  H   LIG A   1      -5.279  -5.157 134.902  0.00  0.00    +0.209 HD
ENDBRANCH   9  10
ENDBRANCH   8   9
ENDBRANCH   4   8
ENDBRANCH   1   2
BRANCH   1  12
ATOM     12  C   LIG A   1      -8.480  -3.405 128.621  0.00  0.00    +0.003 C 
BRANCH  12  13
ATOM     13  C   LIG A   1      -9.063  -3.733 127.235  0.00  0.00    +0.000 C 
BRANCH  13  14
ATOM     14  C   LIG A   1      -9.025  -2.584 126.214  0.00  0.00    -0.000 C 
BRANCH  14  15
ATOM     15  C   LIG A   1      -9.253  -3.130 124.789  0.00  0.00    -0.000 C 
BRANCH  15  16
ATOM     16  C   LIG A   1      -7.985  -3.308 123.944  0.00  0.00    -0.000 C 
BRANCH  16  17
ATOM     17  C   LIG A   1      -6.851  -2.321 124.212  0.00  0.00    -0.000 C 
BRANCH  17  18
ATOM     18  C   LIG A   1      -5.535  -2.957 124.669  0.00  0.00    -0.000 C 
BRANCH  18  20
ATOM     19  C   LIG A   1      -4.254  -4.812 123.516  0.00  0.00    +0.004 C 
ATOM     20  C   LIG A   1      -4.647  -3.342 123.480  0.00  0.00    -0.003 C 
ENDBRANCH  18  20
ENDBRANCH  17  18
ENDBRANCH  16  17
ENDBRANCH  15  16
ENDBRANCH  14  15
ENDBRANCH  13  14
ENDBRANCH  12  13
ENDBRANCH   1  12
TORSDOF 12
ENDMDL
MODEL 5
REMARK VINA RESULT:      -5.5      3.480      5.674
REMARK  Name = NuBBE_1805
REMARK  13 active torsions:
REMARK  status: ('A' for Active; 'I' for Inactive)
REMARK    1  A    between atoms: C_1  and  C_2
REMARK    2  A    between atoms: C_2  and  C_3
REMARK    3  A    between atoms: C_3  and  C_4
REMARK    4  A    between atoms: C_4  and  C_5
REMARK    5  A    between atoms: C_5  and  C_6
REMARK    6  A    between atoms: C_6  and  C_7
REMARK    7  A    between atoms: C_7  and  C_8
REMARK    8  A    between atoms: C_8  and  C_9
REMARK    9  A    between atoms: C_9  and  C_10
REMARK   10  A    between atoms: C_10  and  C_11
REMARK   11  A    between atoms: C_13  and  C_14
REMARK   12  A    between atoms: C_14  and  C_15
REMARK   13  A    between atoms: C_15  and  O_16
REMARK                            x       y       z     vdW  Elec       q    Type
REMARK                         _______ _______ _______ _____ _____    ______ ____
ROOT
ATOM      1  C   LIG A   1      -6.829  -1.524 127.203  0.00  0.00    +0.045 C 
ENDROOT
BRANCH   1   2
ATOM      2  C   LIG A   1      -6.987  -0.048 126.830  0.00  0.00    +0.177 C 
ATOM      3  C   LIG A   1      -6.255   0.380 125.576  0.00  0.00    +0.059 C 
ATOM      4  C   LIG A   1      -7.099   1.529 125.045  0.00  0.00    +0.103 C 
ATOM      5  C   LIG A   1      -8.457   1.213 125.618  0.00  0.00    +0.311 C 
ATOM      6  O   LIG A   1      -8.369   0.229 126.551  0.00  0.00    -0.461 OA
ATOM      7  O   LIG A   1      -9.510   1.773 125.307  0.00  0.00    -0.251 OA
BRANCH   4   8
ATOM      8  C   LIG A   1      -6.576   2.892 125.490  0.00  0.00    +0.042 C 
BRANCH   8   9
ATOM      9  C   LIG A   1      -6.833   3.989 124.462  0.00  0.00    +0.156 C 
BRANCH   9  10
ATOM     10  O   LIG A   1      -8.218   4.313 124.459  0.00  0.00    -0.395 OA
ATOM     11  H   LIG A   1      -8.292   5.281 124.516  0.00  0.00    +0.209 HD
ENDBRANCH   9  10
ENDBRANCH   8   9
ENDBRANCH   4   8
ENDBRANCH   1   2
BRANCH   1  12
ATOM     12  C   LIG A   1      -8.147  -2.318 127.242  0.00  0.00    +0.003 C 
BRANCH  12  13
ATOM     13  C   LIG A   1      -8.254  -3.239 126.013  0.00  0.00    +0.000 C 
BRANCH  13  14
ATOM     14  C   LIG A   1      -9.126  -2.706 124.863  0.00  0.00    -0.000 C 
BRANCH  14  15
ATOM     15  C   LIG A   1      -8.457  -3.006 123.506  0.00  0.00    -0.000 C 
BRANCH  15  16
ATOM     16  C   LIG A   1      -7.511  -1.917 122.984  0.00  0.00    -0.000 C 
BRANCH  16  17
ATOM     17  C   LIG A   1      -6.074  -2.351 122.702  0.00  0.00    -0.000 C 
BRANCH  17  18
ATOM     18  C   LIG A   1      -5.182  -2.478 123.940  0.00  0.00    -0.000 C 
BRANCH  18  20
ATOM     19  C   LIG A   1      -4.242  -4.757 123.360  0.00  0.00    +0.004 C 
ATOM     20  C   LIG A   1      -5.024  -3.939 124.379  0.00  0.00    -0.003 C 
ENDBRANCH  18  20
ENDBRANCH  17  18
ENDBRANCH  16  17
ENDBRANCH  15  16
ENDBRANCH  14  15
ENDBRANCH  13  14
ENDBRANCH  12  13
ENDBRANCH   1  12
TORSDOF 12
ENDMDL
MODEL 6
REMARK VINA RESULT:      -5.4     10.417     12.461
REMARK  Name = NuBBE_1805
REMARK  13 active torsions:
REMARK  status: ('A' for Active; 'I' for Inactive)
REMARK    1  A    between atoms: C_1  and  C_2
REMARK    2  A    between atoms: C_2  and  C_3
REMARK    3  A    between atoms: C_3  and  C_4
REMARK    4  A    between atoms: C_4  and  C_5
REMARK    5  A    between atoms: C_5  and  C_6
REMARK    6  A    between atoms: C_6  and  C_7
REMARK    7  A    between atoms: C_7  and  C_8
REMARK    8  A    between atoms: C_8  and  C_9
REMARK    9  A    between atoms: C_9  and  C_10
REMARK   10  A    between atoms: C_10  and  C_11
REMARK   11  A    between atoms: C_13  and  C_14
REMARK   12  A    between atoms: C_14  and  C_15
REMARK   13  A    between atoms: C_15  and  O_16
REMARK                            x       y       z     vdW  Elec       q    Type
REMARK                         _______ _______ _______ _____ _____    ______ ____
ROOT
ATOM      1  C   LIG A   1      -8.906   5.863 129.981  0.00  0.00    +0.045 C 
ENDROOT
BRANCH   1   2
ATOM      2  C   LIG A   1     -10.091   6.470 129.227  0.00  0.00    +0.177 C 
ATOM      3  C   LIG A   1     -10.235   7.972 129.357  0.00  0.00    +0.059 C 
ATOM      4  C   LIG A   1     -10.906   8.380 128.055  0.00  0.00    +0.103 C 
ATOM      5  C   LIG A   1     -10.490   7.270 127.124  0.00  0.00    +0.311 C 
ATOM      6  O   LIG A   1      -9.925   6.247 127.817  0.00  0.00    -0.461 OA
ATOM      7  O   LIG A   1     -10.650   7.268 125.902  0.00  0.00    -0.251 OA
BRANCH   4   8
ATOM      8  C   LIG A   1     -12.422   8.496 128.191  0.00  0.00    +0.042 C 
BRANCH   8   9
ATOM      9  C   LIG A   1     -12.846   9.274 129.433  0.00  0.00    +0.156 C 
BRANCH   9  10
ATOM     10  O   LIG A   1     -13.131  10.619 129.068  0.00  0.00    -0.395 OA
ATOM     11  H   LIG A   1     -14.041  10.813 129.350  0.00  0.00    +0.209 HD
ENDBRANCH   9  10
ENDBRANCH   8   9
ENDBRANCH   4   8
ENDBRANCH   1   2
BRANCH   1  12
ATOM     12  C   LIG A   1      -8.443   6.674 131.204  0.00  0.00    +0.003 C 
BRANCH  12  13
ATOM     13  C   LIG A   1      -6.928   6.932 131.133  0.00  0.00    +0.000 C 
BRANCH  13  14
ATOM     14  C   LIG A   1      -6.085   6.212 132.201  0.00  0.00    -0.000 C 
BRANCH  14  15
ATOM     15  C   LIG A   1      -4.978   5.374 131.529  0.00  0.00    -0.000 C 
BRANCH  15  16
ATOM     16  C   LIG A   1      -3.548   5.688 131.984  0.00  0.00    -0.000 C 
BRANCH  16  17
ATOM     17  C   LIG A   1      -2.764   6.672 131.116  0.00  0.00    -0.000 C 
BRANCH  17  18
ATOM     18  C   LIG A   1      -2.809   6.385 129.613  0.00  0.00    -0.000 C 
BRANCH  18  20
ATOM     19  C   LIG A   1      -3.979   8.625 129.762  0.00  0.00    +0.004 C 
ATOM     20  C   LIG A   1      -3.502   7.512 128.839  0.00  0.00    -0.003 C 
ENDBRANCH  18  20
ENDBRANCH  17  18
ENDBRANCH  16  17
ENDBRANCH  15  16
ENDBRANCH  14  15
ENDBRANCH  13  14
ENDBRANCH  12  13
ENDBRANCH   1  12
TORSDOF 12
ENDMDL
MODEL 7
REMARK VINA RESULT:      -5.4      2.887      7.122
REMARK  Name = NuBBE_1805
REMARK  13 active torsions:
REMARK  status: ('A' for Active; 'I' for Inactive)
REMARK    1  A    between atoms: C_1  and  C_2
REMARK    2  A    between atoms: C_2  and  C_3
REMARK    3  A    between atoms: C_3  and  C_4
REMARK    4  A    between atoms: C_4  and  C_5
REMARK    5  A    between atoms: C_5  and  C_6
REMARK    6  A    between atoms: C_6  and  C_7
REMARK    7  A    between atoms: C_7  and  C_8
REMARK    8  A    between atoms: C_8  and  C_9
REMARK    9  A    between atoms: C_9  and  C_10
REMARK   10  A    between atoms: C_10  and  C_11
REMARK   11  A    between atoms: C_13  and  C_14
REMARK   12  A    between atoms: C_14  and  C_15
REMARK   13  A    between atoms: C_15  and  O_16
REMARK                            x       y       z     vdW  Elec       q    Type
REMARK                         _______ _______ _______ _____ _____    ______ ____
ROOT
ATOM      1  C   LIG A   1      -8.105  -2.044 126.644  0.00  0.00    +0.045 C 
ENDROOT
BRANCH   1   2
ATOM      2  C   LIG A   1      -6.979  -2.139 125.612  0.00  0.00    +0.177 C 
ATOM      3  C   LIG A   1      -7.006  -3.378 124.742  0.00  0.00    +0.059 C 
ATOM      4  C   LIG A   1      -6.356  -2.918 123.446  0.00  0.00    +0.103 C 
ATOM      5  C   LIG A   1      -6.626  -1.435 123.467  0.00  0.00    +0.311 C 
ATOM      6  O   LIG A   1      -7.089  -1.047 124.684  0.00  0.00    -0.461 OA
ATOM      7  O   LIG A   1      -6.441  -0.664 122.524  0.00  0.00    -0.251 OA
BRANCH   4   8
ATOM      8  C   LIG A   1      -4.866  -3.243 123.393  0.00  0.00    +0.042 C 
BRANCH   8   9
ATOM      9  C   LIG A   1      -4.541  -4.622 123.959  0.00  0.00    +0.156 C 
BRANCH   9  10
ATOM     10  O   LIG A   1      -4.148  -5.483 122.898  0.00  0.00    -0.395 OA
ATOM     11  H   LIG A   1      -4.671  -6.299 122.973  0.00  0.00    +0.209 HD
ENDBRANCH   9  10
ENDBRANCH   8   9
ENDBRANCH   4   8
ENDBRANCH   1   2
BRANCH   1  12
ATOM     12  C   LIG A   1      -8.894  -3.350 126.850  0.00  0.00    +0.003 C 
BRANCH  12  13
ATOM     13  C   LIG A   1      -8.739  -3.846 128.298  0.00  0.00    +0.000 C 
BRANCH  13  14
ATOM     14  C   LIG A   1      -7.437  -3.429 129.003  0.00  0.00    -0.000 C 
BRANCH  14  15
ATOM     15  C   LIG A   1      -7.734  -2.982 130.449  0.00  0.00    -0.000 C 
BRANCH  15  16
ATOM     16  C   LIG A   1      -6.661  -3.346 131.483  0.00  0.00    -0.000 C 
BRANCH  16  17
ATOM     17  C   LIG A   1      -5.774  -4.542 131.142  0.00  0.00    -0.000 C 
BRANCH  17  18
ATOM     18  C   LIG A   1      -5.084  -5.198 132.342  0.00  0.00    -0.000 C 
BRANCH  18  20
ATOM     19  C   LIG A   1      -6.327  -5.613 134.509  0.00  0.00    +0.004 C 
ATOM     20  C   LIG A   1      -5.562  -4.599 133.669  0.00  0.00    -0.003 C 
ENDBRANCH  18  20
ENDBRANCH  17  18
ENDBRANCH  16  17
ENDBRANCH  15  16
ENDBRANCH  14  15
ENDBRANCH  13  14
ENDBRANCH  12  13
ENDBRANCH   1  12
TORSDOF 12
ENDMDL
MODEL 8
REMARK VINA RESULT:      -5.4      4.245      7.418
REMARK  Name = NuBBE_1805
REMARK  13 active torsions:
REMARK  status: ('A' for Active; 'I' for Inactive)
REMARK    1  A    between atoms: C_1  and  C_2
REMARK    2  A    between atoms: C_2  and  C_3
REMARK    3  A    between atoms: C_3  and  C_4
REMARK    4  A    between atoms: C_4  and  C_5
REMARK    5  A    between atoms: C_5  and  C_6
REMARK    6  A    between atoms: C_6  and  C_7
REMARK    7  A    between atoms: C_7  and  C_8
REMARK    8  A    between atoms: C_8  and  C_9
REMARK    9  A    between atoms: C_9  and  C_10
REMARK   10  A    between atoms: C_10  and  C_11
REMARK   11  A    between atoms: C_13  and  C_14
REMARK   12  A    between atoms: C_14  and  C_15
REMARK   13  A    between atoms: C_15  and  O_16
REMARK                            x       y       z     vdW  Elec       q    Type
REMARK                         _______ _______ _______ _____ _____    ______ ____
ROOT
ATOM      1  C   LIG A   1      -8.318   0.258 126.520  0.00  0.00    +0.045 C 
ENDROOT
BRANCH   1   2
ATOM      2  C   LIG A   1      -8.783   1.079 125.314  0.00  0.00    +0.177 C 
ATOM      3  C   LIG A   1      -7.767   1.218 124.200  0.00  0.00    +0.059 C 
ATOM      4  C   LIG A   1      -8.624   1.368 122.952  0.00  0.00    +0.103 C 
ATOM      5  C   LIG A   1      -9.900   0.677 123.362  0.00  0.00    +0.311 C 
ATOM      6  O   LIG A   1      -9.905   0.426 124.697  0.00  0.00    -0.461 OA
ATOM      7  O   LIG A   1     -10.829   0.390 122.605  0.00  0.00    -0.251 OA
BRANCH   4   8
ATOM      8  C   LIG A   1      -8.844   2.829 122.568  0.00  0.00    +0.042 C 
BRANCH   8   9
ATOM      9  C   LIG A   1      -7.713   3.391 121.713  0.00  0.00    +0.156 C 
BRANCH   9  10
ATOM     10  O   LIG A   1      -8.266   4.099 120.610  0.00  0.00    -0.395 OA
ATOM     11  H   LIG A   1      -7.607   4.751 120.319  0.00  0.00    +0.209 HD
ENDBRANCH   9  10
ENDBRANCH   8   9
ENDBRANCH   4   8
ENDBRANCH   1   2
BRANCH   1  12
ATOM     12  C   LIG A   1      -6.812   0.365 126.823  0.00  0.00    +0.003 C 
BRANCH  12  13
ATOM     13  C   LIG A   1      -6.325  -0.893 127.561  0.00  0.00    +0.000 C 
BRANCH  13  14
ATOM     14  C   LIG A   1      -6.032  -2.111 126.668  0.00  0.00    -0.000 C 
BRANCH  14  15
ATOM     15  C   LIG A   1      -5.551  -1.647 125.277  0.00  0.00    -0.000 C 
BRANCH  15  16
ATOM     16  C   LIG A   1      -5.898  -2.586 124.115  0.00  0.00    -0.000 C 
BRANCH  16  17
ATOM     17  C   LIG A   1      -6.848  -2.028 123.057  0.00  0.00    -0.000 C 
BRANCH  17  18
ATOM     18  C   LIG A   1      -8.292  -2.528 123.156  0.00  0.00    -0.000 C 
BRANCH  18  20
ATOM     19  C   LIG A   1      -9.385  -3.016 125.388  0.00  0.00    +0.004 C 
ATOM     20  C   LIG A   1      -8.466  -3.541 124.294  0.00  0.00    -0.003 C 
ENDBRANCH  18  20
ENDBRANCH  17  18
ENDBRANCH  16  17
ENDBRANCH  15  16
ENDBRANCH  14  15
ENDBRANCH  13  14
ENDBRANCH  12  13
ENDBRANCH   1  12
TORSDOF 12
ENDMDL
MODEL 9
REMARK VINA RESULT:      -5.2      3.955      7.334
REMARK  Name = NuBBE_1805
REMARK  13 active torsions:
REMARK  status: ('A' for Active; 'I' for Inactive)
REMARK    1  A    between atoms: C_1  and  C_2
REMARK    2  A    between atoms: C_2  and  C_3
REMARK    3  A    between atoms: C_3  and  C_4
REMARK    4  A    between atoms: C_4  and  C_5
REMARK    5  A    between atoms: C_5  and  C_6
REMARK    6  A    between atoms: C_6  and  C_7
REMARK    7  A    between atoms: C_7  and  C_8
REMARK    8  A    between atoms: C_8  and  C_9
REMARK    9  A    between atoms: C_9  and  C_10
REMARK   10  A    between atoms: C_10  and  C_11
REMARK   11  A    between atoms: C_13  and  C_14
REMARK   12  A    between atoms: C_14  and  C_15
REMARK   13  A    between atoms: C_15  and  O_16
REMARK                            x       y       z     vdW  Elec       q    Type
REMARK                         _______ _______ _______ _____ _____    ______ ____
ROOT
ATOM      1  C   LIG A   1      -6.582  -1.381 122.994  0.00  0.00    +0.045 C 
ENDROOT
BRANCH   1   2
ATOM      2  C   LIG A   1      -7.664  -0.443 123.534  0.00  0.00    +0.177 C 
ATOM      3  C   LIG A   1      -7.471   1.022 123.199  0.00  0.00    +0.059 C 
ATOM      4  C   LIG A   1      -8.891   1.567 123.158  0.00  0.00    +0.103 C 
ATOM      5  C   LIG A   1      -9.693   0.335 122.828  0.00  0.00    +0.311 C 
ATOM      6  O   LIG A   1      -8.929  -0.782 122.943  0.00  0.00    -0.461 OA
ATOM      7  O   LIG A   1     -10.885   0.323 122.514  0.00  0.00    -0.251 OA
BRANCH   4   8
ATOM      8  C   LIG A   1      -9.309   2.204 124.481  0.00  0.00    +0.042 C 
BRANCH   8   9
ATOM      9  C   LIG A   1      -8.309   3.244 124.978  0.00  0.00    +0.156 C 
BRANCH   9  10
ATOM     10  O   LIG A   1      -9.015   4.395 125.426  0.00  0.00    -0.395 OA
ATOM     11  H   LIG A   1      -9.402   4.824 124.645  0.00  0.00    +0.209 HD
ENDBRANCH   9  10
ENDBRANCH   8   9
ENDBRANCH   4   8
ENDBRANCH   1   2
BRANCH   1  12
ATOM     12  C   LIG A   1      -6.476  -2.727 123.733  0.00  0.00    +0.003 C 
BRANCH  12  13
ATOM     13  C   LIG A   1      -6.403  -2.500 125.252  0.00  0.00    +0.000 C 
BRANCH  13  14
ATOM     14  C   LIG A   1      -5.333  -1.498 125.719  0.00  0.00    -0.000 C 
BRANCH  14  15
ATOM     15  C   LIG A   1      -5.492  -1.213 127.227  0.00  0.00    -0.000 C 
BRANCH  15  16
ATOM     16  C   LIG A   1      -5.101  -2.368 128.158  0.00  0.00    -0.000 C 
BRANCH  16  17
ATOM     17  C   LIG A   1      -6.138  -2.772 129.204  0.00  0.00    -0.000 C 
BRANCH  17  18
ATOM     18  C   LIG A   1      -7.571  -2.323 128.901  0.00  0.00    -0.000 C 
BRANCH  18  20
ATOM     19  C   LIG A   1      -9.014  -3.798 127.433  0.00  0.00    +0.004 C 
ATOM     20  C   LIG A   1      -8.539  -3.510 128.851  0.00  0.00    -0.003 C 
ENDBRANCH  18  20
ENDBRANCH  17  18
ENDBRANCH  16  17
ENDBRANCH  15  16
ENDBRANCH  14  15
ENDBRANCH  13  14
ENDBRANCH  12  13
ENDBRANCH   1  12
TORSDOF 12
ENDMDL
