MODEL 1
REMARK VINA RESULT:      -6.9      0.000      0.000
REMARK  Name = NuBBE_1310
REMARK  14 active torsions:
REMARK  status: ('A' for Active; 'I' for Inactive)
REMARK    1  A    between atoms: O_1  and  C_2
REMARK    2  A    between atoms: C_4  and  O_5
REMARK    3  A    between atoms: O_5  and  C_6
REMARK    4  A    between atoms: C_7  and  O_8
REMARK    5  A    between atoms: O_8  and  C_9
REMARK    6  A    between atoms: C_13  and  O_14
REMARK    7  A    between atoms: O_14  and  C_15
REMARK    8  A    between atoms: C_16  and  C_17
REMARK    9  A    between atoms: C_19  and  O_20
REMARK   10  A    between atoms: O_20  and  C_21
REMARK   11  A    between atoms: C_22  and  O_23
REMARK   12  A    between atoms: O_23  and  C_24
REMARK   13  A    between atoms: C_25  and  O_26
REMARK   14  A    between atoms: O_26  and  C_27
REMARK                            x       y       z     vdW  Elec       q    Type
REMARK                         _______ _______ _______ _____ _____    ______ ____
ROOT
ATOM      1  C   LIG A   1     -10.603   6.495 131.564  0.00  0.00    +0.135 A 
ATOM      2  C   LIG A   1     -11.727   7.121 131.020  0.00  0.00    +0.095 A 
ATOM      3  C   LIG A   1     -11.917   7.179 129.628  0.00  0.00    +0.169 A 
ATOM      4  C   LIG A   1     -10.976   6.567 128.774  0.00  0.00    +0.205 A 
ATOM      5  C   LIG A   1      -9.860   5.918 129.345  0.00  0.00    +0.188 A 
ATOM      6  C   LIG A   1      -9.660   5.909 130.719  0.00  0.00    +0.113 A 
ATOM      7  C   LIG A   1      -8.410   5.288 131.199  0.00  0.00    +0.238 A 
ATOM      8  C   LIG A   1      -7.775   4.265 130.317  0.00  0.00    +0.211 A 
ATOM      9  C   LIG A   1      -8.081   4.354 129.002  0.00  0.00    +0.181 A 
ATOM     10  O   LIG A   1      -8.972   5.289 128.501  0.00  0.00    -0.447 OA
ATOM     11  O   LIG A   1      -7.883   5.650 132.268  0.00  0.00    -0.283 OA
ENDROOT
BRANCH   9  12
ATOM     12  C   LIG A   1      -7.536   3.492 127.947  0.00  0.00    +0.028 A 
ATOM     13  C   LIG A   1      -8.162   2.284 127.659  0.00  0.00    +0.061 A 
ATOM     14  C   LIG A   1      -7.800   1.534 126.528  0.00  0.00    +0.166 A 
ATOM     15  C   LIG A   1      -6.765   1.976 125.669  0.00  0.00    +0.203 A 
ATOM     16  C   LIG A   1      -6.107   3.185 125.975  0.00  0.00    +0.166 A 
ATOM     17  C   LIG A   1      -6.496   3.922 127.116  0.00  0.00    +0.061 A 
BRANCH  14  18
ATOM     18  O   LIG A   1      -8.413   0.336 126.220  0.00  0.00    -0.491 OA
ATOM     19  C   LIG A   1      -9.756   0.441 125.751  0.00  0.00    +0.277 C 
ENDBRANCH  14  18
BRANCH  15  20
ATOM     20  O   LIG A   1      -6.588   1.214 124.539  0.00  0.00    -0.488 OA
ATOM     21  C   LIG A   1      -7.233   1.567 123.322  0.00  0.00    +0.277 C 
ENDBRANCH  15  20
BRANCH  16  22
ATOM     22  O   LIG A   1      -5.198   3.696 125.079  0.00  0.00    -0.491 OA
ATOM     23  C   LIG A   1      -5.700   4.684 124.182  0.00  0.00    +0.277 C 
ENDBRANCH  16  22
ENDBRANCH   9  12
BRANCH   1  24
ATOM     24  O   LIG A   1     -10.469   6.433 132.921  0.00  0.00    -0.506 OA
ATOM     25  H   LIG A   1     -11.272   6.769 133.354  0.00  0.00    +0.292 HD
ENDBRANCH   1  24
BRANCH   3  26
ATOM     26  O   LIG A   1     -13.044   7.883 129.294  0.00  0.00    -0.491 OA
ATOM     27  C   LIG A   1     -12.990   9.291 129.104  0.00  0.00    +0.277 C 
ENDBRANCH   3  26
BRANCH   4  28
ATOM     28  O   LIG A   1     -11.238   6.564 127.429  0.00  0.00    -0.488 OA
ATOM     29  C   LIG A   1     -10.783   7.673 126.660  0.00  0.00    +0.277 C 
ENDBRANCH   4  28
BRANCH   8  30
ATOM     30  O   LIG A   1      -6.887   3.315 130.786  0.00  0.00    -0.488 OA
ATOM     31  C   LIG A   1      -7.484   2.229 131.487  0.00  0.00    +0.277 C 
ENDBRANCH   8  30
TORSDOF 8
ENDMDL
MODEL 2
REMARK VINA RESULT:      -6.9      1.593      1.819
REMARK  Name = NuBBE_1310
REMARK  14 active torsions:
REMARK  status: ('A' for Active; 'I' for Inactive)
REMARK    1  A    between atoms: O_1  and  C_2
REMARK    2  A    between atoms: C_4  and  O_5
REMARK    3  A    between atoms: O_5  and  C_6
REMARK    4  A    between atoms: C_7  and  O_8
REMARK    5  A    between atoms: O_8  and  C_9
REMARK    6  A    between atoms: C_13  and  O_14
REMARK    7  A    between atoms: O_14  and  C_15
REMARK    8  A    between atoms: C_16  and  C_17
REMARK    9  A    between atoms: C_19  and  O_20
REMARK   10  A    between atoms: O_20  and  C_21
REMARK   11  A    between atoms: C_22  and  O_23
REMARK   12  A    between atoms: O_23  and  C_24
REMARK   13  A    between atoms: C_25  and  O_26
REMARK   14  A    between atoms: O_26  and  C_27
REMARK                            x       y       z     vdW  Elec       q    Type
REMARK                         _______ _______ _______ _____ _____    ______ ____
ROOT
ATOM      1  C   LIG A   1     -11.587   6.589 131.070  0.00  0.00    +0.135 A 
ATOM      2  C   LIG A   1     -12.411   7.574 130.522  0.00  0.00    +0.095 A 
ATOM      3  C   LIG A   1     -12.149   8.107 129.248  0.00  0.00    +0.169 A 
ATOM      4  C   LIG A   1     -11.058   7.614 128.502  0.00  0.00    +0.205 A 
ATOM      5  C   LIG A   1     -10.251   6.601 129.064  0.00  0.00    +0.188 A 
ATOM      6  C   LIG A   1     -10.494   6.117 130.343  0.00  0.00    +0.113 A 
ATOM      7  C   LIG A   1      -9.530   5.131 130.868  0.00  0.00    +0.238 A 
ATOM      8  C   LIG A   1      -8.762   4.330 129.869  0.00  0.00    +0.211 A 
ATOM      9  C   LIG A   1      -8.630   4.891 128.645  0.00  0.00    +0.181 A 
ATOM     10  O   LIG A   1      -9.216   6.100 128.308  0.00  0.00    -0.447 OA
ATOM     11  O   LIG A   1      -9.329   5.019 132.092  0.00  0.00    -0.283 OA
ENDROOT
BRANCH   9  12
ATOM     12  C   LIG A   1      -7.876   4.313 127.528  0.00  0.00    +0.028 A 
ATOM     13  C   LIG A   1      -8.524   4.062 126.322  0.00  0.00    +0.061 A 
ATOM     14  C   LIG A   1      -7.799   3.707 125.172  0.00  0.00    +0.166 A 
ATOM     15  C   LIG A   1      -6.392   3.566 125.221  0.00  0.00    +0.203 A 
ATOM     16  C   LIG A   1      -5.734   3.789 126.448  0.00  0.00    +0.166 A 
ATOM     17  C   LIG A   1      -6.488   4.151 127.587  0.00  0.00    +0.061 A 
BRANCH  14  18
ATOM     18  O   LIG A   1      -8.421   3.461 123.965  0.00  0.00    -0.491 OA
ATOM     19  C   LIG A   1      -9.160   2.243 123.897  0.00  0.00    +0.277 C 
ENDBRANCH  14  18
BRANCH  15  20
ATOM     20  O   LIG A   1      -5.792   3.331 124.006  0.00  0.00    -0.488 OA
ATOM     21  C   LIG A   1      -5.308   4.411 123.218  0.00  0.00    +0.277 C 
ENDBRANCH  15  20
BRANCH  16  22
ATOM     22  O   LIG A   1      -4.359   3.792 126.480  0.00  0.00    -0.491 OA
ATOM     23  C   LIG A   1      -3.761   4.768 127.330  0.00  0.00    +0.277 C 
ENDBRANCH  16  22
ENDBRANCH   9  12
BRANCH   1  24
ATOM     24  O   LIG A   1     -11.892   6.076 132.298  0.00  0.00    -0.506 OA
ATOM     25  H   LIG A   1     -11.191   5.470 132.592  0.00  0.00    +0.292 HD
ENDBRANCH   1  24
BRANCH   3  26
ATOM     26  O   LIG A   1     -13.035   9.099 128.914  0.00  0.00    -0.491 OA
ATOM     27  C   LIG A   1     -13.219  10.221 129.767  0.00  0.00    +0.277 C 
ENDBRANCH   3  26
BRANCH   4  28
ATOM     28  O   LIG A   1     -10.885   8.090 127.229  0.00  0.00    -0.488 OA
ATOM     29  C   LIG A   1     -11.554   7.412 126.169  0.00  0.00    +0.277 C 
ENDBRANCH   4  28
BRANCH   8  30
ATOM     30  O   LIG A   1      -8.171   3.118 130.173  0.00  0.00    -0.488 OA
ATOM     31  C   LIG A   1      -9.077   2.032 130.336  0.00  0.00    +0.277 C 
ENDBRANCH   8  30
TORSDOF 8
ENDMDL
MODEL 3
REMARK VINA RESULT:      -6.8      1.647      2.523
REMARK  Name = NuBBE_1310
REMARK  14 active torsions:
REMARK  status: ('A' for Active; 'I' for Inactive)
REMARK    1  A    between atoms: O_1  and  C_2
REMARK    2  A    between atoms: C_4  and  O_5
REMARK    3  A    between atoms: O_5  and  C_6
REMARK    4  A    between atoms: C_7  and  O_8
REMARK    5  A    between atoms: O_8  and  C_9
REMARK    6  A    between atoms: C_13  and  O_14
REMARK    7  A    between atoms: O_14  and  C_15
REMARK    8  A    between atoms: C_16  and  C_17
REMARK    9  A    between atoms: C_19  and  O_20
REMARK   10  A    between atoms: O_20  and  C_21
REMARK   11  A    between atoms: C_22  and  O_23
REMARK   12  A    between atoms: O_23  and  C_24
REMARK   13  A    between atoms: C_25  and  O_26
REMARK   14  A    between atoms: O_26  and  C_27
REMARK                            x       y       z     vdW  Elec       q    Type
REMARK                         _______ _______ _______ _____ _____    ______ ____
ROOT
ATOM      1  C   LIG A   1     -11.722   6.718 131.215  0.00  0.00    +0.135 A 
ATOM      2  C   LIG A   1     -12.398   7.713 130.505  0.00  0.00    +0.095 A 
ATOM      3  C   LIG A   1     -11.885   8.207 129.293  0.00  0.00    +0.169 A 
ATOM      4  C   LIG A   1     -10.692   7.666 128.773  0.00  0.00    +0.205 A 
ATOM      5  C   LIG A   1     -10.036   6.644 129.494  0.00  0.00    +0.188 A 
ATOM      6  C   LIG A   1     -10.528   6.198 130.714  0.00  0.00    +0.113 A 
ATOM      7  C   LIG A   1      -9.712   5.198 131.428  0.00  0.00    +0.238 A 
ATOM      8  C   LIG A   1      -8.798   4.352 130.605  0.00  0.00    +0.211 A 
ATOM      9  C   LIG A   1      -8.422   4.879 129.416  0.00  0.00    +0.181 A 
ATOM     10  O   LIG A   1      -8.895   6.096 128.954  0.00  0.00    -0.447 OA
ATOM     11  O   LIG A   1      -9.746   5.110 132.669  0.00  0.00    -0.283 OA
ENDROOT
BRANCH   9  12
ATOM     12  C   LIG A   1      -7.492   4.254 128.470  0.00  0.00    +0.028 A 
ATOM     13  C   LIG A   1      -6.185   3.991 128.867  0.00  0.00    +0.061 A 
ATOM     14  C   LIG A   1      -5.330   3.211 128.071  0.00  0.00    +0.166 A 
ATOM     15  C   LIG A   1      -5.770   2.699 126.827  0.00  0.00    +0.203 A 
ATOM     16  C   LIG A   1      -7.084   2.989 126.406  0.00  0.00    +0.166 A 
ATOM     17  C   LIG A   1      -7.924   3.771 127.231  0.00  0.00    +0.061 A 
BRANCH  14  18
ATOM     18  O   LIG A   1      -4.032   2.933 128.450  0.00  0.00    -0.491 OA
ATOM     19  C   LIG A   1      -3.134   4.039 128.407  0.00  0.00    +0.277 C 
ENDBRANCH  14  18
BRANCH  15  20
ATOM     20  O   LIG A   1      -4.881   1.858 126.202  0.00  0.00    -0.488 OA
ATOM     21  C   LIG A   1      -5.088   0.451 126.210  0.00  0.00    +0.277 C 
ENDBRANCH  15  20
BRANCH  16  22
ATOM     22  O   LIG A   1      -7.571   2.386 125.270  0.00  0.00    -0.491 OA
ATOM     23  C   LIG A   1      -8.651   3.058 124.626  0.00  0.00    +0.277 C 
ENDBRANCH  16  22
ENDBRANCH   9  12
BRANCH   1  24
ATOM     24  O   LIG A   1     -12.266   6.243 132.374  0.00  0.00    -0.506 OA
ATOM     25  H   LIG A   1     -11.768   5.470 132.687  0.00  0.00    +0.292 HD
ENDBRANCH   1  24
BRANCH   3  26
ATOM     26  O   LIG A   1     -12.661   9.215 128.782  0.00  0.00    -0.491 OA
ATOM     27  C   LIG A   1     -13.195  10.221 129.633  0.00  0.00    +0.277 C 
ENDBRANCH   3  26
BRANCH   4  28
ATOM     28  O   LIG A   1     -10.269   8.106 127.546  0.00  0.00    -0.488 OA
ATOM     29  C   LIG A   1     -10.899   7.560 126.391  0.00  0.00    +0.277 C 
ENDBRANCH   4  28
BRANCH   8  30
ATOM     30  O   LIG A   1      -8.312   3.131 131.036  0.00  0.00    -0.488 OA
ATOM     31  C   LIG A   1      -9.272   2.080 131.064  0.00  0.00    +0.277 C 
ENDBRANCH   8  30
TORSDOF 8
ENDMDL
MODEL 4
REMARK VINA RESULT:      -6.6      2.333      3.691
REMARK  Name = NuBBE_1310
REMARK  14 active torsions:
REMARK  status: ('A' for Active; 'I' for Inactive)
REMARK    1  A    between atoms: O_1  and  C_2
REMARK    2  A    between atoms: C_4  and  O_5
REMARK    3  A    between atoms: O_5  and  C_6
REMARK    4  A    between atoms: C_7  and  O_8
REMARK    5  A    between atoms: O_8  and  C_9
REMARK    6  A    between atoms: C_13  and  O_14
REMARK    7  A    between atoms: O_14  and  C_15
REMARK    8  A    between atoms: C_16  and  C_17
REMARK    9  A    between atoms: C_19  and  O_20
REMARK   10  A    between atoms: O_20  and  C_21
REMARK   11  A    between atoms: C_22  and  O_23
REMARK   12  A    between atoms: O_23  and  C_24
REMARK   13  A    between atoms: C_25  and  O_26
REMARK   14  A    between atoms: O_26  and  C_27
REMARK                            x       y       z     vdW  Elec       q    Type
REMARK                         _______ _______ _______ _____ _____    ______ ____
ROOT
ATOM      1  C   LIG A   1      -9.973   5.377 132.473  0.00  0.00    +0.135 A 
ATOM      2  C   LIG A   1     -11.024   6.176 132.015  0.00  0.00    +0.095 A 
ATOM      3  C   LIG A   1     -10.886   6.951 130.851  0.00  0.00    +0.169 A 
ATOM      4  C   LIG A   1      -9.682   6.896 130.120  0.00  0.00    +0.205 A 
ATOM      5  C   LIG A   1      -8.640   6.064 130.585  0.00  0.00    +0.188 A 
ATOM      6  C   LIG A   1      -8.772   5.339 131.762  0.00  0.00    +0.113 A 
ATOM      7  C   LIG A   1      -7.587   4.581 132.206  0.00  0.00    +0.238 A 
ATOM      8  C   LIG A   1      -6.600   4.184 131.158  0.00  0.00    +0.211 A 
ATOM      9  C   LIG A   1      -6.597   4.945 130.039  0.00  0.00    +0.181 A 
ATOM     10  O   LIG A   1      -7.486   5.987 129.839  0.00  0.00    -0.447 OA
ATOM     11  O   LIG A   1      -7.395   4.338 133.412  0.00  0.00    -0.283 OA
ENDROOT
BRANCH   9  12
ATOM     12  C   LIG A   1      -5.682   4.774 128.905  0.00  0.00    +0.028 A 
ATOM     13  C   LIG A   1      -4.461   5.440 128.905  0.00  0.00    +0.061 A 
ATOM     14  C   LIG A   1      -3.476   5.145 127.947  0.00  0.00    +0.166 A 
ATOM     15  C   LIG A   1      -3.717   4.182 126.938  0.00  0.00    +0.203 A 
ATOM     16  C   LIG A   1      -4.965   3.527 126.915  0.00  0.00    +0.166 A 
ATOM     17  C   LIG A   1      -5.935   3.840 127.895  0.00  0.00    +0.061 A 
BRANCH  14  18
ATOM     18  O   LIG A   1      -2.255   5.788 127.934  0.00  0.00    -0.491 OA
ATOM     19  C   LIG A   1      -1.949   6.539 129.107  0.00  0.00    +0.277 C 
ENDBRANCH  14  18
BRANCH  15  20
ATOM     20  O   LIG A   1      -2.635   3.902 126.137  0.00  0.00    -0.488 OA
ATOM     21  C   LIG A   1      -1.677   2.929 126.531  0.00  0.00    +0.277 C 
ENDBRANCH  15  20
BRANCH  16  22
ATOM     22  O   LIG A   1      -5.163   2.494 126.030  0.00  0.00    -0.491 OA
ATOM     23  C   LIG A   1      -5.118   1.182 126.588  0.00  0.00    +0.277 C 
ENDBRANCH  16  22
ENDBRANCH   9  12
BRANCH   1  24
ATOM     24  O   LIG A   1     -10.155   4.615 133.591  0.00  0.00    -0.506 OA
ATOM     25  H   LIG A   1     -10.760   3.879 133.400  0.00  0.00    +0.292 HD
ENDBRANCH   1  24
BRANCH   3  26
ATOM     26  O   LIG A   1     -12.003   7.706 130.603  0.00  0.00    -0.491 OA
ATOM     27  C   LIG A   1     -13.135   7.135 129.959  0.00  0.00    +0.277 C 
ENDBRANCH   3  26
BRANCH   4  28
ATOM     28  O   LIG A   1      -9.614   7.593 128.942  0.00  0.00    -0.488 OA
ATOM     29  C   LIG A   1     -10.250   7.031 127.799  0.00  0.00    +0.277 C 
ENDBRANCH   4  28
BRANCH   8  30
ATOM     30  O   LIG A   1      -5.703   3.146 131.326  0.00  0.00    -0.488 OA
ATOM     31  C   LIG A   1      -6.255   1.844 131.163  0.00  0.00    +0.277 C 
ENDBRANCH   8  30
TORSDOF 8
ENDMDL
MODEL 5
REMARK VINA RESULT:      -6.5      0.973      2.432
REMARK  Name = NuBBE_1310
REMARK  14 active torsions:
REMARK  status: ('A' for Active; 'I' for Inactive)
REMARK    1  A    between atoms: O_1  and  C_2
REMARK    2  A    between atoms: C_4  and  O_5
REMARK    3  A    between atoms: O_5  and  C_6
REMARK    4  A    between atoms: C_7  and  O_8
REMARK    5  A    between atoms: O_8  and  C_9
REMARK    6  A    between atoms: C_13  and  O_14
REMARK    7  A    between atoms: O_14  and  C_15
REMARK    8  A    between atoms: C_16  and  C_17
REMARK    9  A    between atoms: C_19  and  O_20
REMARK   10  A    between atoms: O_20  and  C_21
REMARK   11  A    between atoms: C_22  and  O_23
REMARK   12  A    between atoms: O_23  and  C_24
REMARK   13  A    between atoms: C_25  and  O_26
REMARK   14  A    between atoms: O_26  and  C_27
REMARK                            x       y       z     vdW  Elec       q    Type
REMARK                         _______ _______ _______ _____ _____    ______ ____
ROOT
ATOM      1  C   LIG A   1     -10.540   6.429 131.776  0.00  0.00    +0.135 A 
ATOM      2  C   LIG A   1     -11.644   7.135 131.295  0.00  0.00    +0.095 A 
ATOM      3  C   LIG A   1     -11.914   7.201 129.917  0.00  0.00    +0.169 A 
ATOM      4  C   LIG A   1     -11.077   6.517 129.013  0.00  0.00    +0.205 A 
ATOM      5  C   LIG A   1      -9.979   5.787 129.521  0.00  0.00    +0.188 A 
ATOM      6  C   LIG A   1      -9.696   5.769 130.880  0.00  0.00    +0.113 A 
ATOM      7  C   LIG A   1      -8.469   5.059 131.289  0.00  0.00    +0.238 A 
ATOM      8  C   LIG A   1      -7.968   3.986 130.379  0.00  0.00    +0.211 A 
ATOM      9  C   LIG A   1      -8.347   4.093 129.084  0.00  0.00    +0.181 A 
ATOM     10  O   LIG A   1      -9.194   5.090 128.631  0.00  0.00    -0.447 OA
ATOM     11  O   LIG A   1      -7.852   5.385 132.320  0.00  0.00    -0.283 OA
ENDROOT
BRANCH   9  12
ATOM     12  C   LIG A   1      -7.934   3.188 128.006  0.00  0.00    +0.028 A 
ATOM     13  C   LIG A   1      -6.929   3.583 127.128  0.00  0.00    +0.061 A 
ATOM     14  C   LIG A   1      -6.364   2.673 126.219  0.00  0.00    +0.166 A 
ATOM     15  C   LIG A   1      -6.826   1.337 126.154  0.00  0.00    +0.203 A 
ATOM     16  C   LIG A   1      -7.866   0.941 127.020  0.00  0.00    +0.166 A 
ATOM     17  C   LIG A   1      -8.411   1.876 127.929  0.00  0.00    +0.061 A 
BRANCH  14  18
ATOM     18  O   LIG A   1      -5.362   3.043 125.345  0.00  0.00    -0.491 OA
ATOM     19  C   LIG A   1      -4.369   3.911 125.888  0.00  0.00    +0.277 C 
ENDBRANCH  14  18
BRANCH  15  20
ATOM     20  O   LIG A   1      -6.114   0.520 125.308  0.00  0.00    -0.488 OA
ATOM     21  C   LIG A   1      -6.702   0.032 124.110  0.00  0.00    +0.277 C 
ENDBRANCH  15  20
BRANCH  16  22
ATOM     22  O   LIG A   1      -8.229  -0.385 127.065  0.00  0.00    -0.491 OA
ATOM     23  C   LIG A   1      -7.565  -1.177 128.048  0.00  0.00    +0.277 C 
ENDBRANCH  16  22
ENDBRANCH   9  12
BRANCH   1  24
ATOM     24  O   LIG A   1     -10.327   6.363 133.123  0.00  0.00    -0.506 OA
ATOM     25  H   LIG A   1     -10.504   7.225 133.534  0.00  0.00    +0.292 HD
ENDBRANCH   1  24
BRANCH   3  26
ATOM     26  O   LIG A   1     -13.005   7.987 129.646  0.00  0.00    -0.491 OA
ATOM     27  C   LIG A   1     -12.855   9.383 129.427  0.00  0.00    +0.277 C 
ENDBRANCH   3  26
BRANCH   4  28
ATOM     28  O   LIG A   1     -11.420   6.526 127.687  0.00  0.00    -0.488 OA
ATOM     29  C   LIG A   1     -10.865   7.548 126.864  0.00  0.00    +0.277 C 
ENDBRANCH   4  28
BRANCH   8  30
ATOM     30  O   LIG A   1      -7.126   2.975 130.802  0.00  0.00    -0.488 OA
ATOM     31  C   LIG A   1      -5.739   3.296 130.769  0.00  0.00    +0.277 C 
ENDBRANCH   8  30
TORSDOF 8
ENDMDL
MODEL 6
REMARK VINA RESULT:      -6.4      4.383      7.399
REMARK  Name = NuBBE_1310
REMARK  14 active torsions:
REMARK  status: ('A' for Active; 'I' for Inactive)
REMARK    1  A    between atoms: O_1  and  C_2
REMARK    2  A    between atoms: C_4  and  O_5
REMARK    3  A    between atoms: O_5  and  C_6
REMARK    4  A    between atoms: C_7  and  O_8
REMARK    5  A    between atoms: O_8  and  C_9
REMARK    6  A    between atoms: C_13  and  O_14
REMARK    7  A    between atoms: O_14  and  C_15
REMARK    8  A    between atoms: C_16  and  C_17
REMARK    9  A    between atoms: C_19  and  O_20
REMARK   10  A    between atoms: O_20  and  C_21
REMARK   11  A    between atoms: C_22  and  O_23
REMARK   12  A    between atoms: O_23  and  C_24
REMARK   13  A    between atoms: C_25  and  O_26
REMARK   14  A    between atoms: O_26  and  C_27
REMARK                            x       y       z     vdW  Elec       q    Type
REMARK                         _______ _______ _______ _____ _____    ______ ____
ROOT
ATOM      1  C   LIG A   1      -8.285  -2.582 127.477  0.00  0.00    +0.135 A 
ATOM      2  C   LIG A   1      -8.852  -2.738 126.211  0.00  0.00    +0.095 A 
ATOM      3  C   LIG A   1      -8.924  -1.658 125.315  0.00  0.00    +0.169 A 
ATOM      4  C   LIG A   1      -8.386  -0.409 125.690  0.00  0.00    +0.205 A 
ATOM      5  C   LIG A   1      -7.795  -0.278 126.966  0.00  0.00    +0.188 A 
ATOM      6  C   LIG A   1      -7.773  -1.341 127.859  0.00  0.00    +0.113 A 
ATOM      7  C   LIG A   1      -7.220  -1.065 129.199  0.00  0.00    +0.238 A 
ATOM      8  C   LIG A   1      -6.254   0.067 129.317  0.00  0.00    +0.211 A 
ATOM      9  C   LIG A   1      -6.349   1.021 128.361  0.00  0.00    +0.181 A 
ATOM     10  O   LIG A   1      -7.237   0.934 127.302  0.00  0.00    -0.447 OA
ATOM     11  O   LIG A   1      -7.594  -1.714 130.194  0.00  0.00    -0.283 OA
ENDROOT
BRANCH   9  12
ATOM     12  C   LIG A   1      -5.541   2.244 128.305  0.00  0.00    +0.028 A 
ATOM     13  C   LIG A   1      -4.509   2.341 127.378  0.00  0.00    +0.061 A 
ATOM     14  C   LIG A   1      -3.852   3.562 127.152  0.00  0.00    +0.166 A 
ATOM     15  C   LIG A   1      -4.206   4.719 127.886  0.00  0.00    +0.203 A 
ATOM     16  C   LIG A   1      -5.232   4.618 128.849  0.00  0.00    +0.166 A 
ATOM     17  C   LIG A   1      -5.879   3.378 129.051  0.00  0.00    +0.061 A 
BRANCH  14  18
ATOM     18  O   LIG A   1      -2.830   3.681 126.232  0.00  0.00    -0.491 OA
ATOM     19  C   LIG A   1      -1.621   3.007 126.574  0.00  0.00    +0.277 C 
ENDBRANCH  14  18
BRANCH  15  20
ATOM     20  O   LIG A   1      -3.572   5.872 127.490  0.00  0.00    -0.488 OA
ATOM     21  C   LIG A   1      -2.498   6.405 128.254  0.00  0.00    +0.277 C 
ENDBRANCH  15  20
BRANCH  16  22
ATOM     22  O   LIG A   1      -5.681   5.760 129.470  0.00  0.00    -0.491 OA
ATOM     23  C   LIG A   1      -5.283   5.923 130.830  0.00  0.00    +0.277 C 
ENDBRANCH  16  22
ENDBRANCH   9  12
BRANCH   1  24
ATOM     24  O   LIG A   1      -8.206  -3.663 128.309  0.00  0.00    -0.506 OA
ATOM     25  H   LIG A   1      -9.062  -4.122 128.344  0.00  0.00    +0.292 HD
ENDBRANCH   1  24
BRANCH   3  26
ATOM     26  O   LIG A   1      -9.565  -1.998 124.152  0.00  0.00    -0.491 OA
ATOM     27  C   LIG A   1      -9.456  -3.313 123.623  0.00  0.00    +0.277 C 
ENDBRANCH   3  26
BRANCH   4  28
ATOM     28  O   LIG A   1      -8.392   0.597 124.760  0.00  0.00    -0.488 OA
ATOM     29  C   LIG A   1      -9.535   1.445 124.704  0.00  0.00    +0.277 C 
ENDBRANCH   4  28
BRANCH   8  30
ATOM     30  O   LIG A   1      -5.351   0.179 130.358  0.00  0.00    -0.488 OA
ATOM     31  C   LIG A   1      -4.197  -0.646 130.242  0.00  0.00    +0.277 C 
ENDBRANCH   8  30
TORSDOF 8
ENDMDL
MODEL 7
REMARK VINA RESULT:      -6.3      4.298      7.305
REMARK  Name = NuBBE_1310
REMARK  14 active torsions:
REMARK  status: ('A' for Active; 'I' for Inactive)
REMARK    1  A    between atoms: O_1  and  C_2
REMARK    2  A    between atoms: C_4  and  O_5
REMARK    3  A    between atoms: O_5  and  C_6
REMARK    4  A    between atoms: C_7  and  O_8
REMARK    5  A    between atoms: O_8  and  C_9
REMARK    6  A    between atoms: C_13  and  O_14
REMARK    7  A    between atoms: O_14  and  C_15
REMARK    8  A    between atoms: C_16  and  C_17
REMARK    9  A    between atoms: C_19  and  O_20
REMARK   10  A    between atoms: O_20  and  C_21
REMARK   11  A    between atoms: C_22  and  O_23
REMARK   12  A    between atoms: O_23  and  C_24
REMARK   13  A    between atoms: C_25  and  O_26
REMARK   14  A    between atoms: O_26  and  C_27
REMARK                            x       y       z     vdW  Elec       q    Type
REMARK                         _______ _______ _______ _____ _____    ______ ____
ROOT
ATOM      1  C   LIG A   1      -8.148  -2.627 127.804  0.00  0.00    +0.135 A 
ATOM      2  C   LIG A   1      -8.790  -2.974 126.614  0.00  0.00    +0.095 A 
ATOM      3  C   LIG A   1      -9.020  -2.015 125.612  0.00  0.00    +0.169 A 
ATOM      4  C   LIG A   1      -8.565  -0.694 125.800  0.00  0.00    +0.205 A 
ATOM      5  C   LIG A   1      -7.896  -0.368 127.000  0.00  0.00    +0.188 A 
ATOM      6  C   LIG A   1      -7.717  -1.314 128.001  0.00  0.00    +0.113 A 
ATOM      7  C   LIG A   1      -7.094  -0.840 129.252  0.00  0.00    +0.238 A 
ATOM      8  C   LIG A   1      -6.222   0.369 129.162  0.00  0.00    +0.211 A 
ATOM      9  C   LIG A   1      -6.467   1.193 128.117  0.00  0.00    +0.181 A 
ATOM     10  O   LIG A   1      -7.420   0.915 127.152  0.00  0.00    -0.447 OA
ATOM     11  O   LIG A   1      -7.337  -1.394 130.340  0.00  0.00    -0.283 OA
ENDROOT
BRANCH   9  12
ATOM     12  C   LIG A   1      -5.774   2.459 127.859  0.00  0.00    +0.028 A 
ATOM     13  C   LIG A   1      -6.076   3.575 128.633  0.00  0.00    +0.061 A 
ATOM     14  C   LIG A   1      -5.295   4.740 128.558  0.00  0.00    +0.166 A 
ATOM     15  C   LIG A   1      -4.197   4.817 127.668  0.00  0.00    +0.203 A 
ATOM     16  C   LIG A   1      -3.905   3.699 126.860  0.00  0.00    +0.166 A 
ATOM     17  C   LIG A   1      -4.705   2.538 126.960  0.00  0.00    +0.061 A 
BRANCH  14  18
ATOM     18  O   LIG A   1      -5.573   5.856 129.322  0.00  0.00    -0.491 OA
ATOM     19  C   LIG A   1      -5.564   5.646 130.733  0.00  0.00    +0.277 C 
ENDBRANCH  14  18
BRANCH  15  20
ATOM     20  O   LIG A   1      -3.446   5.963 127.775  0.00  0.00    -0.488 OA
ATOM     21  C   LIG A   1      -2.334   6.019 128.659  0.00  0.00    +0.277 C 
ENDBRANCH  15  20
BRANCH  16  22
ATOM     22  O   LIG A   1      -2.763   3.707 126.094  0.00  0.00    -0.491 OA
ATOM     23  C   LIG A   1      -1.659   2.975 126.621  0.00  0.00    +0.277 C 
ENDBRANCH  16  22
ENDBRANCH   9  12
BRANCH   1  24
ATOM     24  O   LIG A   1      -7.916  -3.592 128.741  0.00  0.00    -0.506 OA
ATOM     25  H   LIG A   1      -6.996  -3.547 129.050  0.00  0.00    +0.292 HD
ENDBRANCH   1  24
BRANCH   3  26
ATOM     26  O   LIG A   1      -9.712  -2.538 124.551  0.00  0.00    -0.491 OA
ATOM     27  C   LIG A   1      -9.023  -3.085 123.434  0.00  0.00    +0.277 C 
ENDBRANCH   3  26
BRANCH   4  28
ATOM     28  O   LIG A   1      -8.724   0.193 124.767  0.00  0.00    -0.488 OA
ATOM     29  C   LIG A   1      -9.890   1.010 124.766  0.00  0.00    +0.277 C 
ENDBRANCH   4  28
BRANCH   8  30
ATOM     30  O   LIG A   1      -5.258   0.671 130.107  0.00  0.00    -0.488 OA
ATOM     31  C   LIG A   1      -4.098  -0.153 130.066  0.00  0.00    +0.277 C 
ENDBRANCH   8  30
TORSDOF 8
ENDMDL
MODEL 8
REMARK VINA RESULT:      -6.2      1.811      3.668
REMARK  Name = NuBBE_1310
REMARK  14 active torsions:
REMARK  status: ('A' for Active; 'I' for Inactive)
REMARK    1  A    between atoms: O_1  and  C_2
REMARK    2  A    between atoms: C_4  and  O_5
REMARK    3  A    between atoms: O_5  and  C_6
REMARK    4  A    between atoms: C_7  and  O_8
REMARK    5  A    between atoms: O_8  and  C_9
REMARK    6  A    between atoms: C_13  and  O_14
REMARK    7  A    between atoms: O_14  and  C_15
REMARK    8  A    between atoms: C_16  and  C_17
REMARK    9  A    between atoms: C_19  and  O_20
REMARK   10  A    between atoms: O_20  and  C_21
REMARK   11  A    between atoms: C_22  and  O_23
REMARK   12  A    between atoms: O_23  and  C_24
REMARK   13  A    between atoms: C_25  and  O_26
REMARK   14  A    between atoms: O_26  and  C_27
REMARK                            x       y       z     vdW  Elec       q    Type
REMARK                         _______ _______ _______ _____ _____    ______ ____
ROOT
ATOM      1  C   LIG A   1      -7.215   5.199 131.177  0.00  0.00    +0.135 A 
ATOM      2  C   LIG A   1      -8.282   5.986 131.615  0.00  0.00    +0.095 A 
ATOM      3  C   LIG A   1      -9.389   6.227 130.783  0.00  0.00    +0.169 A 
ATOM      4  C   LIG A   1      -9.435   5.640 129.502  0.00  0.00    +0.205 A 
ATOM      5  C   LIG A   1      -8.357   4.827 129.087  0.00  0.00    +0.188 A 
ATOM      6  C   LIG A   1      -7.248   4.635 129.900  0.00  0.00    +0.113 A 
ATOM      7  C   LIG A   1      -6.138   3.850 129.327  0.00  0.00    +0.238 A 
ATOM      8  C   LIG A   1      -6.477   2.886 128.238  0.00  0.00    +0.211 A 
ATOM      9  C   LIG A   1      -7.605   3.160 127.543  0.00  0.00    +0.181 A 
ATOM     10  O   LIG A   1      -8.434   4.226 127.851  0.00  0.00    -0.447 OA
ATOM     11  O   LIG A   1      -4.964   4.031 129.700  0.00  0.00    -0.283 OA
ENDROOT
BRANCH   9  12
ATOM     12  C   LIG A   1      -8.104   2.386 126.402  0.00  0.00    +0.028 A 
ATOM     13  C   LIG A   1      -7.709   2.734 125.114  0.00  0.00    +0.061 A 
ATOM     14  C   LIG A   1      -7.994   1.900 124.020  0.00  0.00    +0.166 A 
ATOM     15  C   LIG A   1      -8.717   0.697 124.199  0.00  0.00    +0.203 A 
ATOM     16  C   LIG A   1      -9.145   0.355 125.498  0.00  0.00    +0.166 A 
ATOM     17  C   LIG A   1      -8.840   1.210 126.581  0.00  0.00    +0.061 A 
BRANCH  14  18
ATOM     18  O   LIG A   1      -7.606   2.224 122.735  0.00  0.00    -0.491 OA
ATOM     19  C   LIG A   1      -8.417   3.196 122.080  0.00  0.00    +0.277 C 
ENDBRANCH  14  18
BRANCH  15  20
ATOM     20  O   LIG A   1      -8.827  -0.084 123.072  0.00  0.00    -0.488 OA
ATOM     21  C   LIG A   1     -10.060  -0.170 122.371  0.00  0.00    +0.277 C 
ENDBRANCH  15  20
BRANCH  16  22
ATOM     22  O   LIG A   1      -9.726  -0.874 125.709  0.00  0.00    -0.491 OA
ATOM     23  C   LIG A   1      -8.832  -1.931 126.054  0.00  0.00    +0.277 C 
ENDBRANCH  16  22
ENDBRANCH   9  12
BRANCH   1  24
ATOM     24  O   LIG A   1      -6.171   4.962 132.024  0.00  0.00    -0.506 OA
ATOM     25  H   LIG A   1      -5.530   5.691 131.980  0.00  0.00    +0.292 HD
ENDBRANCH   1  24
BRANCH   3  26
ATOM     26  O   LIG A   1     -10.299   7.067 131.372  0.00  0.00    -0.491 OA
ATOM     27  C   LIG A   1     -11.527   6.562 131.880  0.00  0.00    +0.277 C 
ENDBRANCH   3  26
BRANCH   4  28
ATOM     28  O   LIG A   1     -10.568   5.821 128.753  0.00  0.00    -0.488 OA
ATOM     29  C   LIG A   1     -10.672   7.016 127.984  0.00  0.00    +0.277 C 
ENDBRANCH   4  28
BRANCH   8  30
ATOM     30  O   LIG A   1      -5.673   1.810 127.910  0.00  0.00    -0.488 OA
ATOM     31  C   LIG A   1      -4.595   2.112 127.030  0.00  0.00    +0.277 C 
ENDBRANCH   8  30
TORSDOF 8
ENDMDL
MODEL 9
REMARK VINA RESULT:      -6.2      2.769      4.759
REMARK  Name = NuBBE_1310
REMARK  14 active torsions:
REMARK  status: ('A' for Active; 'I' for Inactive)
REMARK    1  A    between atoms: O_1  and  C_2
REMARK    2  A    between atoms: C_4  and  O_5
REMARK    3  A    between atoms: O_5  and  C_6
REMARK    4  A    between atoms: C_7  and  O_8
REMARK    5  A    between atoms: O_8  and  C_9
REMARK    6  A    between atoms: C_13  and  O_14
REMARK    7  A    between atoms: O_14  and  C_15
REMARK    8  A    between atoms: C_16  and  C_17
REMARK    9  A    between atoms: C_19  and  O_20
REMARK   10  A    between atoms: O_20  and  C_21
REMARK   11  A    between atoms: C_22  and  O_23
REMARK   12  A    between atoms: O_23  and  C_24
REMARK   13  A    between atoms: C_25  and  O_26
REMARK   14  A    between atoms: O_26  and  C_27
REMARK                            x       y       z     vdW  Elec       q    Type
REMARK                         _______ _______ _______ _____ _____    ______ ____
ROOT
ATOM      1  C   LIG A   1      -6.498   5.290 130.042  0.00  0.00    +0.135 A 
ATOM      2  C   LIG A   1      -7.222   5.483 131.221  0.00  0.00    +0.095 A 
ATOM      3  C   LIG A   1      -8.451   4.833 131.427  0.00  0.00    +0.169 A 
ATOM      4  C   LIG A   1      -8.942   3.950 130.443  0.00  0.00    +0.205 A 
ATOM      5  C   LIG A   1      -8.184   3.750 129.269  0.00  0.00    +0.188 A 
ATOM      6  C   LIG A   1      -6.994   4.434 129.057  0.00  0.00    +0.113 A 
ATOM      7  C   LIG A   1      -6.336   4.224 127.753  0.00  0.00    +0.238 A 
ATOM      8  C   LIG A   1      -6.634   2.948 127.038  0.00  0.00    +0.211 A 
ATOM      9  C   LIG A   1      -7.806   2.354 127.362  0.00  0.00    +0.181 A 
ATOM     10  O   LIG A   1      -8.654   2.854 128.336  0.00  0.00    -0.447 OA
ATOM     11  O   LIG A   1      -5.611   5.103 127.251  0.00  0.00    -0.283 OA
ENDROOT
BRANCH   9  12
ATOM     12  C   LIG A   1      -8.329   1.127 126.752  0.00  0.00    +0.028 A 
ATOM     13  C   LIG A   1      -9.112   1.213 125.605  0.00  0.00    +0.061 A 
ATOM     14  C   LIG A   1      -9.457   0.062 124.877  0.00  0.00    +0.166 A 
ATOM     15  C   LIG A   1      -9.038  -1.219 125.311  0.00  0.00    +0.203 A 
ATOM     16  C   LIG A   1      -8.270  -1.313 126.489  0.00  0.00    +0.166 A 
ATOM     17  C   LIG A   1      -7.933  -0.138 127.198  0.00  0.00    +0.061 A 
BRANCH  14  18
ATOM     18  O   LIG A   1     -10.227   0.126 123.734  0.00  0.00    -0.491 OA
ATOM     19  C   LIG A   1      -9.775   1.048 122.744  0.00  0.00    +0.277 C 
ENDBRANCH  14  18
BRANCH  15  20
ATOM     20  O   LIG A   1      -9.340  -2.247 124.450  0.00  0.00    -0.488 OA
ATOM     21  C   LIG A   1      -8.390  -2.687 123.488  0.00  0.00    +0.277 C 
ENDBRANCH  15  20
BRANCH  16  22
ATOM     22  O   LIG A   1      -7.741  -2.531 126.847  0.00  0.00    -0.491 OA
ATOM     23  C   LIG A   1      -8.348  -3.165 127.971  0.00  0.00    +0.277 C 
ENDBRANCH  16  22
ENDBRANCH   9  12
BRANCH   1  24
ATOM     24  O   LIG A   1      -5.294   5.916 129.890  0.00  0.00    -0.506 OA
ATOM     25  H   LIG A   1      -4.600   5.264 129.697  0.00  0.00    +0.292 HD
ENDBRANCH   1  24
BRANCH   3  26
ATOM     26  O   LIG A   1      -9.029   5.196 132.615  0.00  0.00    -0.491 OA
ATOM     27  C   LIG A   1     -10.148   6.073 132.638  0.00  0.00    +0.277 C 
ENDBRANCH   3  26
BRANCH   4  28
ATOM     28  O   LIG A   1     -10.096   3.265 130.715  0.00  0.00    -0.488 OA
ATOM     29  C   LIG A   1     -10.004   2.108 131.542  0.00  0.00    +0.277 C 
ENDBRANCH   4  28
BRANCH   8  30
ATOM     30  O   LIG A   1      -5.805   2.421 126.065  0.00  0.00    -0.488 OA
ATOM     31  C   LIG A   1      -4.590   1.860 126.551  0.00  0.00    +0.277 C 
ENDBRANCH   8  30
TORSDOF 8
ENDMDL
