MODEL 1
REMARK VINA RESULT:      -7.6      0.000      0.000
REMARK  Name = NuBBE_1434
REMARK  3 active torsions:
REMARK  status: ('A' for Active; 'I' for Inactive)
REMARK    1  A    between atoms: N_8  and  C_9
REMARK    2  A    between atoms: C_17  and  C_18
REMARK    3  A    between atoms: C_17  and  C_19
REMARK                            x       y       z     vdW  Elec       q    Type
REMARK                         _______ _______ _______ _____ _____    ______ ____
ROOT
ATOM      1  O   LIG A   1      -8.631   3.489 122.485  0.00  0.00    -0.286 OA
ATOM      2  C   LIG A   1      -8.004   2.720 123.226  0.00  0.00    +0.200 A 
ATOM      3  C   LIG A   1      -6.910   3.155 124.032  0.00  0.00    +0.085 A 
ATOM      4  C   LIG A   1      -6.258   2.249 124.831  0.00  0.00    +0.212 A 
ATOM      5  O   LIG A   1      -5.255   2.862 125.515  0.00  0.00    -0.447 OA
ATOM      6  C   LIG A   1      -5.277   4.174 125.140  0.00  0.00    +0.198 A 
ATOM      7  C   LIG A   1      -6.282   4.403 124.226  0.00  0.00    +0.055 A 
ATOM      8  N   LIG A   1      -6.542   0.930 124.950  0.00  0.00    -0.311 N 
ATOM      9  C   LIG A   1      -5.731   0.118 125.858  0.00  0.00    +0.152 C 
ATOM     10  C   LIG A   1      -7.626   0.406 124.178  0.00  0.00    +0.098 A 
ATOM     11  C   LIG A   1      -8.357   1.278 123.322  0.00  0.00    +0.050 A 
ATOM     12  C   LIG A   1      -9.436   0.839 122.531  0.00  0.00    +0.014 A 
ATOM     13  C   LIG A   1      -9.832  -0.484 122.563  0.00  0.00    +0.012 A 
ATOM     14  C   LIG A   1      -9.156  -1.375 123.379  0.00  0.00    +0.019 A 
ATOM     15  C   LIG A   1      -8.067  -0.939 124.175  0.00  0.00    +0.153 A 
ATOM     16  O   LIG A   1      -7.403  -1.818 124.971  0.00  0.00    -0.479 OA
ATOM     17  C   LIG A   1      -7.815  -3.192 124.998  0.00  0.00    +0.124 C 
ATOM     18  C   LIG A   1      -8.318  -3.377 126.431  0.00  0.00    +0.060 C 
ATOM     19  C   LIG A   1      -6.619  -3.929 124.394  0.00  0.00    +0.060 C 
ATOM     20  C   LIG A   1      -8.975  -3.613 124.146  0.00  0.00    +0.020 C 
ATOM     21  C   LIG A   1      -9.621  -2.753 123.370  0.00  0.00    +0.011 C 
ENDROOT
TORSDOF 0
ENDMDL
MODEL 2
REMARK VINA RESULT:      -7.5      2.422      3.856
REMARK  Name = NuBBE_1434
REMARK  3 active torsions:
REMARK  status: ('A' for Active; 'I' for Inactive)
REMARK    1  A    between atoms: N_8  and  C_9
REMARK    2  A    between atoms: C_17  and  C_18
REMARK    3  A    between atoms: C_17  and  C_19
REMARK                            x       y       z     vdW  Elec       q    Type
REMARK                         _______ _______ _______ _____ _____    ______ ____
ROOT
ATOM      1  O   LIG A   1      -9.822  -0.876 122.864  0.00  0.00    -0.286 OA
ATOM      2  C   LIG A   1      -9.226  -0.382 123.830  0.00  0.00    +0.200 A 
ATOM      3  C   LIG A   1      -8.774   0.971 123.842  0.00  0.00    +0.085 A 
ATOM      4  C   LIG A   1      -8.119   1.455 124.946  0.00  0.00    +0.212 A 
ATOM      5  O   LIG A   1      -7.776   2.757 124.756  0.00  0.00    -0.447 OA
ATOM      6  C   LIG A   1      -8.223   3.097 123.512  0.00  0.00    +0.198 A 
ATOM      7  C   LIG A   1      -8.846   2.028 122.909  0.00  0.00    +0.055 A 
ATOM      8  N   LIG A   1      -7.836   0.769 126.078  0.00  0.00    -0.311 N 
ATOM      9  C   LIG A   1      -7.124   1.458 127.156  0.00  0.00    +0.152 C 
ATOM     10  C   LIG A   1      -8.253  -0.597 126.156  0.00  0.00    +0.098 A 
ATOM     11  C   LIG A   1      -8.941  -1.179 125.054  0.00  0.00    +0.050 A 
ATOM     12  C   LIG A   1      -9.384  -2.515 125.054  0.00  0.00    +0.014 A 
ATOM     13  C   LIG A   1      -9.163  -3.325 126.151  0.00  0.00    +0.012 A 
ATOM     14  C   LIG A   1      -8.500  -2.808 127.251  0.00  0.00    +0.019 A 
ATOM     15  C   LIG A   1      -8.049  -1.465 127.255  0.00  0.00    +0.153 A 
ATOM     16  O   LIG A   1      -7.394  -0.964 128.336  0.00  0.00    -0.479 OA
ATOM     17  C   LIG A   1      -7.163  -1.809 129.472  0.00  0.00    +0.124 C 
ATOM     18  C   LIG A   1      -7.999  -1.151 130.572  0.00  0.00    +0.060 C 
ATOM     19  C   LIG A   1      -5.640  -1.948 129.503  0.00  0.00    +0.060 C 
ATOM     20  C   LIG A   1      -7.661  -3.223 129.431  0.00  0.00    +0.020 C 
ATOM     21  C   LIG A   1      -8.300  -3.709 128.375  0.00  0.00    +0.011 C 
ENDROOT
TORSDOF 0
ENDMDL
MODEL 3
REMARK VINA RESULT:      -7.5      3.112      5.619
REMARK  Name = NuBBE_1434
REMARK  3 active torsions:
REMARK  status: ('A' for Active; 'I' for Inactive)
REMARK    1  A    between atoms: N_8  and  C_9
REMARK    2  A    between atoms: C_17  and  C_18
REMARK    3  A    between atoms: C_17  and  C_19
REMARK                            x       y       z     vdW  Elec       q    Type
REMARK                         _______ _______ _______ _____ _____    ______ ____
ROOT
ATOM      1  O   LIG A   1     -10.137  -2.909 125.415  0.00  0.00    -0.286 OA
ATOM      2  C   LIG A   1      -9.054  -2.366 125.671  0.00  0.00    +0.200 A 
ATOM      3  C   LIG A   1      -8.464  -1.391 124.812  0.00  0.00    +0.085 A 
ATOM      4  C   LIG A   1      -7.260  -0.829 125.155  0.00  0.00    +0.212 A 
ATOM      5  O   LIG A   1      -6.876   0.071 124.211  0.00  0.00    -0.447 OA
ATOM      6  C   LIG A   1      -7.854   0.075 123.260  0.00  0.00    +0.198 A 
ATOM      7  C   LIG A   1      -8.856  -0.811 123.587  0.00  0.00    +0.055 A 
ATOM      8  N   LIG A   1      -6.531  -1.103 126.263  0.00  0.00    -0.311 N 
ATOM      9  C   LIG A   1      -5.263  -0.399 126.459  0.00  0.00    +0.152 C 
ATOM     10  C   LIG A   1      -7.046  -2.069 127.183  0.00  0.00    +0.098 A 
ATOM     11  C   LIG A   1      -8.291  -2.702 126.903  0.00  0.00    +0.050 A 
ATOM     12  C   LIG A   1      -8.865  -3.662 127.758  0.00  0.00    +0.014 A 
ATOM     13  C   LIG A   1      -8.225  -4.029 128.926  0.00  0.00    +0.012 A 
ATOM     14  C   LIG A   1      -7.011  -3.444 129.246  0.00  0.00    +0.019 A 
ATOM     15  C   LIG A   1      -6.428  -2.479 128.388  0.00  0.00    +0.153 A 
ATOM     16  O   LIG A   1      -5.234  -1.912 128.704  0.00  0.00    -0.479 OA
ATOM     17  C   LIG A   1      -4.570  -2.299 129.916  0.00  0.00    +0.124 C 
ATOM     18  C   LIG A   1      -4.589  -1.016 130.749  0.00  0.00    +0.060 C 
ATOM     19  C   LIG A   1      -3.302  -2.993 129.415  0.00  0.00    +0.060 C 
ATOM     20  C   LIG A   1      -5.223  -3.319 130.800  0.00  0.00    +0.020 C 
ATOM     21  C   LIG A   1      -6.388  -3.871 130.489  0.00  0.00    +0.011 C 
ENDROOT
TORSDOF 0
ENDMDL
MODEL 4
REMARK VINA RESULT:      -7.3      2.839      5.206
REMARK  Name = NuBBE_1434
REMARK  3 active torsions:
REMARK  status: ('A' for Active; 'I' for Inactive)
REMARK    1  A    between atoms: N_8  and  C_9
REMARK    2  A    between atoms: C_17  and  C_18
REMARK    3  A    between atoms: C_17  and  C_19
REMARK                            x       y       z     vdW  Elec       q    Type
REMARK                         _______ _______ _______ _____ _____    ______ ____
ROOT
ATOM      1  O   LIG A   1      -7.352  -2.744 130.635  0.00  0.00    -0.286 OA
ATOM      2  C   LIG A   1      -7.009  -2.058 129.663  0.00  0.00    +0.200 A 
ATOM      3  C   LIG A   1      -6.074  -0.986 129.773  0.00  0.00    +0.085 A 
ATOM      4  C   LIG A   1      -5.738  -0.265 128.655  0.00  0.00    +0.212 A 
ATOM      5  O   LIG A   1      -4.838   0.703 128.973  0.00  0.00    -0.447 OA
ATOM      6  C   LIG A   1      -4.604   0.589 130.312  0.00  0.00    +0.198 A 
ATOM      7  C   LIG A   1      -5.345  -0.440 130.851  0.00  0.00    +0.055 A 
ATOM      8  N   LIG A   1      -6.211  -0.459 127.401  0.00  0.00    -0.311 N 
ATOM      9  C   LIG A   1      -5.734   0.416 126.329  0.00  0.00    +0.152 C 
ATOM     10  C   LIG A   1      -7.154  -1.515 127.196  0.00  0.00    +0.098 A 
ATOM     11  C   LIG A   1      -7.558  -2.313 128.304  0.00  0.00    +0.050 A 
ATOM     12  C   LIG A   1      -8.480  -3.370 128.184  0.00  0.00    +0.014 A 
ATOM     13  C   LIG A   1      -9.035  -3.676 126.957  0.00  0.00    +0.012 A 
ATOM     14  C   LIG A   1      -8.676  -2.932 125.845  0.00  0.00    +0.019 A 
ATOM     15  C   LIG A   1      -7.751  -1.865 125.961  0.00  0.00    +0.153 A 
ATOM     16  O   LIG A   1      -7.405  -1.134 124.869  0.00  0.00    -0.479 OA
ATOM     17  C   LIG A   1      -7.988  -1.453 123.596  0.00  0.00    +0.124 C 
ATOM     18  C   LIG A   1      -6.788  -1.925 122.773  0.00  0.00    +0.060 C 
ATOM     19  C   LIG A   1      -8.831  -0.217 123.277  0.00  0.00    +0.060 C 
ATOM     20  C   LIG A   1      -8.959  -2.593 123.514  0.00  0.00    +0.020 C 
ATOM     21  C   LIG A   1      -9.294  -3.304 124.582  0.00  0.00    +0.011 C 
ENDROOT
TORSDOF 0
ENDMDL
MODEL 5
REMARK VINA RESULT:      -7.1      1.536      5.526
REMARK  Name = NuBBE_1434
REMARK  3 active torsions:
REMARK  status: ('A' for Active; 'I' for Inactive)
REMARK    1  A    between atoms: N_8  and  C_9
REMARK    2  A    between atoms: C_17  and  C_18
REMARK    3  A    between atoms: C_17  and  C_19
REMARK                            x       y       z     vdW  Elec       q    Type
REMARK                         _______ _______ _______ _____ _____    ______ ____
ROOT
ATOM      1  O   LIG A   1     -10.026  -0.544 122.454  0.00  0.00    -0.286 OA
ATOM      2  C   LIG A   1      -9.161  -0.577 123.340  0.00  0.00    +0.200 A 
ATOM      3  C   LIG A   1      -8.733  -1.795 123.948  0.00  0.00    +0.085 A 
ATOM      4  C   LIG A   1      -7.770  -1.761 124.924  0.00  0.00    +0.212 A 
ATOM      5  O   LIG A   1      -7.506  -3.019 125.369  0.00  0.00    -0.447 OA
ATOM      6  C   LIG A   1      -8.315  -3.857 124.659  0.00  0.00    +0.198 A 
ATOM      7  C   LIG A   1      -9.092  -3.149 123.769  0.00  0.00    +0.055 A 
ATOM      8  N   LIG A   1      -7.149  -0.656 125.404  0.00  0.00    -0.311 N 
ATOM      9  C   LIG A   1      -6.142  -0.819 126.453  0.00  0.00    +0.152 C 
ATOM     10  C   LIG A   1      -7.515   0.611 124.850  0.00  0.00    +0.098 A 
ATOM     11  C   LIG A   1      -8.507   0.666 123.831  0.00  0.00    +0.050 A 
ATOM     12  C   LIG A   1      -8.921   1.873 123.237  0.00  0.00    +0.014 A 
ATOM     13  C   LIG A   1      -8.363   3.073 123.632  0.00  0.00    +0.012 A 
ATOM     14  C   LIG A   1      -7.392   3.077 124.619  0.00  0.00    +0.019 A 
ATOM     15  C   LIG A   1      -6.974   1.864 125.223  0.00  0.00    +0.153 A 
ATOM     16  O   LIG A   1      -6.025   1.874 126.195  0.00  0.00    -0.479 OA
ATOM     17  C   LIG A   1      -5.450   3.123 126.605  0.00  0.00    +0.124 C 
ATOM     18  C   LIG A   1      -3.987   2.991 126.176  0.00  0.00    +0.060 C 
ATOM     19  C   LIG A   1      -5.922   3.268 128.053  0.00  0.00    +0.060 C 
ATOM     20  C   LIG A   1      -5.915   4.383 125.938  0.00  0.00    +0.020 C 
ATOM     21  C   LIG A   1      -6.842   4.371 124.990  0.00  0.00    +0.011 C 
ENDROOT
TORSDOF 0
ENDMDL
MODEL 6
REMARK VINA RESULT:      -7.0      2.301      3.371
REMARK  Name = NuBBE_1434
REMARK  3 active torsions:
REMARK  status: ('A' for Active; 'I' for Inactive)
REMARK    1  A    between atoms: N_8  and  C_9
REMARK    2  A    between atoms: C_17  and  C_18
REMARK    3  A    between atoms: C_17  and  C_19
REMARK                            x       y       z     vdW  Elec       q    Type
REMARK                         _______ _______ _______ _____ _____    ______ ____
ROOT
ATOM      1  O   LIG A   1      -8.495   0.471 123.223  0.00  0.00    -0.286 OA
ATOM      2  C   LIG A   1      -7.859   0.524 124.283  0.00  0.00    +0.200 A 
ATOM      3  C   LIG A   1      -6.954   1.586 124.582  0.00  0.00    +0.085 A 
ATOM      4  C   LIG A   1      -6.280   1.583 125.777  0.00  0.00    +0.212 A 
ATOM      5  O   LIG A   1      -5.475   2.675 125.866  0.00  0.00    -0.447 OA
ATOM      6  C   LIG A   1      -5.647   3.377 124.709  0.00  0.00    +0.198 A 
ATOM      7  C   LIG A   1      -6.551   2.744 123.884  0.00  0.00    +0.055 A 
ATOM      8  N   LIG A   1      -6.374   0.646 126.752  0.00  0.00    -0.311 N 
ATOM      9  C   LIG A   1      -5.572   0.814 127.964  0.00  0.00    +0.152 C 
ATOM     10  C   LIG A   1      -7.260  -0.456 126.538  0.00  0.00    +0.098 A 
ATOM     11  C   LIG A   1      -8.000  -0.530 125.324  0.00  0.00    +0.050 A 
ATOM     12  C   LIG A   1      -8.891  -1.582 125.039  0.00  0.00    +0.014 A 
ATOM     13  C   LIG A   1      -9.084  -2.600 125.952  0.00  0.00    +0.012 A 
ATOM     14  C   LIG A   1      -8.390  -2.577 127.151  0.00  0.00    +0.019 A 
ATOM     15  C   LIG A   1      -7.489  -1.522 127.441  0.00  0.00    +0.153 A 
ATOM     16  O   LIG A   1      -6.807  -1.505 128.616  0.00  0.00    -0.479 OA
ATOM     17  C   LIG A   1      -7.007  -2.567 129.560  0.00  0.00    +0.124 C 
ATOM     18  C   LIG A   1      -7.654  -1.857 130.751  0.00  0.00    +0.060 C 
ATOM     19  C   LIG A   1      -5.646  -3.265 129.597  0.00  0.00    +0.060 C 
ATOM     20  C   LIG A   1      -7.973  -3.662 129.218  0.00  0.00    +0.020 C 
ATOM     21  C   LIG A   1      -8.638  -3.676 128.070  0.00  0.00    +0.011 C 
ENDROOT
TORSDOF 0
ENDMDL
MODEL 7
REMARK VINA RESULT:      -7.0      7.131      8.681
REMARK  Name = NuBBE_1434
REMARK  3 active torsions:
REMARK  status: ('A' for Active; 'I' for Inactive)
REMARK    1  A    between atoms: N_8  and  C_9
REMARK    2  A    between atoms: C_17  and  C_18
REMARK    3  A    between atoms: C_17  and  C_19
REMARK                            x       y       z     vdW  Elec       q    Type
REMARK                         _______ _______ _______ _____ _____    ______ ____
ROOT
ATOM      1  O   LIG A   1     -10.864   6.713 132.577  0.00  0.00    -0.286 OA
ATOM      2  C   LIG A   1     -10.217   6.101 131.716  0.00  0.00    +0.200 A 
ATOM      3  C   LIG A   1     -10.236   6.469 130.338  0.00  0.00    +0.085 A 
ATOM      4  C   LIG A   1      -9.495   5.748 129.436  0.00  0.00    +0.212 A 
ATOM      5  O   LIG A   1      -9.650   6.259 128.185  0.00  0.00    -0.447 OA
ATOM      6  C   LIG A   1     -10.501   7.319 128.303  0.00  0.00    +0.198 A 
ATOM      7  C   LIG A   1     -10.890   7.489 129.613  0.00  0.00    +0.055 A 
ATOM      8  N   LIG A   1      -8.712   4.678 129.711  0.00  0.00    -0.311 N 
ATOM      9  C   LIG A   1      -7.994   4.034 128.610  0.00  0.00    +0.152 C 
ATOM     10  C   LIG A   1      -8.631   4.238 131.069  0.00  0.00    +0.098 A 
ATOM     11  C   LIG A   1      -9.369   4.931 132.071  0.00  0.00    +0.050 A 
ATOM     12  C   LIG A   1      -9.341   4.561 133.429  0.00  0.00    +0.014 A 
ATOM     13  C   LIG A   1      -8.578   3.488 133.845  0.00  0.00    +0.012 A 
ATOM     14  C   LIG A   1      -7.839   2.779 132.912  0.00  0.00    +0.019 A 
ATOM     15  C   LIG A   1      -7.866   3.146 131.543  0.00  0.00    +0.153 A 
ATOM     16  O   LIG A   1      -7.144   2.444 130.630  0.00  0.00    -0.479 OA
ATOM     17  C   LIG A   1      -6.354   1.328 131.066  0.00  0.00    +0.124 C 
ATOM     18  C   LIG A   1      -4.921   1.784 130.787  0.00  0.00    +0.060 C 
ATOM     19  C   LIG A   1      -7.034   0.134 130.393  0.00  0.00    +0.060 C 
ATOM     20  C   LIG A   1      -6.349   0.975 132.523  0.00  0.00    +0.020 C 
ATOM     21  C   LIG A   1      -7.055   1.661 133.412  0.00  0.00    +0.011 C 
ENDROOT
TORSDOF 0
ENDMDL
MODEL 8
REMARK VINA RESULT:      -7.0      3.076      5.486
REMARK  Name = NuBBE_1434
REMARK  3 active torsions:
REMARK  status: ('A' for Active; 'I' for Inactive)
REMARK    1  A    between atoms: N_8  and  C_9
REMARK    2  A    between atoms: C_17  and  C_18
REMARK    3  A    between atoms: C_17  and  C_19
REMARK                            x       y       z     vdW  Elec       q    Type
REMARK                         _______ _______ _______ _____ _____    ______ ____
ROOT
ATOM      1  O   LIG A   1      -8.089  -3.622 129.747  0.00  0.00    -0.286 OA
ATOM      2  C   LIG A   1      -8.009  -2.520 129.189  0.00  0.00    +0.200 A 
ATOM      3  C   LIG A   1      -7.695  -1.323 129.899  0.00  0.00    +0.085 A 
ATOM      4  C   LIG A   1      -7.621  -0.133 129.219  0.00  0.00    +0.212 A 
ATOM      5  O   LIG A   1      -7.311   0.879 130.073  0.00  0.00    -0.447 OA
ATOM      6  C   LIG A   1      -7.186   0.316 131.309  0.00  0.00    +0.198 A 
ATOM      7  C   LIG A   1      -7.414  -1.041 131.253  0.00  0.00    +0.055 A 
ATOM      8  N   LIG A   1      -7.823   0.048 127.891  0.00  0.00    -0.311 N 
ATOM      9  C   LIG A   1      -7.701   1.399 127.343  0.00  0.00    +0.152 C 
ATOM     10  C   LIG A   1      -8.141  -1.099 127.099  0.00  0.00    +0.098 A 
ATOM     11  C   LIG A   1      -8.237  -2.374 127.726  0.00  0.00    +0.050 A 
ATOM     12  C   LIG A   1      -8.545  -3.550 127.016  0.00  0.00    +0.014 A 
ATOM     13  C   LIG A   1      -8.769  -3.504 125.654  0.00  0.00    +0.012 A 
ATOM     14  C   LIG A   1      -8.687  -2.290 124.993  0.00  0.00    +0.019 A 
ATOM     15  C   LIG A   1      -8.380  -1.103 125.704  0.00  0.00    +0.153 A 
ATOM     16  O   LIG A   1      -8.306   0.087 125.053  0.00  0.00    -0.479 OA
ATOM     17  C   LIG A   1      -8.543   0.131 123.638  0.00  0.00    +0.124 C 
ATOM     18  C   LIG A   1      -7.185   0.550 123.070  0.00  0.00    +0.060 C 
ATOM     19  C   LIG A   1      -9.826   0.954 123.522  0.00  0.00    +0.060 C 
ATOM     20  C   LIG A   1      -8.860  -1.148 122.922  0.00  0.00    +0.020 C 
ATOM     21  C   LIG A   1      -8.931  -2.308 123.560  0.00  0.00    +0.011 C 
ENDROOT
TORSDOF 0
ENDMDL
MODEL 9
REMARK VINA RESULT:      -6.8      1.948      5.804
REMARK  Name = NuBBE_1434
REMARK  3 active torsions:
REMARK  status: ('A' for Active; 'I' for Inactive)
REMARK    1  A    between atoms: N_8  and  C_9
REMARK    2  A    between atoms: C_17  and  C_18
REMARK    3  A    between atoms: C_17  and  C_19
REMARK                            x       y       z     vdW  Elec       q    Type
REMARK                         _______ _______ _______ _____ _____    ______ ____
ROOT
ATOM      1  O   LIG A   1      -8.296  -3.937 125.073  0.00  0.00    -0.286 OA
ATOM      2  C   LIG A   1      -8.090  -2.913 125.738  0.00  0.00    +0.200 A 
ATOM      3  C   LIG A   1      -8.160  -2.897 127.163  0.00  0.00    +0.085 A 
ATOM      4  C   LIG A   1      -7.920  -1.727 127.838  0.00  0.00    +0.212 A 
ATOM      5  O   LIG A   1      -8.035  -1.926 129.179  0.00  0.00    -0.447 OA
ATOM      6  C   LIG A   1      -8.351  -3.242 129.348  0.00  0.00    +0.198 A 
ATOM      7  C   LIG A   1      -8.440  -3.884 128.133  0.00  0.00    +0.055 A 
ATOM      8  N   LIG A   1      -7.611  -0.529 127.287  0.00  0.00    -0.311 N 
ATOM      9  C   LIG A   1      -7.388   0.613 128.175  0.00  0.00    +0.152 C 
ATOM     10  C   LIG A   1      -7.517  -0.451 125.862  0.00  0.00    +0.098 A 
ATOM     11  C   LIG A   1      -7.751  -1.620 125.084  0.00  0.00    +0.050 A 
ATOM     12  C   LIG A   1      -7.677  -1.625 123.678  0.00  0.00    +0.014 A 
ATOM     13  C   LIG A   1      -7.366  -0.468 122.991  0.00  0.00    +0.012 A 
ATOM     14  C   LIG A   1      -7.127   0.698 123.699  0.00  0.00    +0.019 A 
ATOM     15  C   LIG A   1      -7.203   0.709 125.115  0.00  0.00    +0.153 A 
ATOM     16  O   LIG A   1      -6.973   1.856 125.805  0.00  0.00    -0.479 OA
ATOM     17  C   LIG A   1      -6.654   3.057 125.088  0.00  0.00    +0.124 C 
ATOM     18  C   LIG A   1      -5.217   3.352 125.524  0.00  0.00    +0.060 C 
ATOM     19  C   LIG A   1      -7.852   3.964 125.370  0.00  0.00    +0.060 C 
ATOM     20  C   LIG A   1      -6.578   3.003 123.591  0.00  0.00    +0.020 C 
ATOM     21  C   LIG A   1      -6.802   1.881 122.920  0.00  0.00    +0.011 C 
ENDROOT
TORSDOF 0
ENDMDL
