MODEL 1
REMARK VINA RESULT:      -8.2      0.000      0.000
REMARK  Name = NuBBE_685
REMARK  12 active torsions:
REMARK  status: ('A' for Active; 'I' for Inactive)
REMARK    1  A    between atoms: C_3  and  C_5
REMARK    2  A    between atoms: C_5  and  C_6
REMARK    3  A    between atoms: C_6  and  C_8
REMARK    4  A    between atoms: C_6  and  C_9
REMARK    5  A    between atoms: C_9  and  O_11
REMARK    6  A    between atoms: C_9  and  C_12
REMARK    7  A    between atoms: C_15  and  C_35
REMARK    8  A    between atoms: C_21  and  C_22
REMARK    9  A    between atoms: C_23  and  C_24
REMARK   10  A    between atoms: C_24  and  C_26
REMARK   11  A    between atoms: C_24  and  C_27
REMARK   12  A    between atoms: C_27  and  C_30
REMARK                            x       y       z     vdW  Elec       q    Type
REMARK                         _______ _______ _______ _____ _____    ______ ____
ROOT
ATOM      1  O   LIG A   1      -0.807   6.278 132.048  0.00  0.00    -0.250 OA
ATOM      2  C   LIG A   1      -2.004   6.114 132.273  0.00  0.00    +0.319 C 
ATOM      3  C   LIG A   1      -3.120   6.462 131.323  0.00  0.00    +0.176 C 
ATOM      4  O   LIG A   1      -2.491   5.578 133.441  0.00  0.00    -0.449 OA
ATOM      5  C   LIG A   1      -3.882   5.330 133.276  0.00  0.00    +0.181 C 
ATOM      6  C   LIG A   1      -4.273   6.450 132.325  0.00  0.00    +0.095 C 
ATOM      7  C   LIG A   1      -5.724   6.468 131.960  0.00  0.00    +0.005 C 
ATOM      8  C   LIG A   1      -6.203   7.000 130.825  0.00  0.00    +0.200 C 
ATOM      9  O   LIG A   1      -7.538   7.062 130.501  0.00  0.00    -0.463 OA
ATOM     10  C   LIG A   1      -8.467   6.491 131.368  0.00  0.00    +0.128 C 
ATOM     11  C   LIG A   1      -8.109   5.955 132.552  0.00  0.00    +0.056 C 
ATOM     12  C   LIG A   1      -6.696   5.966 132.955  0.00  0.00    +0.007 C 
ATOM     13  C   LIG A   1      -6.279   5.545 134.173  0.00  0.00    +0.095 C 
ATOM     14 CL   LIG A   1      -7.327   4.987 135.430  0.00  0.00    -0.079 Cl
ATOM     15  C   LIG A   1      -4.018   3.863 132.841  0.00  0.00    +0.065 C 
ATOM     16  C   LIG A   1      -4.804   5.500 134.491  0.00  0.00    +0.218 C 
ATOM     17  O   LIG A   1      -4.383   5.559 135.646  0.00  0.00    -0.287 OA
ENDROOT
BRANCH   3  18
ATOM     18  C   LIG A   1      -3.217   5.503 130.147  0.00  0.00    +0.153 C 
ATOM     19  O   LIG A   1      -3.060   4.288 130.296  0.00  0.00    -0.296 OA
BRANCH  18  20
ATOM     20  C   LIG A   1      -3.539   6.070 128.765  0.00  0.00    +0.081 C 
ATOM     21  C   LIG A   1      -2.274   6.739 128.227  0.00  0.00    +0.018 C 
BRANCH  20  22
ATOM     22  C   LIG A   1      -4.038   4.936 127.856  0.00  0.00    +0.121 C 
ATOM     23  C   LIG A   1      -2.937   4.357 126.971  0.00  0.00    +0.038 C 
BRANCH  22  24
ATOM     24  O   LIG A   1      -5.055   5.469 127.000  0.00  0.00    -0.391 OA
ATOM     25  H   LIG A   1      -4.843   5.176 126.094  0.00  0.00    +0.210 HD
ENDBRANCH  22  24
ENDBRANCH  20  22
ENDBRANCH  18  20
ENDBRANCH   3  18
BRANCH  10  26
ATOM     26  C   LIG A   1      -9.836   6.523 130.892  0.00  0.00    +0.042 C 
ATOM     27  C   LIG A   1     -10.298   7.383 129.968  0.00  0.00    -0.020 C 
BRANCH  27  28
ATOM     28  C   LIG A   1     -11.730   7.440 129.492  0.00  0.00    +0.008 C 
ATOM     29  C   LIG A   1     -12.657   7.387 130.708  0.00  0.00    +0.012 C 
BRANCH  28  30
ATOM     30  C   LIG A   1     -11.944   8.706 128.639  0.00  0.00    +0.004 C 
ATOM     31  C   LIG A   1     -13.038   9.626 129.166  0.00  0.00    +0.004 C 
ENDBRANCH  28  30
ENDBRANCH  27  28
ENDBRANCH  10  26
TORSDOF 7
ENDMDL
MODEL 2
REMARK VINA RESULT:      -8.1      6.935     10.724
REMARK  Name = NuBBE_685
REMARK  12 active torsions:
REMARK  status: ('A' for Active; 'I' for Inactive)
REMARK    1  A    between atoms: C_3  and  C_5
REMARK    2  A    between atoms: C_5  and  C_6
REMARK    3  A    between atoms: C_6  and  C_8
REMARK    4  A    between atoms: C_6  and  C_9
REMARK    5  A    between atoms: C_9  and  O_11
REMARK    6  A    between atoms: C_9  and  C_12
REMARK    7  A    between atoms: C_15  and  C_35
REMARK    8  A    between atoms: C_21  and  C_22
REMARK    9  A    between atoms: C_23  and  C_24
REMARK   10  A    between atoms: C_24  and  C_26
REMARK   11  A    between atoms: C_24  and  C_27
REMARK   12  A    between atoms: C_27  and  C_30
REMARK                            x       y       z     vdW  Elec       q    Type
REMARK                         _______ _______ _______ _____ _____    ______ ____
ROOT
ATOM      1  O   LIG A   1      -8.736   3.646 121.761  0.00  0.00    -0.250 OA
ATOM      2  C   LIG A   1      -8.593   2.697 122.529  0.00  0.00    +0.319 C 
ATOM      3  C   LIG A   1      -7.534   2.597 123.595  0.00  0.00    +0.176 C 
ATOM      4  O   LIG A   1      -9.399   1.584 122.518  0.00  0.00    -0.449 OA
ATOM      5  C   LIG A   1      -9.096   0.799 123.666  0.00  0.00    +0.181 C 
ATOM      6  C   LIG A   1      -7.615   1.092 123.844  0.00  0.00    +0.095 C 
ATOM      7  C   LIG A   1      -6.983   0.380 124.998  0.00  0.00    +0.005 C 
ATOM      8  C   LIG A   1      -5.889   0.820 125.640  0.00  0.00    +0.200 C 
ATOM      9  O   LIG A   1      -5.274   0.150 126.672  0.00  0.00    -0.463 OA
ATOM     10  C   LIG A   1      -5.839  -1.036 127.134  0.00  0.00    +0.128 C 
ATOM     11  C   LIG A   1      -6.918  -1.592 126.550  0.00  0.00    +0.056 C 
ATOM     12  C   LIG A   1      -7.531  -0.938 125.386  0.00  0.00    +0.007 C 
ATOM     13  C   LIG A   1      -8.548  -1.494 124.684  0.00  0.00    +0.095 C 
ATOM     14 CL   LIG A   1      -9.232  -3.047 125.013  0.00  0.00    -0.079 Cl
ATOM     15  C   LIG A   1     -10.102   1.207 124.754  0.00  0.00    +0.065 C 
ATOM     16  C   LIG A   1      -9.190  -0.729 123.552  0.00  0.00    +0.218 C 
ATOM     17  O   LIG A   1      -9.775  -1.295 122.630  0.00  0.00    -0.287 OA
ENDROOT
BRANCH   3  18
ATOM     18  C   LIG A   1      -7.802   3.508 124.783  0.00  0.00    +0.153 C 
ATOM     19  O   LIG A   1      -8.935   3.933 125.023  0.00  0.00    -0.296 OA
BRANCH  18  20
ATOM     20  C   LIG A   1      -6.636   3.876 125.700  0.00  0.00    +0.081 C 
ATOM     21  C   LIG A   1      -5.984   5.142 125.144  0.00  0.00    +0.018 C 
BRANCH  20  22
ATOM     22  C   LIG A   1      -7.158   4.061 127.133  0.00  0.00    +0.121 C 
ATOM     23  C   LIG A   1      -6.048   4.000 128.180  0.00  0.00    +0.038 C 
BRANCH  22  24
ATOM     24  O   LIG A   1      -8.082   3.003 127.410  0.00  0.00    -0.391 OA
ATOM     25  H   LIG A   1      -8.342   2.622 126.551  0.00  0.00    +0.210 HD
ENDBRANCH  22  24
ENDBRANCH  20  22
ENDBRANCH  18  20
ENDBRANCH   3  18
BRANCH  10  26
ATOM     26  C   LIG A   1      -5.172  -1.613 128.285  0.00  0.00    +0.042 C 
ATOM     27  C   LIG A   1      -4.811  -2.905 128.383  0.00  0.00    -0.020 C 
BRANCH  27  28
ATOM     28  C   LIG A   1      -4.145  -3.517 129.593  0.00  0.00    +0.008 C 
ATOM     29  C   LIG A   1      -3.587  -2.396 130.471  0.00  0.00    +0.012 C 
BRANCH  28  30
ATOM     30  C   LIG A   1      -5.152  -4.412 130.343  0.00  0.00    +0.004 C 
ATOM     31  C   LIG A   1      -6.181  -3.634 131.152  0.00  0.00    +0.004 C 
ENDBRANCH  28  30
ENDBRANCH  27  28
ENDBRANCH  10  26
TORSDOF 7
ENDMDL
MODEL 3
REMARK VINA RESULT:      -8.1      2.885      7.554
REMARK  Name = NuBBE_685
REMARK  12 active torsions:
REMARK  status: ('A' for Active; 'I' for Inactive)
REMARK    1  A    between atoms: C_3  and  C_5
REMARK    2  A    between atoms: C_5  and  C_6
REMARK    3  A    between atoms: C_6  and  C_8
REMARK    4  A    between atoms: C_6  and  C_9
REMARK    5  A    between atoms: C_9  and  O_11
REMARK    6  A    between atoms: C_9  and  C_12
REMARK    7  A    between atoms: C_15  and  C_35
REMARK    8  A    between atoms: C_21  and  C_22
REMARK    9  A    between atoms: C_23  and  C_24
REMARK   10  A    between atoms: C_24  and  C_26
REMARK   11  A    between atoms: C_24  and  C_27
REMARK   12  A    between atoms: C_27  and  C_30
REMARK                            x       y       z     vdW  Elec       q    Type
REMARK                         _______ _______ _______ _____ _____    ______ ____
ROOT
ATOM      1  O   LIG A   1     -11.215   3.528 130.220  0.00  0.00    -0.250 OA
ATOM      2  C   LIG A   1     -10.198   3.651 130.900  0.00  0.00    +0.319 C 
ATOM      3  C   LIG A   1      -9.225   4.797 130.804  0.00  0.00    +0.176 C 
ATOM      4  O   LIG A   1      -9.811   2.745 131.858  0.00  0.00    -0.449 OA
ATOM      5  C   LIG A   1      -8.728   3.303 132.592  0.00  0.00    +0.181 C 
ATOM      6  C   LIG A   1      -8.047   4.145 131.525  0.00  0.00    +0.095 C 
ATOM      7  C   LIG A   1      -6.827   4.870 132.000  0.00  0.00    +0.005 C 
ATOM      8  C   LIG A   1      -6.363   5.999 131.440  0.00  0.00    +0.200 C 
ATOM      9  O   LIG A   1      -5.218   6.647 131.840  0.00  0.00    -0.463 OA
ATOM     10  C   LIG A   1      -4.509   6.149 132.931  0.00  0.00    +0.128 C 
ATOM     11  C   LIG A   1      -4.861   5.007 133.554  0.00  0.00    +0.056 C 
ATOM     12  C   LIG A   1      -6.028   4.251 133.079  0.00  0.00    +0.007 C 
ATOM     13  C   LIG A   1      -6.373   3.043 133.586  0.00  0.00    +0.095 C 
ATOM     14 CL   LIG A   1      -5.487   2.202 134.809  0.00  0.00    -0.079 Cl
ATOM     15  C   LIG A   1      -9.338   3.973 133.834  0.00  0.00    +0.065 C 
ATOM     16  C   LIG A   1      -7.634   2.360 133.113  0.00  0.00    +0.218 C 
ATOM     17  O   LIG A   1      -7.780   1.140 133.179  0.00  0.00    -0.287 OA
ENDROOT
BRANCH   3  18
ATOM     18  C   LIG A   1      -9.770   6.087 131.398  0.00  0.00    +0.153 C 
ATOM     19  O   LIG A   1      -9.596   6.369 132.587  0.00  0.00    -0.296 OA
BRANCH  18  20
ATOM     20  C   LIG A   1     -10.525   7.051 130.485  0.00  0.00    +0.081 C 
ATOM     21  C   LIG A   1     -10.052   6.806 129.051  0.00  0.00    +0.018 C 
BRANCH  20  22
ATOM     22  C   LIG A   1     -12.036   6.829 130.653  0.00  0.00    +0.121 C 
ATOM     23  C   LIG A   1     -12.825   8.136 130.695  0.00  0.00    +0.038 C 
BRANCH  22  24
ATOM     24  O   LIG A   1     -12.250   6.148 131.894  0.00  0.00    -0.391 OA
ATOM     25  H   LIG A   1     -12.856   6.701 132.420  0.00  0.00    +0.210 HD
ENDBRANCH  22  24
ENDBRANCH  20  22
ENDBRANCH  18  20
ENDBRANCH   3  18
BRANCH  10  26
ATOM     26  C   LIG A   1      -3.374   6.956 133.333  0.00  0.00    +0.042 C 
ATOM     27  C   LIG A   1      -2.773   7.864 132.545  0.00  0.00    -0.020 C 
BRANCH  27  28
ATOM     28  C   LIG A   1      -1.570   8.685 132.949  0.00  0.00    +0.008 C 
ATOM     29  C   LIG A   1      -1.879   9.400 134.265  0.00  0.00    +0.012 C 
BRANCH  28  30
ATOM     30  C   LIG A   1      -0.329   7.774 133.047  0.00  0.00    +0.004 C 
ATOM     31  C   LIG A   1       0.307   7.749 134.429  0.00  0.00    +0.004 C 
ENDBRANCH  28  30
ENDBRANCH  27  28
ENDBRANCH  10  26
TORSDOF 7
ENDMDL
MODEL 4
REMARK VINA RESULT:      -7.8      6.301      9.955
REMARK  Name = NuBBE_685
REMARK  12 active torsions:
REMARK  status: ('A' for Active; 'I' for Inactive)
REMARK    1  A    between atoms: C_3  and  C_5
REMARK    2  A    between atoms: C_5  and  C_6
REMARK    3  A    between atoms: C_6  and  C_8
REMARK    4  A    between atoms: C_6  and  C_9
REMARK    5  A    between atoms: C_9  and  O_11
REMARK    6  A    between atoms: C_9  and  C_12
REMARK    7  A    between atoms: C_15  and  C_35
REMARK    8  A    between atoms: C_21  and  C_22
REMARK    9  A    between atoms: C_23  and  C_24
REMARK   10  A    between atoms: C_24  and  C_26
REMARK   11  A    between atoms: C_24  and  C_27
REMARK   12  A    between atoms: C_27  and  C_30
REMARK                            x       y       z     vdW  Elec       q    Type
REMARK                         _______ _______ _______ _____ _____    ______ ____
ROOT
ATOM      1  O   LIG A   1      -9.861  -2.413 125.819  0.00  0.00    -0.250 OA
ATOM      2  C   LIG A   1      -9.052  -1.504 125.643  0.00  0.00    +0.319 C 
ATOM      3  C   LIG A   1      -8.107  -0.971 126.689  0.00  0.00    +0.176 C 
ATOM      4  O   LIG A   1      -8.898  -0.847 124.447  0.00  0.00    -0.449 OA
ATOM      5  C   LIG A   1      -7.742  -0.022 124.534  0.00  0.00    +0.181 C 
ATOM      6  C   LIG A   1      -7.751   0.350 126.008  0.00  0.00    +0.095 C 
ATOM      7  C   LIG A   1      -6.630   1.250 126.421  0.00  0.00    +0.005 C 
ATOM      8  C   LIG A   1      -6.147   1.316 127.672  0.00  0.00    +0.200 C 
ATOM      9  O   LIG A   1      -5.148   2.173 128.073  0.00  0.00    -0.463 OA
ATOM     10  C   LIG A   1      -4.547   2.995 127.122  0.00  0.00    +0.128 C 
ATOM     11  C   LIG A   1      -4.967   3.039 125.842  0.00  0.00    +0.056 C 
ATOM     12  C   LIG A   1      -6.096   2.199 125.420  0.00  0.00    +0.007 C 
ATOM     13  C   LIG A   1      -6.640   2.272 124.182  0.00  0.00    +0.095 C 
ATOM     14 CL   LIG A   1      -6.133   3.375 122.951  0.00  0.00    -0.079 Cl
ATOM     15  C   LIG A   1      -6.577  -0.836 123.948  0.00  0.00    +0.065 C 
ATOM     16  C   LIG A   1      -7.742   1.318 123.785  0.00  0.00    +0.218 C 
ATOM     17  O   LIG A   1      -8.552   1.589 122.900  0.00  0.00    -0.287 OA
ENDROOT
BRANCH   3  18
ATOM     18  C   LIG A   1      -6.961  -1.923 126.991  0.00  0.00    +0.153 C 
ATOM     19  O   LIG A   1      -6.245  -2.372 126.092  0.00  0.00    -0.296 OA
BRANCH  18  20
ATOM     20  C   LIG A   1      -6.690  -2.302 128.446  0.00  0.00    +0.081 C 
ATOM     21  C   LIG A   1      -7.710  -3.367 128.851  0.00  0.00    +0.018 C 
BRANCH  20  22
ATOM     22  C   LIG A   1      -5.240  -2.793 128.580  0.00  0.00    +0.121 C 
ATOM     23  C   LIG A   1      -4.994  -3.564 129.875  0.00  0.00    +0.038 C 
BRANCH  22  24
ATOM     24  O   LIG A   1      -4.381  -1.647 128.581  0.00  0.00    -0.391 OA
ATOM     25  H   LIG A   1      -3.548  -1.919 129.008  0.00  0.00    +0.210 HD
ENDBRANCH  22  24
ENDBRANCH  20  22
ENDBRANCH  18  20
ENDBRANCH   3  18
BRANCH  10  26
ATOM     26  C   LIG A   1      -3.442   3.789 127.624  0.00  0.00    +0.042 C 
ATOM     27  C   LIG A   1      -3.553   4.717 128.590  0.00  0.00    -0.020 C 
BRANCH  27  28
ATOM     28  C   LIG A   1      -2.411   5.569 129.092  0.00  0.00    +0.008 C 
ATOM     29  C   LIG A   1      -2.311   6.824 128.224  0.00  0.00    +0.012 C 
BRANCH  28  30
ATOM     30  C   LIG A   1      -2.625   5.896 130.584  0.00  0.00    +0.004 C 
ATOM     31  C   LIG A   1      -1.398   6.486 131.266  0.00  0.00    +0.004 C 
ENDBRANCH  28  30
ENDBRANCH  27  28
ENDBRANCH  10  26
TORSDOF 7
ENDMDL
MODEL 5
REMARK VINA RESULT:      -7.8      2.070      2.640
REMARK  Name = NuBBE_685
REMARK  12 active torsions:
REMARK  status: ('A' for Active; 'I' for Inactive)
REMARK    1  A    between atoms: C_3  and  C_5
REMARK    2  A    between atoms: C_5  and  C_6
REMARK    3  A    between atoms: C_6  and  C_8
REMARK    4  A    between atoms: C_6  and  C_9
REMARK    5  A    between atoms: C_9  and  O_11
REMARK    6  A    between atoms: C_9  and  C_12
REMARK    7  A    between atoms: C_15  and  C_35
REMARK    8  A    between atoms: C_21  and  C_22
REMARK    9  A    between atoms: C_23  and  C_24
REMARK   10  A    between atoms: C_24  and  C_26
REMARK   11  A    between atoms: C_24  and  C_27
REMARK   12  A    between atoms: C_27  and  C_30
REMARK                            x       y       z     vdW  Elec       q    Type
REMARK                         _______ _______ _______ _____ _____    ______ ____
ROOT
ATOM      1  O   LIG A   1      -2.609   4.211 133.448  0.00  0.00    -0.250 OA
ATOM      2  C   LIG A   1      -3.779   4.187 133.071  0.00  0.00    +0.319 C 
ATOM      3  C   LIG A   1      -4.477   5.305 132.341  0.00  0.00    +0.176 C 
ATOM      4  O   LIG A   1      -4.617   3.116 133.266  0.00  0.00    -0.449 OA
ATOM      5  C   LIG A   1      -5.809   3.337 132.521  0.00  0.00    +0.181 C 
ATOM      6  C   LIG A   1      -5.917   4.852 132.575  0.00  0.00    +0.095 C 
ATOM      7  C   LIG A   1      -7.113   5.408 131.869  0.00  0.00    +0.005 C 
ATOM      8  C   LIG A   1      -7.174   6.652 131.366  0.00  0.00    +0.200 C 
ATOM      9  O   LIG A   1      -8.284   7.187 130.756  0.00  0.00    -0.463 OA
ATOM     10  C   LIG A   1      -9.411   6.386 130.589  0.00  0.00    +0.128 C 
ATOM     11  C   LIG A   1      -9.480   5.132 131.079  0.00  0.00    +0.056 C 
ATOM     12  C   LIG A   1      -8.336   4.578 131.816  0.00  0.00    +0.007 C 
ATOM     13  C   LIG A   1      -8.375   3.370 132.428  0.00  0.00    +0.095 C 
ATOM     14 CL   LIG A   1      -9.762   2.339 132.475  0.00  0.00    -0.079 Cl
ATOM     15  C   LIG A   1      -5.622   2.622 131.173  0.00  0.00    +0.065 C 
ATOM     16  C   LIG A   1      -7.136   2.822 133.094  0.00  0.00    +0.218 C 
ATOM     17  O   LIG A   1      -7.195   1.996 134.004  0.00  0.00    -0.287 OA
ENDROOT
BRANCH   3  18
ATOM     18  C   LIG A   1      -4.022   5.443 130.896  0.00  0.00    +0.153 C 
ATOM     19  O   LIG A   1      -4.265   4.567 130.061  0.00  0.00    -0.296 OA
BRANCH  18  20
ATOM     20  C   LIG A   1      -3.272   6.707 130.484  0.00  0.00    +0.081 C 
ATOM     21  C   LIG A   1      -1.784   6.480 130.755  0.00  0.00    +0.018 C 
BRANCH  20  22
ATOM     22  C   LIG A   1      -3.562   7.009 129.005  0.00  0.00    +0.121 C 
ATOM     23  C   LIG A   1      -2.322   6.888 128.122  0.00  0.00    +0.038 C 
BRANCH  22  24
ATOM     24  O   LIG A   1      -4.037   8.356 128.911  0.00  0.00    -0.391 OA
ATOM     25  H   LIG A   1      -3.264   8.916 128.712  0.00  0.00    +0.210 HD
ENDBRANCH  22  24
ENDBRANCH  20  22
ENDBRANCH  18  20
ENDBRANCH   3  18
BRANCH  10  26
ATOM     26  C   LIG A   1     -10.492   7.010 129.850  0.00  0.00    +0.042 C 
ATOM     27  C   LIG A   1     -11.747   7.146 130.312  0.00  0.00    -0.020 C 
BRANCH  27  28
ATOM     28  C   LIG A   1     -12.882   7.767 129.534  0.00  0.00    +0.008 C 
ATOM     29  C   LIG A   1     -12.416   9.108 128.964  0.00  0.00    +0.012 C 
BRANCH  28  30
ATOM     30  C   LIG A   1     -13.357   6.791 128.439  0.00  0.00    +0.004 C 
ATOM     31  C   LIG A   1     -12.819   7.113 127.052  0.00  0.00    +0.004 C 
ENDBRANCH  28  30
ENDBRANCH  27  28
ENDBRANCH  10  26
TORSDOF 7
ENDMDL
MODEL 6
REMARK VINA RESULT:      -7.8      7.309     10.397
REMARK  Name = NuBBE_685
REMARK  12 active torsions:
REMARK  status: ('A' for Active; 'I' for Inactive)
REMARK    1  A    between atoms: C_3  and  C_5
REMARK    2  A    between atoms: C_5  and  C_6
REMARK    3  A    between atoms: C_6  and  C_8
REMARK    4  A    between atoms: C_6  and  C_9
REMARK    5  A    between atoms: C_9  and  O_11
REMARK    6  A    between atoms: C_9  and  C_12
REMARK    7  A    between atoms: C_15  and  C_35
REMARK    8  A    between atoms: C_21  and  C_22
REMARK    9  A    between atoms: C_23  and  C_24
REMARK   10  A    between atoms: C_24  and  C_26
REMARK   11  A    between atoms: C_24  and  C_27
REMARK   12  A    between atoms: C_27  and  C_30
REMARK                            x       y       z     vdW  Elec       q    Type
REMARK                         _______ _______ _______ _____ _____    ______ ____
ROOT
ATOM      1  O   LIG A   1      -9.866   1.804 123.624  0.00  0.00    -0.250 OA
ATOM      2  C   LIG A   1      -9.345   1.442 124.677  0.00  0.00    +0.319 C 
ATOM      3  C   LIG A   1      -8.910   0.034 124.991  0.00  0.00    +0.176 C 
ATOM      4  O   LIG A   1      -9.081   2.292 125.724  0.00  0.00    -0.449 OA
ATOM      5  C   LIG A   1      -8.285   1.598 126.678  0.00  0.00    +0.181 C 
ATOM      6  C   LIG A   1      -8.793   0.175 126.508  0.00  0.00    +0.095 C 
ATOM      7  C   LIG A   1      -8.138  -0.822 127.411  0.00  0.00    +0.005 C 
ATOM      8  C   LIG A   1      -8.044  -2.133 127.135  0.00  0.00    +0.200 C 
ATOM      9  O   LIG A   1      -7.485  -3.064 127.978  0.00  0.00    -0.463 OA
ATOM     10  C   LIG A   1      -6.925  -2.633 129.178  0.00  0.00    +0.128 C 
ATOM     11  C   LIG A   1      -6.986  -1.348 129.579  0.00  0.00    +0.056 C 
ATOM     12  C   LIG A   1      -7.663  -0.356 128.732  0.00  0.00    +0.007 C 
ATOM     13  C   LIG A   1      -7.858   0.927 129.120  0.00  0.00    +0.095 C 
ATOM     14 CL   LIG A   1      -7.393   1.569 130.656  0.00  0.00    -0.079 Cl
ATOM     15  C   LIG A   1      -6.821   1.940 126.360  0.00  0.00    +0.065 C 
ATOM     16  C   LIG A   1      -8.483   1.916 128.166  0.00  0.00    +0.218 C 
ATOM     17  O   LIG A   1      -9.074   2.921 128.561  0.00  0.00    -0.287 OA
ENDROOT
BRANCH   3  18
ATOM     18  C   LIG A   1      -7.656  -0.380 124.237  0.00  0.00    +0.153 C 
ATOM     19  O   LIG A   1      -6.871   0.459 123.787  0.00  0.00    -0.296 OA
BRANCH  18  20
ATOM     20  C   LIG A   1      -7.367  -1.870 124.063  0.00  0.00    +0.081 C 
ATOM     21  C   LIG A   1      -8.166  -2.365 122.856  0.00  0.00    +0.018 C 
BRANCH  20  22
ATOM     22  C   LIG A   1      -5.854  -2.076 123.893  0.00  0.00    +0.121 C 
ATOM     23  C   LIG A   1      -5.455  -3.550 123.880  0.00  0.00    +0.038 C 
BRANCH  22  24
ATOM     24  O   LIG A   1      -5.194  -1.453 125.001  0.00  0.00    -0.391 OA
ATOM     25  H   LIG A   1      -4.253  -1.704 124.948  0.00  0.00    +0.210 HD
ENDBRANCH  22  24
ENDBRANCH  20  22
ENDBRANCH  18  20
ENDBRANCH   3  18
BRANCH  10  26
ATOM     26  C   LIG A   1      -6.277  -3.676 129.951  0.00  0.00    +0.042 C 
ATOM     27  C   LIG A   1      -5.925  -3.555 131.242  0.00  0.00    -0.020 C 
BRANCH  27  28
ATOM     28  C   LIG A   1      -5.222  -4.627 132.041  0.00  0.00    +0.008 C 
ATOM     29  C   LIG A   1      -3.767  -4.207 132.260  0.00  0.00    +0.012 C 
BRANCH  28  30
ATOM     30  C   LIG A   1      -5.975  -4.866 133.365  0.00  0.00    +0.004 C 
ATOM     31  C   LIG A   1      -7.008  -3.795 133.687  0.00  0.00    +0.004 C 
ENDBRANCH  28  30
ENDBRANCH  27  28
ENDBRANCH  10  26
TORSDOF 7
ENDMDL
MODEL 7
REMARK VINA RESULT:      -7.7      4.103      7.791
REMARK  Name = NuBBE_685
REMARK  12 active torsions:
REMARK  status: ('A' for Active; 'I' for Inactive)
REMARK    1  A    between atoms: C_3  and  C_5
REMARK    2  A    between atoms: C_5  and  C_6
REMARK    3  A    between atoms: C_6  and  C_8
REMARK    4  A    between atoms: C_6  and  C_9
REMARK    5  A    between atoms: C_9  and  O_11
REMARK    6  A    between atoms: C_9  and  C_12
REMARK    7  A    between atoms: C_15  and  C_35
REMARK    8  A    between atoms: C_21  and  C_22
REMARK    9  A    between atoms: C_23  and  C_24
REMARK   10  A    between atoms: C_24  and  C_26
REMARK   11  A    between atoms: C_24  and  C_27
REMARK   12  A    between atoms: C_27  and  C_30
REMARK                            x       y       z     vdW  Elec       q    Type
REMARK                         _______ _______ _______ _____ _____    ______ ____
ROOT
ATOM      1  O   LIG A   1     -12.479   7.092 131.624  0.00  0.00    -0.250 OA
ATOM      2  C   LIG A   1     -11.456   6.418 131.519  0.00  0.00    +0.319 C 
ATOM      3  C   LIG A   1     -11.104   5.556 130.335  0.00  0.00    +0.176 C 
ATOM      4  O   LIG A   1     -10.479   6.366 132.483  0.00  0.00    -0.449 OA
ATOM      5  C   LIG A   1      -9.354   5.679 131.947  0.00  0.00    +0.181 C 
ATOM      6  C   LIG A   1     -10.028   4.700 130.999  0.00  0.00    +0.095 C 
ATOM      7  C   LIG A   1      -9.081   3.799 130.271  0.00  0.00    +0.005 C 
ATOM      8  C   LIG A   1      -9.352   3.229 129.086  0.00  0.00    +0.200 C 
ATOM      9  O   LIG A   1      -8.508   2.364 128.431  0.00  0.00    -0.463 OA
ATOM     10  C   LIG A   1      -7.261   2.091 128.988  0.00  0.00    +0.128 C 
ATOM     11  C   LIG A   1      -6.888   2.580 130.188  0.00  0.00    +0.056 C 
ATOM     12  C   LIG A   1      -7.817   3.430 130.945  0.00  0.00    +0.007 C 
ATOM     13  C   LIG A   1      -7.554   3.865 132.201  0.00  0.00    +0.095 C 
ATOM     14 CL   LIG A   1      -6.137   3.456 133.104  0.00  0.00    -0.079 Cl
ATOM     15  C   LIG A   1      -8.403   6.755 131.399  0.00  0.00    +0.065 C 
ATOM     16  C   LIG A   1      -8.512   4.807 132.888  0.00  0.00    +0.218 C 
ATOM     17  O   LIG A   1      -8.580   4.890 134.114  0.00  0.00    -0.287 OA
ENDROOT
BRANCH   3  18
ATOM     18  C   LIG A   1     -10.688   6.365 129.116  0.00  0.00    +0.153 C 
ATOM     19  O   LIG A   1      -9.790   5.975 128.364  0.00  0.00    -0.296 OA
BRANCH  18  20
ATOM     20  C   LIG A   1     -11.422   7.671 128.820  0.00  0.00    +0.081 C 
ATOM     21  C   LIG A   1     -10.379   8.715 128.420  0.00  0.00    +0.018 C 
BRANCH  20  22
ATOM     22  C   LIG A   1     -12.465   7.428 127.719  0.00  0.00    +0.121 C 
ATOM     23  C   LIG A   1     -13.768   6.839 128.256  0.00  0.00    +0.038 C 
BRANCH  22  24
ATOM     24  O   LIG A   1     -11.914   6.495 126.783  0.00  0.00    -0.391 OA
ATOM     25  H   LIG A   1     -12.252   6.743 125.903  0.00  0.00    +0.210 HD
ENDBRANCH  22  24
ENDBRANCH  20  22
ENDBRANCH  18  20
ENDBRANCH   3  18
BRANCH  10  26
ATOM     26  C   LIG A   1      -6.408   1.246 128.175  0.00  0.00    +0.042 C 
ATOM     27  C   LIG A   1      -6.524  -0.091 128.091  0.00  0.00    -0.020 C 
BRANCH  27  28
ATOM     28  C   LIG A   1      -5.618  -0.978 127.270  0.00  0.00    +0.008 C 
ATOM     29  C   LIG A   1      -6.296  -2.336 127.079  0.00  0.00    +0.012 C 
BRANCH  28  30
ATOM     30  C   LIG A   1      -5.288  -0.287 125.931  0.00  0.00    +0.004 C 
ATOM     31  C   LIG A   1      -6.307  -0.557 124.833  0.00  0.00    +0.004 C 
ENDBRANCH  28  30
ENDBRANCH  27  28
ENDBRANCH  10  26
TORSDOF 7
ENDMDL
MODEL 8
REMARK VINA RESULT:      -7.6      6.406      8.278
REMARK  Name = NuBBE_685
REMARK  12 active torsions:
REMARK  status: ('A' for Active; 'I' for Inactive)
REMARK    1  A    between atoms: C_3  and  C_5
REMARK    2  A    between atoms: C_5  and  C_6
REMARK    3  A    between atoms: C_6  and  C_8
REMARK    4  A    between atoms: C_6  and  C_9
REMARK    5  A    between atoms: C_9  and  O_11
REMARK    6  A    between atoms: C_9  and  C_12
REMARK    7  A    between atoms: C_15  and  C_35
REMARK    8  A    between atoms: C_21  and  C_22
REMARK    9  A    between atoms: C_23  and  C_24
REMARK   10  A    between atoms: C_24  and  C_26
REMARK   11  A    between atoms: C_24  and  C_27
REMARK   12  A    between atoms: C_27  and  C_30
REMARK                            x       y       z     vdW  Elec       q    Type
REMARK                         _______ _______ _______ _____ _____    ______ ____
ROOT
ATOM      1  O   LIG A   1      -6.364  -1.919 123.417  0.00  0.00    -0.250 OA
ATOM      2  C   LIG A   1      -6.685  -1.575 124.552  0.00  0.00    +0.319 C 
ATOM      3  C   LIG A   1      -7.262  -0.233 124.920  0.00  0.00    +0.176 C 
ATOM      4  O   LIG A   1      -6.561  -2.386 125.655  0.00  0.00    -0.449 OA
ATOM      5  C   LIG A   1      -7.223  -1.760 126.748  0.00  0.00    +0.181 C 
ATOM      6  C   LIG A   1      -7.007  -0.291 126.426  0.00  0.00    +0.095 C 
ATOM      7  C   LIG A   1      -7.595   0.651 127.429  0.00  0.00    +0.005 C 
ATOM      8  C   LIG A   1      -7.963   1.911 127.146  0.00  0.00    +0.200 C 
ATOM      9  O   LIG A   1      -8.461   2.798 128.072  0.00  0.00    -0.463 OA
ATOM     10  C   LIG A   1      -8.656   2.365 129.381  0.00  0.00    +0.128 C 
ATOM     11  C   LIG A   1      -8.296   1.133 129.791  0.00  0.00    +0.056 C 
ATOM     12  C   LIG A   1      -7.675   0.204 128.837  0.00  0.00    +0.007 C 
ATOM     13  C   LIG A   1      -7.189  -1.006 129.203  0.00  0.00    +0.095 C 
ATOM     14 CL   LIG A   1      -7.182  -1.611 130.823  0.00  0.00    -0.079 Cl
ATOM     15  C   LIG A   1      -8.644  -2.343 126.793  0.00  0.00    +0.065 C 
ATOM     16  C   LIG A   1      -6.643  -1.948 128.157  0.00  0.00    +0.218 C 
ATOM     17  O   LIG A   1      -5.822  -2.822 128.431  0.00  0.00    -0.287 OA
ENDROOT
BRANCH   3  18
ATOM     18  C   LIG A   1      -8.705  -0.065 124.470  0.00  0.00    +0.153 C 
ATOM     19  O   LIG A   1      -9.645  -0.419 125.186  0.00  0.00    -0.296 OA
BRANCH  18  20
ATOM     20  C   LIG A   1      -8.976   0.577 123.111  0.00  0.00    +0.081 C 
ATOM     21  C   LIG A   1     -10.100  -0.210 122.436  0.00  0.00    +0.018 C 
BRANCH  20  22
ATOM     22  C   LIG A   1      -9.332   2.058 123.312  0.00  0.00    +0.121 C 
ATOM     23  C   LIG A   1      -8.101   2.947 123.474  0.00  0.00    +0.038 C 
BRANCH  22  24
ATOM     24  O   LIG A   1     -10.114   2.169 124.507  0.00  0.00    -0.391 OA
ATOM     25  H   LIG A   1     -10.358   3.108 124.599  0.00  0.00    +0.210 HD
ENDBRANCH  22  24
ENDBRANCH  20  22
ENDBRANCH  18  20
ENDBRANCH   3  18
BRANCH  10  26
ATOM     26  C   LIG A   1      -9.274   3.344 130.255  0.00  0.00    +0.042 C 
ATOM     27  C   LIG A   1      -9.465   4.635 129.932  0.00  0.00    -0.020 C 
BRANCH  27  28
ATOM     28  C   LIG A   1     -10.079   5.664 130.851  0.00  0.00    +0.008 C 
ATOM     29  C   LIG A   1      -9.788   5.271 132.300  0.00  0.00    +0.012 C 
BRANCH  28  30
ATOM     30  C   LIG A   1      -9.539   7.065 130.497  0.00  0.00    +0.004 C 
ATOM     31  C   LIG A   1     -10.267   7.729 129.336  0.00  0.00    +0.004 C 
ENDBRANCH  28  30
ENDBRANCH  27  28
ENDBRANCH  10  26
TORSDOF 7
ENDMDL
MODEL 9
REMARK VINA RESULT:      -7.5      3.707      6.736
REMARK  Name = NuBBE_685
REMARK  12 active torsions:
REMARK  status: ('A' for Active; 'I' for Inactive)
REMARK    1  A    between atoms: C_3  and  C_5
REMARK    2  A    between atoms: C_5  and  C_6
REMARK    3  A    between atoms: C_6  and  C_8
REMARK    4  A    between atoms: C_6  and  C_9
REMARK    5  A    between atoms: C_9  and  O_11
REMARK    6  A    between atoms: C_9  and  C_12
REMARK    7  A    between atoms: C_15  and  C_35
REMARK    8  A    between atoms: C_21  and  C_22
REMARK    9  A    between atoms: C_23  and  C_24
REMARK   10  A    between atoms: C_24  and  C_26
REMARK   11  A    between atoms: C_24  and  C_27
REMARK   12  A    between atoms: C_27  and  C_30
REMARK                            x       y       z     vdW  Elec       q    Type
REMARK                         _______ _______ _______ _____ _____    ______ ____
ROOT
ATOM      1  O   LIG A   1      -6.962   5.726 133.835  0.00  0.00    -0.250 OA
ATOM      2  C   LIG A   1      -6.556   5.503 132.697  0.00  0.00    +0.319 C 
ATOM      3  C   LIG A   1      -7.431   5.320 131.484  0.00  0.00    +0.176 C 
ATOM      4  O   LIG A   1      -5.225   5.394 132.374  0.00  0.00    -0.449 OA
ATOM      5  C   LIG A   1      -5.108   5.357 130.956  0.00  0.00    +0.181 C 
ATOM      6  C   LIG A   1      -6.402   4.660 130.569  0.00  0.00    +0.095 C 
ATOM      7  C   LIG A   1      -6.573   4.456 129.096  0.00  0.00    +0.005 C 
ATOM      8  C   LIG A   1      -7.765   4.332 128.492  0.00  0.00    +0.200 C 
ATOM      9  O   LIG A   1      -7.932   4.099 127.147  0.00  0.00    -0.463 OA
ATOM     10  C   LIG A   1      -6.805   4.039 126.331  0.00  0.00    +0.128 C 
ATOM     11  C   LIG A   1      -5.554   4.119 126.827  0.00  0.00    +0.056 C 
ATOM     12  C   LIG A   1      -5.357   4.273 128.275  0.00  0.00    +0.007 C 
ATOM     13  C   LIG A   1      -4.132   4.250 128.854  0.00  0.00    +0.095 C 
ATOM     14 CL   LIG A   1      -2.649   3.993 128.003  0.00  0.00    -0.079 Cl
ATOM     15  C   LIG A   1      -4.840   6.800 130.500  0.00  0.00    +0.065 C 
ATOM     16  C   LIG A   1      -3.994   4.503 130.336  0.00  0.00    +0.218 C 
ATOM     17  O   LIG A   1      -3.036   4.081 130.983  0.00  0.00    -0.287 OA
ENDROOT
BRANCH   3  18
ATOM     18  C   LIG A   1      -8.051   6.622 131.000  0.00  0.00    +0.153 C 
ATOM     19  O   LIG A   1      -7.352   7.543 130.568  0.00  0.00    -0.296 OA
BRANCH  18  20
ATOM     20  C   LIG A   1      -9.571   6.766 131.036  0.00  0.00    +0.081 C 
ATOM     21  C   LIG A   1     -10.035   7.195 129.644  0.00  0.00    +0.018 C 
BRANCH  20  22
ATOM     22  C   LIG A   1     -10.195   5.434 131.481  0.00  0.00    +0.121 C 
ATOM     23  C   LIG A   1     -11.125   4.835 130.428  0.00  0.00    +0.038 C 
BRANCH  22  24
ATOM     24  O   LIG A   1     -10.969   5.678 132.661  0.00  0.00    -0.391 OA
ATOM     25  H   LIG A   1     -11.385   4.831 132.907  0.00  0.00    +0.210 HD
ENDBRANCH  22  24
ENDBRANCH  20  22
ENDBRANCH  18  20
ENDBRANCH   3  18
BRANCH  10  26
ATOM     26  C   LIG A   1      -7.090   3.886 124.917  0.00  0.00    +0.042 C 
ATOM     27  C   LIG A   1      -7.025   2.720 124.253  0.00  0.00    -0.020 C 
BRANCH  27  28
ATOM     28  C   LIG A   1      -7.291   2.562 122.774  0.00  0.00    +0.008 C 
ATOM     29  C   LIG A   1      -8.802   2.580 122.539  0.00  0.00    +0.012 C 
BRANCH  28  30
ATOM     30  C   LIG A   1      -6.556   3.670 121.993  0.00  0.00    +0.004 C 
ATOM     31  C   LIG A   1      -5.553   3.143 120.976  0.00  0.00    +0.004 C 
ENDBRANCH  28  30
ENDBRANCH  27  28
ENDBRANCH  10  26
TORSDOF 7
ENDMDL
