MODEL 1
REMARK VINA RESULT:      -6.5      0.000      0.000
REMARK  Name = NuBBE_982
REMARK  9 active torsions:
REMARK  status: ('A' for Active; 'I' for Inactive)
REMARK    1  A    between atoms: C_1  and  C_2
REMARK    2  A    between atoms: C_2  and  C_3
REMARK    3  A    between atoms: C_2  and  O_4
REMARK    4  A    between atoms: C_2  and  C_5
REMARK    5  A    between atoms: C_8  and  O_9
REMARK    6  A    between atoms: C_12  and  C_13
REMARK    7  A    between atoms: C_13  and  O_14
REMARK    8  A    between atoms: O_14  and  C_15
REMARK    9  A    between atoms: C_15  and  C_16
REMARK                            x       y       z     vdW  Elec       q    Type
REMARK                         _______ _______ _______ _____ _____    ______ ____
ROOT
ATOM      1  C   LIG A   1      -7.224  -1.441 124.040  0.00  0.00    +0.023 C 
ATOM      2  C   LIG A   1      -6.062  -1.455 125.089  0.00  0.00    +0.042 C 
ATOM      3  C   LIG A   1      -6.233  -0.867 126.514  0.00  0.00    +0.140 C 
ATOM      4  C   LIG A   1      -7.323  -0.013 123.425  0.00  0.00    +0.007 C 
ATOM      5  C   LIG A   1      -8.681   0.661 123.242  0.00  0.00    +0.007 C 
ATOM      6  C   LIG A   1      -8.665   2.203 123.217  0.00  0.00    +0.027 C 
ATOM      7  C   LIG A   1      -8.788   2.827 124.633  0.00  0.00    +0.007 C 
ATOM      8  C   LIG A   1      -7.607   2.610 125.586  0.00  0.00    +0.005 C 
ATOM      9  C   LIG A   1      -7.672   1.286 126.374  0.00  0.00    +0.033 C 
ATOM     10  C   LIG A   1      -6.323   0.655 126.672  0.00  0.00    -0.049 C 
ATOM     11  C   LIG A   1      -5.331   1.429 127.161  0.00  0.00    +0.010 C 
ENDROOT
BRANCH   1  13
ATOM     12  C   LIG A   1      -8.121  -3.474 125.306  0.00  0.00    +0.041 C 
ATOM     13  C   LIG A   1      -8.508  -2.243 124.459  0.00  0.00    +0.063 C 
ATOM     14  C   LIG A   1      -9.335  -2.766 123.271  0.00  0.00    +0.041 C 
BRANCH  13  15
ATOM     15  O   LIG A   1      -9.357  -1.424 125.257  0.00  0.00    -0.389 OA
ATOM     16  H   LIG A   1      -9.409  -1.815 126.148  0.00  0.00    +0.210 HD
ENDBRANCH  13  15
ENDBRANCH   1  13
BRANCH   3  17
ATOM     17  O   LIG A   1      -5.080  -1.324 127.252  0.00  0.00    -0.388 OA
ATOM     18  H   LIG A   1      -4.375  -1.474 126.600  0.00  0.00    +0.210 HD
ENDBRANCH   3  17
BRANCH   6  19
ATOM     19  C   LIG A   1      -7.523   2.793 122.369  0.00  0.00    +0.235 C 
BRANCH  19  20
ATOM     20  O   LIG A   1      -8.043   3.575 121.282  0.00  0.00    -0.465 OA
BRANCH  20  21
ATOM     21  C   LIG A   1      -7.139   3.950 120.342  0.00  0.00    +0.304 C 
ATOM     22  C   LIG A   1      -5.741   3.694 120.809  0.00  0.00    +0.136 C 
ATOM     23  O   LIG A   1      -7.411   4.433 119.250  0.00  0.00    -0.251 OA
ENDBRANCH  20  21
ENDBRANCH  19  20
ENDBRANCH   6  19
TORSDOF 6
ENDMDL
MODEL 2
REMARK VINA RESULT:      -6.4      2.608      3.176
REMARK  Name = NuBBE_982
REMARK  9 active torsions:
REMARK  status: ('A' for Active; 'I' for Inactive)
REMARK    1  A    between atoms: C_1  and  C_2
REMARK    2  A    between atoms: C_2  and  C_3
REMARK    3  A    between atoms: C_2  and  O_4
REMARK    4  A    between atoms: C_2  and  C_5
REMARK    5  A    between atoms: C_8  and  O_9
REMARK    6  A    between atoms: C_12  and  C_13
REMARK    7  A    between atoms: C_13  and  O_14
REMARK    8  A    between atoms: O_14  and  C_15
REMARK    9  A    between atoms: C_15  and  C_16
REMARK                            x       y       z     vdW  Elec       q    Type
REMARK                         _______ _______ _______ _____ _____    ______ ____
ROOT
ATOM      1  C   LIG A   1      -5.741  -1.159 124.575  0.00  0.00    +0.023 C 
ATOM      2  C   LIG A   1      -5.467  -1.466 126.086  0.00  0.00    +0.042 C 
ATOM      3  C   LIG A   1      -6.586  -1.955 127.043  0.00  0.00    +0.140 C 
ATOM      4  C   LIG A   1      -6.425   0.237 124.468  0.00  0.00    +0.007 C 
ATOM      5  C   LIG A   1      -7.628   0.442 123.549  0.00  0.00    +0.007 C 
ATOM      6  C   LIG A   1      -8.577   1.594 123.937  0.00  0.00    +0.027 C 
ATOM      7  C   LIG A   1      -9.684   1.151 124.932  0.00  0.00    +0.007 C 
ATOM      8  C   LIG A   1      -9.227   0.760 126.341  0.00  0.00    +0.005 C 
ATOM      9  C   LIG A   1      -8.790  -0.714 126.471  0.00  0.00    +0.033 C 
ATOM     10  C   LIG A   1      -7.671  -0.960 127.469  0.00  0.00    -0.049 C 
ATOM     11  C   LIG A   1      -7.748  -0.397 128.693  0.00  0.00    +0.010 C 
ENDROOT
BRANCH   1  13
ATOM     12  C   LIG A   1      -5.405  -3.640 124.056  0.00  0.00    +0.041 C 
ATOM     13  C   LIG A   1      -6.239  -2.384 123.727  0.00  0.00    +0.063 C 
ATOM     14  C   LIG A   1      -6.141  -2.172 122.206  0.00  0.00    +0.041 C 
BRANCH  13  15
ATOM     15  O   LIG A   1      -7.596  -2.677 124.044  0.00  0.00    -0.389 OA
ATOM     16  H   LIG A   1      -7.620  -3.510 124.548  0.00  0.00    +0.210 HD
ENDBRANCH  13  15
ENDBRANCH   1  13
BRANCH   3  17
ATOM     17  O   LIG A   1      -5.898  -2.401 128.231  0.00  0.00    -0.388 OA
ATOM     18  H   LIG A   1      -5.128  -1.819 128.340  0.00  0.00    +0.210 HD
ENDBRANCH   3  17
BRANCH   6  19
ATOM     19  C   LIG A   1      -7.843   2.883 124.350  0.00  0.00    +0.235 C 
BRANCH  19  20
ATOM     20  O   LIG A   1      -8.773   3.887 124.787  0.00  0.00    -0.465 OA
BRANCH  20  21
ATOM     21  C   LIG A   1      -8.357   4.667 125.816  0.00  0.00    +0.304 C 
ATOM     22  C   LIG A   1      -7.125   4.105 126.452  0.00  0.00    +0.136 C 
ATOM     23  O   LIG A   1      -8.901   5.700 126.187  0.00  0.00    -0.251 OA
ENDBRANCH  20  21
ENDBRANCH  19  20
ENDBRANCH   6  19
TORSDOF 6
ENDMDL
MODEL 3
REMARK VINA RESULT:      -6.3      7.267      8.256
REMARK  Name = NuBBE_982
REMARK  9 active torsions:
REMARK  status: ('A' for Active; 'I' for Inactive)
REMARK    1  A    between atoms: C_1  and  C_2
REMARK    2  A    between atoms: C_2  and  C_3
REMARK    3  A    between atoms: C_2  and  O_4
REMARK    4  A    between atoms: C_2  and  C_5
REMARK    5  A    between atoms: C_8  and  O_9
REMARK    6  A    between atoms: C_12  and  C_13
REMARK    7  A    between atoms: C_13  and  O_14
REMARK    8  A    between atoms: O_14  and  C_15
REMARK    9  A    between atoms: C_15  and  C_16
REMARK                            x       y       z     vdW  Elec       q    Type
REMARK                         _______ _______ _______ _____ _____    ______ ____
ROOT
ATOM      1  C   LIG A   1      -7.794   2.598 131.213  0.00  0.00    +0.023 C 
ATOM      2  C   LIG A   1      -6.299   2.987 131.470  0.00  0.00    +0.042 C 
ATOM      3  C   LIG A   1      -5.899   4.099 132.476  0.00  0.00    +0.140 C 
ATOM      4  C   LIG A   1      -8.431   3.663 130.271  0.00  0.00    +0.007 C 
ATOM      5  C   LIG A   1      -9.819   4.227 130.565  0.00  0.00    +0.007 C 
ATOM      6  C   LIG A   1     -10.105   5.630 129.993  0.00  0.00    +0.027 C 
ATOM      7  C   LIG A   1      -9.675   6.770 130.954  0.00  0.00    +0.007 C 
ATOM      8  C   LIG A   1      -8.170   6.935 131.197  0.00  0.00    +0.005 C 
ATOM      9  C   LIG A   1      -7.615   6.037 132.321  0.00  0.00    +0.033 C 
ATOM     10  C   LIG A   1      -6.189   5.558 132.108  0.00  0.00    -0.049 C 
ATOM     11  C   LIG A   1      -5.249   6.448 131.727  0.00  0.00    +0.010 C 
ENDROOT
BRANCH   1  13
ATOM     12  C   LIG A   1      -9.726   1.134 132.029  0.00  0.00    +0.041 C 
ATOM     13  C   LIG A   1      -8.563   2.049 132.468  0.00  0.00    +0.063 C 
ATOM     14  C   LIG A   1      -9.174   3.147 133.357  0.00  0.00    +0.041 C 
BRANCH  13  15
ATOM     15  O   LIG A   1      -7.686   1.269 133.275  0.00  0.00    -0.389 OA
ATOM     16  H   LIG A   1      -7.452   1.789 134.064  0.00  0.00    +0.210 HD
ENDBRANCH  13  15
ENDBRANCH   1  13
BRANCH   3  17
ATOM     17  O   LIG A   1      -4.473   3.957 132.648  0.00  0.00    -0.388 OA
ATOM     18  H   LIG A   1      -4.321   3.052 132.966  0.00  0.00    +0.210 HD
ENDBRANCH   3  17
BRANCH   6  19
ATOM     19  C   LIG A   1      -9.618   5.815 128.543  0.00  0.00    +0.235 C 
BRANCH  19  20
ATOM     20  O   LIG A   1      -9.807   7.170 128.107  0.00  0.00    -0.465 OA
BRANCH  20  21
ATOM     21  C   LIG A   1     -10.907   7.395 127.345  0.00  0.00    +0.304 C 
ATOM     22  C   LIG A   1     -11.784   8.438 127.963  0.00  0.00    +0.136 C 
ATOM     23  O   LIG A   1     -11.164   6.833 126.288  0.00  0.00    -0.251 OA
ENDBRANCH  20  21
ENDBRANCH  19  20
ENDBRANCH   6  19
TORSDOF 6
ENDMDL
MODEL 4
REMARK VINA RESULT:      -6.3      3.231      7.520
REMARK  Name = NuBBE_982
REMARK  9 active torsions:
REMARK  status: ('A' for Active; 'I' for Inactive)
REMARK    1  A    between atoms: C_1  and  C_2
REMARK    2  A    between atoms: C_2  and  C_3
REMARK    3  A    between atoms: C_2  and  O_4
REMARK    4  A    between atoms: C_2  and  C_5
REMARK    5  A    between atoms: C_8  and  O_9
REMARK    6  A    between atoms: C_12  and  C_13
REMARK    7  A    between atoms: C_13  and  O_14
REMARK    8  A    between atoms: O_14  and  C_15
REMARK    9  A    between atoms: C_15  and  C_16
REMARK                            x       y       z     vdW  Elec       q    Type
REMARK                         _______ _______ _______ _____ _____    ______ ____
ROOT
ATOM      1  C   LIG A   1      -5.584  -0.515 126.288  0.00  0.00    +0.023 C 
ATOM      2  C   LIG A   1      -5.882  -1.270 124.949  0.00  0.00    +0.042 C 
ATOM      3  C   LIG A   1      -7.320  -1.685 124.540  0.00  0.00    +0.140 C 
ATOM      4  C   LIG A   1      -5.605  -1.546 127.456  0.00  0.00    +0.007 C 
ATOM      5  C   LIG A   1      -6.325  -1.222 128.763  0.00  0.00    +0.007 C 
ATOM      6  C   LIG A   1      -6.811  -2.437 129.578  0.00  0.00    +0.027 C 
ATOM      7  C   LIG A   1      -8.231  -2.910 129.164  0.00  0.00    +0.007 C 
ATOM      8  C   LIG A   1      -8.374  -3.514 127.762  0.00  0.00    +0.005 C 
ATOM      9  C   LIG A   1      -8.606  -2.470 126.651  0.00  0.00    +0.033 C 
ATOM     10  C   LIG A   1      -7.998  -2.826 125.305  0.00  0.00    -0.049 C 
ATOM     11  C   LIG A   1      -8.182  -4.069 124.811  0.00  0.00    +0.010 C 
ENDROOT
BRANCH   1  13
ATOM     12  C   LIG A   1      -6.295   1.612 125.059  0.00  0.00    +0.041 C 
ATOM     13  C   LIG A   1      -6.268   0.893 126.424  0.00  0.00    +0.063 C 
ATOM     14  C   LIG A   1      -5.561   1.839 127.410  0.00  0.00    +0.041 C 
BRANCH  13  15
ATOM     15  O   LIG A   1      -7.618   0.740 126.853  0.00  0.00    -0.389 OA
ATOM     16  H   LIG A   1      -7.792   1.395 127.552  0.00  0.00    +0.210 HD
ENDBRANCH  13  15
ENDBRANCH   1  13
BRANCH   3  17
ATOM     17  O   LIG A   1      -7.221  -2.073 123.154  0.00  0.00    -0.388 OA
ATOM     18  H   LIG A   1      -7.796  -2.849 123.042  0.00  0.00    +0.210 HD
ENDBRANCH   3  17
BRANCH   6  19
ATOM     19  C   LIG A   1      -5.774  -3.573 129.668  0.00  0.00    +0.235 C 
BRANCH  19  20
ATOM     20  O   LIG A   1      -4.854  -3.343 130.745  0.00  0.00    -0.465 OA
BRANCH  20  21
ATOM     21  C   LIG A   1      -3.582  -3.042 130.380  0.00  0.00    +0.304 C 
ATOM     22  C   LIG A   1      -3.197  -3.765 129.129  0.00  0.00    +0.136 C 
ATOM     23  O   LIG A   1      -2.835  -2.278 130.979  0.00  0.00    -0.251 OA
ENDBRANCH  20  21
ENDBRANCH  19  20
ENDBRANCH   6  19
TORSDOF 6
ENDMDL
MODEL 5
REMARK VINA RESULT:      -6.2      2.563      4.955
REMARK  Name = NuBBE_982
REMARK  9 active torsions:
REMARK  status: ('A' for Active; 'I' for Inactive)
REMARK    1  A    between atoms: C_1  and  C_2
REMARK    2  A    between atoms: C_2  and  C_3
REMARK    3  A    between atoms: C_2  and  O_4
REMARK    4  A    between atoms: C_2  and  C_5
REMARK    5  A    between atoms: C_8  and  O_9
REMARK    6  A    between atoms: C_12  and  C_13
REMARK    7  A    between atoms: C_13  and  O_14
REMARK    8  A    between atoms: O_14  and  C_15
REMARK    9  A    between atoms: C_15  and  C_16
REMARK                            x       y       z     vdW  Elec       q    Type
REMARK                         _______ _______ _______ _____ _____    ______ ____
ROOT
ATOM      1  C   LIG A   1      -7.815   0.918 123.655  0.00  0.00    +0.023 C 
ATOM      2  C   LIG A   1      -8.192  -0.530 124.114  0.00  0.00    +0.042 C 
ATOM      3  C   LIG A   1      -9.028  -0.797 125.394  0.00  0.00    +0.140 C 
ATOM      4  C   LIG A   1      -6.624   1.422 124.524  0.00  0.00    +0.007 C 
ATOM      5  C   LIG A   1      -6.629   2.835 125.102  0.00  0.00    +0.007 C 
ATOM      6  C   LIG A   1      -5.786   3.040 126.377  0.00  0.00    +0.027 C 
ATOM      7  C   LIG A   1      -6.578   2.737 127.676  0.00  0.00    +0.007 C 
ATOM      8  C   LIG A   1      -6.982   1.277 127.913  0.00  0.00    +0.005 C 
ATOM      9  C   LIG A   1      -8.310   0.878 127.238  0.00  0.00    +0.033 C 
ATOM     10  C   LIG A   1      -8.374  -0.562 126.759  0.00  0.00    -0.049 C 
ATOM     11  C   LIG A   1      -7.967  -1.547 127.587  0.00  0.00    +0.010 C 
ENDROOT
BRANCH   1  13
ATOM     12  C   LIG A   1     -10.178   1.028 122.682  0.00  0.00    +0.041 C 
ATOM     13  C   LIG A   1      -9.036   1.848 123.320  0.00  0.00    +0.063 C 
ATOM     14  C   LIG A   1      -8.705   2.985 122.336  0.00  0.00    +0.041 C 
BRANCH  13  15
ATOM     15  O   LIG A   1      -9.546   2.434 124.513  0.00  0.00    -0.389 OA
ATOM     16  H   LIG A   1     -10.096   1.772 124.969  0.00  0.00    +0.210 HD
ENDBRANCH  13  15
ENDBRANCH   1  13
BRANCH   3  17
ATOM     17  O   LIG A   1      -9.407  -2.187 125.314  0.00  0.00    -0.388 OA
ATOM     18  H   LIG A   1      -8.813  -2.599 124.665  0.00  0.00    +0.210 HD
ENDBRANCH   3  17
BRANCH   6  19
ATOM     19  C   LIG A   1      -4.403   2.365 126.314  0.00  0.00    +0.235 C 
BRANCH  19  20
ATOM     20  O   LIG A   1      -3.382   3.316 125.976  0.00  0.00    -0.465 OA
BRANCH  20  21
ATOM     21  C   LIG A   1      -2.299   3.333 126.793  0.00  0.00    +0.304 C 
ATOM     22  C   LIG A   1      -2.527   4.228 127.969  0.00  0.00    +0.136 C 
ATOM     23  O   LIG A   1      -1.264   2.702 126.611  0.00  0.00    -0.251 OA
ENDBRANCH  20  21
ENDBRANCH  19  20
ENDBRANCH   6  19
TORSDOF 6
ENDMDL
MODEL 6
REMARK VINA RESULT:      -6.0      7.476      9.810
REMARK  Name = NuBBE_982
REMARK  9 active torsions:
REMARK  status: ('A' for Active; 'I' for Inactive)
REMARK    1  A    between atoms: C_1  and  C_2
REMARK    2  A    between atoms: C_2  and  C_3
REMARK    3  A    between atoms: C_2  and  O_4
REMARK    4  A    between atoms: C_2  and  C_5
REMARK    5  A    between atoms: C_8  and  O_9
REMARK    6  A    between atoms: C_12  and  C_13
REMARK    7  A    between atoms: C_13  and  O_14
REMARK    8  A    between atoms: O_14  and  C_15
REMARK    9  A    between atoms: C_15  and  C_16
REMARK                            x       y       z     vdW  Elec       q    Type
REMARK                         _______ _______ _______ _____ _____    ______ ____
ROOT
ATOM      1  C   LIG A   1      -8.607   3.740 133.768  0.00  0.00    +0.023 C 
ATOM      2  C   LIG A   1      -8.395   2.353 133.072  0.00  0.00    +0.042 C 
ATOM      3  C   LIG A   1      -7.517   2.194 131.803  0.00  0.00    +0.140 C 
ATOM      4  C   LIG A   1      -9.659   4.551 132.953  0.00  0.00    +0.007 C 
ATOM      5  C   LIG A   1      -9.427   6.027 132.640  0.00  0.00    +0.007 C 
ATOM      6  C   LIG A   1     -10.148   6.566 131.388  0.00  0.00    +0.027 C 
ATOM      7  C   LIG A   1      -9.316   6.382 130.090  0.00  0.00    +0.007 C 
ATOM      8  C   LIG A   1      -9.094   4.942 129.613  0.00  0.00    +0.005 C 
ATOM      9  C   LIG A   1      -7.879   4.248 130.261  0.00  0.00    +0.033 C 
ATOM     10  C   LIG A   1      -8.041   2.752 130.476  0.00  0.00    -0.049 C 
ATOM     11  C   LIG A   1      -8.517   1.993 129.467  0.00  0.00    +0.010 C 
ENDROOT
BRANCH   1  13
ATOM     12  C   LIG A   1      -7.633   5.353 135.498  0.00  0.00    +0.041 C 
ATOM     13  C   LIG A   1      -7.299   4.414 134.318  0.00  0.00    +0.063 C 
ATOM     14  C   LIG A   1      -6.547   5.261 133.277  0.00  0.00    +0.041 C 
BRANCH  13  15
ATOM     15  O   LIG A   1      -6.404   3.419 134.805  0.00  0.00    -0.389 OA
ATOM     16  H   LIG A   1      -5.625   3.397 134.221  0.00  0.00    +0.210 HD
ENDBRANCH  13  15
ENDBRANCH   1  13
BRANCH   3  17
ATOM     17  O   LIG A   1      -7.332   0.772 131.648  0.00  0.00    -0.388 OA
ATOM     18  H   LIG A   1      -7.497   0.375 132.520  0.00  0.00    +0.210 HD
ENDBRANCH   3  17
BRANCH   6  19
ATOM     19  C   LIG A   1     -11.609   6.094 131.268  0.00  0.00    +0.235 C 
BRANCH  19  20
ATOM     20  O   LIG A   1     -12.512   7.211 131.289  0.00  0.00    -0.465 OA
BRANCH  20  21
ATOM     21  C   LIG A   1     -12.709   7.831 130.098  0.00  0.00    +0.304 C 
ATOM     22  C   LIG A   1     -13.077   6.846 129.034  0.00  0.00    +0.136 C 
ATOM     23  O   LIG A   1     -12.607   9.036 129.901  0.00  0.00    -0.251 OA
ENDBRANCH  20  21
ENDBRANCH  19  20
ENDBRANCH   6  19
TORSDOF 6
ENDMDL
MODEL 7
REMARK VINA RESULT:      -6.0      7.683      9.122
REMARK  Name = NuBBE_982
REMARK  9 active torsions:
REMARK  status: ('A' for Active; 'I' for Inactive)
REMARK    1  A    between atoms: C_1  and  C_2
REMARK    2  A    between atoms: C_2  and  C_3
REMARK    3  A    between atoms: C_2  and  O_4
REMARK    4  A    between atoms: C_2  and  C_5
REMARK    5  A    between atoms: C_8  and  O_9
REMARK    6  A    between atoms: C_12  and  C_13
REMARK    7  A    between atoms: C_13  and  O_14
REMARK    8  A    between atoms: O_14  and  C_15
REMARK    9  A    between atoms: C_15  and  C_16
REMARK                            x       y       z     vdW  Elec       q    Type
REMARK                         _______ _______ _______ _____ _____    ______ ____
ROOT
ATOM      1  C   LIG A   1      -9.377   4.875 130.349  0.00  0.00    +0.023 C 
ATOM      2  C   LIG A   1      -9.506   3.352 130.691  0.00  0.00    +0.042 C 
ATOM      3  C   LIG A   1      -9.405   2.823 132.146  0.00  0.00    +0.140 C 
ATOM      4  C   LIG A   1      -7.869   5.264 130.373  0.00  0.00    +0.007 C 
ATOM      5  C   LIG A   1      -7.410   6.548 131.060  0.00  0.00    +0.007 C 
ATOM      6  C   LIG A   1      -5.951   6.556 131.559  0.00  0.00    +0.027 C 
ATOM      7  C   LIG A   1      -5.805   5.989 132.996  0.00  0.00    +0.007 C 
ATOM      8  C   LIG A   1      -6.093   4.495 133.181  0.00  0.00    +0.005 C 
ATOM      9  C   LIG A   1      -7.582   4.167 133.409  0.00  0.00    +0.033 C 
ATOM     10  C   LIG A   1      -8.037   2.836 132.835  0.00  0.00    -0.049 C 
ATOM     11  C   LIG A   1      -7.287   1.736 133.059  0.00  0.00    +0.010 C 
ENDROOT
BRANCH   1  13
ATOM     12  C   LIG A   1     -10.616   7.107 130.194  0.00  0.00    +0.041 C 
ATOM     13  C   LIG A   1     -10.472   5.797 130.997  0.00  0.00    +0.063 C 
ATOM     14  C   LIG A   1     -10.170   6.199 132.451  0.00  0.00    +0.041 C 
BRANCH  13  15
ATOM     15  O   LIG A   1     -11.736   5.141 130.976  0.00  0.00    -0.389 OA
ATOM     16  H   LIG A   1     -11.806   4.584 131.772  0.00  0.00    +0.210 HD
ENDBRANCH  13  15
ENDBRANCH   1  13
BRANCH   3  17
ATOM     17  O   LIG A   1      -9.860   1.455 132.082  0.00  0.00    -0.388 OA
ATOM     18  H   LIG A   1     -10.602   1.439 131.455  0.00  0.00    +0.210 HD
ENDBRANCH   3  17
BRANCH   6  19
ATOM     19  C   LIG A   1      -4.952   5.963 130.547  0.00  0.00    +0.235 C 
BRANCH  19  20
ATOM     20  O   LIG A   1      -4.562   6.945 129.575  0.00  0.00    -0.465 OA
BRANCH  20  21
ATOM     21  C   LIG A   1      -3.846   6.478 128.521  0.00  0.00    +0.304 C 
ATOM     22  C   LIG A   1      -2.386   6.431 128.843  0.00  0.00    +0.136 C 
ATOM     23  O   LIG A   1      -4.315   6.133 127.443  0.00  0.00    -0.251 OA
ENDBRANCH  20  21
ENDBRANCH  19  20
ENDBRANCH   6  19
TORSDOF 6
ENDMDL
MODEL 8
REMARK VINA RESULT:      -6.0      4.968      7.228
REMARK  Name = NuBBE_982
REMARK  9 active torsions:
REMARK  status: ('A' for Active; 'I' for Inactive)
REMARK    1  A    between atoms: C_1  and  C_2
REMARK    2  A    between atoms: C_2  and  C_3
REMARK    3  A    between atoms: C_2  and  O_4
REMARK    4  A    between atoms: C_2  and  C_5
REMARK    5  A    between atoms: C_8  and  O_9
REMARK    6  A    between atoms: C_12  and  C_13
REMARK    7  A    between atoms: C_13  and  O_14
REMARK    8  A    between atoms: O_14  and  C_15
REMARK    9  A    between atoms: C_15  and  C_16
REMARK                            x       y       z     vdW  Elec       q    Type
REMARK                         _______ _______ _______ _____ _____    ______ ____
ROOT
ATOM      1  C   LIG A   1      -6.940  -2.823 131.427  0.00  0.00    +0.023 C 
ATOM      2  C   LIG A   1      -5.601  -3.616 131.602  0.00  0.00    +0.042 C 
ATOM      3  C   LIG A   1      -4.248  -3.076 131.070  0.00  0.00    +0.140 C 
ATOM      4  C   LIG A   1      -7.450  -3.022 129.969  0.00  0.00    +0.007 C 
ATOM      5  C   LIG A   1      -7.971  -1.835 129.161  0.00  0.00    +0.007 C 
ATOM      6  C   LIG A   1      -7.875  -1.975 127.628  0.00  0.00    +0.027 C 
ATOM      7  C   LIG A   1      -6.514  -1.485 127.065  0.00  0.00    +0.007 C 
ATOM      8  C   LIG A   1      -5.277  -2.310 127.438  0.00  0.00    +0.005 C 
ATOM      9  C   LIG A   1      -4.643  -1.912 128.786  0.00  0.00    +0.033 C 
ATOM     10  C   LIG A   1      -4.011  -3.059 129.556  0.00  0.00    -0.049 C 
ATOM     11  C   LIG A   1      -3.199  -3.917 128.904  0.00  0.00    +0.010 C 
ENDROOT
BRANCH   1  13
ATOM     12  C   LIG A   1      -8.431  -0.935 132.294  0.00  0.00    +0.041 C 
ATOM     13  C   LIG A   1      -6.974  -1.415 132.124  0.00  0.00    +0.063 C 
ATOM     14  C   LIG A   1      -6.233  -0.314 131.346  0.00  0.00    +0.041 C 
BRANCH  13  15
ATOM     15  O   LIG A   1      -6.398  -1.499 133.423  0.00  0.00    -0.389 OA
ATOM     16  H   LIG A   1      -5.649  -2.121 133.386  0.00  0.00    +0.210 HD
ENDBRANCH  13  15
ENDBRANCH   1  13
BRANCH   3  17
ATOM     17  O   LIG A   1      -3.242  -3.918 131.670  0.00  0.00    -0.388 OA
ATOM     18  H   LIG A   1      -2.770  -3.368 132.316  0.00  0.00    +0.210 HD
ENDBRANCH   3  17
BRANCH   6  19
ATOM     19  C   LIG A   1      -8.307  -3.359 127.109  0.00  0.00    +0.235 C 
BRANCH  19  20
ATOM     20  O   LIG A   1      -9.154  -3.233 125.956  0.00  0.00    -0.465 OA
BRANCH  20  21
ATOM     21  C   LIG A   1      -8.576  -3.530 124.765  0.00  0.00    +0.304 C 
ATOM     22  C   LIG A   1      -9.525  -3.294 123.634  0.00  0.00    +0.136 C 
ATOM     23  O   LIG A   1      -7.429  -3.934 124.616  0.00  0.00    -0.251 OA
ENDBRANCH  20  21
ENDBRANCH  19  20
ENDBRANCH   6  19
TORSDOF 6
ENDMDL
MODEL 9
REMARK VINA RESULT:      -6.0      2.672      6.453
REMARK  Name = NuBBE_982
REMARK  9 active torsions:
REMARK  status: ('A' for Active; 'I' for Inactive)
REMARK    1  A    between atoms: C_1  and  C_2
REMARK    2  A    between atoms: C_2  and  C_3
REMARK    3  A    between atoms: C_2  and  O_4
REMARK    4  A    between atoms: C_2  and  C_5
REMARK    5  A    between atoms: C_8  and  O_9
REMARK    6  A    between atoms: C_12  and  C_13
REMARK    7  A    between atoms: C_13  and  O_14
REMARK    8  A    between atoms: O_14  and  C_15
REMARK    9  A    between atoms: C_15  and  C_16
REMARK                            x       y       z     vdW  Elec       q    Type
REMARK                         _______ _______ _______ _____ _____    ______ ____
ROOT
ATOM      1  C   LIG A   1      -9.393  -0.896 125.010  0.00  0.00    +0.023 C 
ATOM      2  C   LIG A   1      -9.705   0.632 125.145  0.00  0.00    +0.042 C 
ATOM      3  C   LIG A   1      -8.663   1.721 124.777  0.00  0.00    +0.140 C 
ATOM      4  C   LIG A   1      -8.523  -1.336 126.226  0.00  0.00    +0.007 C 
ATOM      5  C   LIG A   1      -7.304  -2.233 126.023  0.00  0.00    +0.007 C 
ATOM      6  C   LIG A   1      -6.205  -2.122 127.100  0.00  0.00    +0.027 C 
ATOM      7  C   LIG A   1      -5.169  -1.010 126.787  0.00  0.00    +0.007 C 
ATOM      8  C   LIG A   1      -5.674   0.437 126.840  0.00  0.00    +0.005 C 
ATOM      9  C   LIG A   1      -6.310   0.926 125.522  0.00  0.00    +0.033 C 
ATOM     10  C   LIG A   1      -7.451   1.914 125.695  0.00  0.00    -0.049 C 
ATOM     11  C   LIG A   1      -7.296   2.953 126.541  0.00  0.00    +0.010 C 
ENDROOT
BRANCH   1  13
ATOM     12  C   LIG A   1      -9.332  -2.898 123.419  0.00  0.00    +0.041 C 
ATOM     13  C   LIG A   1      -9.069  -1.383 123.552  0.00  0.00    +0.063 C 
ATOM     14  C   LIG A   1      -7.610  -1.148 123.123  0.00  0.00    +0.041 C 
BRANCH  13  15
ATOM     15  O   LIG A   1      -9.913  -0.719 122.617  0.00  0.00    -0.389 OA
ATOM     16  H   LIG A   1      -9.940   0.228 122.847  0.00  0.00    +0.210 HD
ENDBRANCH  13  15
ENDBRANCH   1  13
BRANCH   3  17
ATOM     17  O   LIG A   1      -9.405   2.959 124.751  0.00  0.00    -0.388 OA
ATOM     18  H   LIG A   1      -8.749   3.675 124.777  0.00  0.00    +0.210 HD
ENDBRANCH   3  17
BRANCH   6  19
ATOM     19  C   LIG A   1      -6.755  -2.081 128.538  0.00  0.00    +0.235 C 
BRANCH  19  20
ATOM     20  O   LIG A   1      -5.688  -2.151 129.497  0.00  0.00    -0.465 OA
BRANCH  20  21
ATOM     21  C   LIG A   1      -5.128  -3.375 129.667  0.00  0.00    +0.304 C 
ATOM     22  C   LIG A   1      -6.079  -4.311 130.343  0.00  0.00    +0.136 C 
ATOM     23  O   LIG A   1      -3.998  -3.692 129.317  0.00  0.00    -0.251 OA
ENDBRANCH  20  21
ENDBRANCH  19  20
ENDBRANCH   6  19
TORSDOF 6
ENDMDL
