MODEL 1
REMARK VINA RESULT:      -4.2      0.000      0.000
REMARK  Name = NuBBE_1376
REMARK  6 active torsions:
REMARK  status: ('A' for Active; 'I' for Inactive)
REMARK    1  A    between atoms: C_1  and  C_2
REMARK    2  A    between atoms: C_2  and  C_3
REMARK    3  A    between atoms: C_3  and  O_4
REMARK    4  A    between atoms: C_3  and  C_5
REMARK    5  A    between atoms: C_5  and  C_6
REMARK    6  A    between atoms: C_6  and  C_7
REMARK                            x       y       z     vdW  Elec       q    Type
REMARK                         _______ _______ _______ _____ _____    ______ ____
ROOT
ATOM      1  C   LIG A   1      -5.169   5.103 119.771  0.00  0.00    +0.114 C 
ENDROOT
BRANCH   1   3
ATOM      2  C   LIG A   1      -7.438   4.493 118.811  0.00  0.00    +0.006 C 
ATOM      3  C   LIG A   1      -6.228   5.411 118.707  0.00  0.00    +0.028 C 
ENDBRANCH   1   3
BRANCH   1   4
ATOM      4  O   LIG A   1      -4.729   6.319 120.372  0.00  0.00    -0.392 OA
ATOM      5  H   LIG A   1      -5.409   6.599 121.008  0.00  0.00    +0.210 HD
ENDBRANCH   1   4
BRANCH   1   6
ATOM      6  C   LIG A   1      -5.724   4.165 120.851  0.00  0.00    +0.031 C 
BRANCH   6   7
ATOM      7  C   LIG A   1      -5.056   4.389 122.211  0.00  0.00    -0.001 C 
ATOM      8  C   LIG A   1      -5.963   3.969 123.356  0.00  0.00    +0.004 C 
ENDBRANCH   6   7
ENDBRANCH   1   6
TORSDOF 4
ENDMDL
MODEL 2
REMARK VINA RESULT:      -3.9      9.612     11.258
REMARK  Name = NuBBE_1376
REMARK  6 active torsions:
REMARK  status: ('A' for Active; 'I' for Inactive)
REMARK    1  A    between atoms: C_1  and  C_2
REMARK    2  A    between atoms: C_2  and  C_3
REMARK    3  A    between atoms: C_3  and  O_4
REMARK    4  A    between atoms: C_3  and  C_5
REMARK    5  A    between atoms: C_5  and  C_6
REMARK    6  A    between atoms: C_6  and  C_7
REMARK                            x       y       z     vdW  Elec       q    Type
REMARK                         _______ _______ _______ _____ _____    ______ ____
ROOT
ATOM      1  C   LIG A   1     -12.577   8.704 128.819  0.00  0.00    +0.114 C 
ENDROOT
BRANCH   1   3
ATOM      2  C   LIG A   1     -12.348   6.802 130.484  0.00  0.00    +0.006 C 
ATOM      3  C   LIG A   1     -12.684   8.274 130.286  0.00  0.00    +0.028 C 
ENDBRANCH   1   3
BRANCH   1   4
ATOM      4  O   LIG A   1     -12.979  10.067 128.691  0.00  0.00    -0.392 OA
ATOM      5  H   LIG A   1     -13.947  10.085 128.612  0.00  0.00    +0.210 HD
ENDBRANCH   1   4
BRANCH   1   6
ATOM      6  C   LIG A   1     -11.145   8.538 128.294  0.00  0.00    +0.031 C 
BRANCH   6   7
ATOM      7  C   LIG A   1     -11.107   7.857 126.923  0.00  0.00    -0.001 C 
ATOM      8  C   LIG A   1     -12.383   7.076 126.652  0.00  0.00    +0.004 C 
ENDBRANCH   6   7
ENDBRANCH   1   6
TORSDOF 4
ENDMDL
MODEL 3
REMARK VINA RESULT:      -3.8      8.363      9.087
REMARK  Name = NuBBE_1376
REMARK  6 active torsions:
REMARK  status: ('A' for Active; 'I' for Inactive)
REMARK    1  A    between atoms: C_1  and  C_2
REMARK    2  A    between atoms: C_2  and  C_3
REMARK    3  A    between atoms: C_3  and  O_4
REMARK    4  A    between atoms: C_3  and  C_5
REMARK    5  A    between atoms: C_5  and  C_6
REMARK    6  A    between atoms: C_6  and  C_7
REMARK                            x       y       z     vdW  Elec       q    Type
REMARK                         _______ _______ _______ _____ _____    ______ ____
ROOT
ATOM      1  C   LIG A   1      -5.761  -2.785 124.460  0.00  0.00    +0.114 C 
ENDROOT
BRANCH   1   3
ATOM      2  C   LIG A   1      -4.403  -4.752 123.606  0.00  0.00    +0.006 C 
ATOM      3  C   LIG A   1      -4.764  -3.286 123.409  0.00  0.00    +0.028 C 
ENDBRANCH   1   3
BRANCH   1   4
ATOM      4  O   LIG A   1      -5.946  -1.379 124.310  0.00  0.00    -0.392 OA
ATOM      5  H   LIG A   1      -6.478  -1.068 125.061  0.00  0.00    +0.210 HD
ENDBRANCH   1   4
BRANCH   1   6
ATOM      6  C   LIG A   1      -7.113  -3.500 124.327  0.00  0.00    +0.031 C 
BRANCH   6   7
ATOM      7  C   LIG A   1      -8.127  -2.675 123.529  0.00  0.00    -0.001 C 
ATOM      8  C   LIG A   1      -9.500  -3.328 123.527  0.00  0.00    +0.004 C 
ENDBRANCH   6   7
ENDBRANCH   1   6
TORSDOF 4
ENDMDL
MODEL 4
REMARK VINA RESULT:      -3.8      8.049      8.783
REMARK  Name = NuBBE_1376
REMARK  6 active torsions:
REMARK  status: ('A' for Active; 'I' for Inactive)
REMARK    1  A    between atoms: C_1  and  C_2
REMARK    2  A    between atoms: C_2  and  C_3
REMARK    3  A    between atoms: C_3  and  O_4
REMARK    4  A    between atoms: C_3  and  C_5
REMARK    5  A    between atoms: C_5  and  C_6
REMARK    6  A    between atoms: C_6  and  C_7
REMARK                            x       y       z     vdW  Elec       q    Type
REMARK                         _______ _______ _______ _____ _____    ______ ____
ROOT
ATOM      1  C   LIG A   1      -6.995  -2.489 123.514  0.00  0.00    +0.114 C 
ENDROOT
BRANCH   1   3
ATOM      2  C   LIG A   1      -9.424  -3.222 123.465  0.00  0.00    +0.006 C 
ATOM      3  C   LIG A   1      -8.070  -3.381 124.143  0.00  0.00    +0.028 C 
ENDBRANCH   1   3
BRANCH   1   4
ATOM      4  O   LIG A   1      -7.420  -1.128 123.558  0.00  0.00    -0.392 OA
ATOM      5  H   LIG A   1      -8.082  -1.046 124.264  0.00  0.00    +0.210 HD
ENDBRANCH   1   4
BRANCH   1   6
ATOM      6  C   LIG A   1      -5.654  -2.634 124.246  0.00  0.00    +0.031 C 
BRANCH   6   7
ATOM      7  C   LIG A   1      -4.581  -3.279 123.364  0.00  0.00    -0.001 C 
ATOM      8  C   LIG A   1      -4.472  -4.774 123.619  0.00  0.00    +0.004 C 
ENDBRANCH   6   7
ENDBRANCH   1   6
TORSDOF 4
ENDMDL
MODEL 5
REMARK VINA RESULT:      -3.8      9.664     10.292
REMARK  Name = NuBBE_1376
REMARK  6 active torsions:
REMARK  status: ('A' for Active; 'I' for Inactive)
REMARK    1  A    between atoms: C_1  and  C_2
REMARK    2  A    between atoms: C_2  and  C_3
REMARK    3  A    between atoms: C_3  and  O_4
REMARK    4  A    between atoms: C_3  and  C_5
REMARK    5  A    between atoms: C_5  and  C_6
REMARK    6  A    between atoms: C_6  and  C_7
REMARK                            x       y       z     vdW  Elec       q    Type
REMARK                         _______ _______ _______ _____ _____    ______ ____
ROOT
ATOM      1  C   LIG A   1     -12.043   7.214 127.594  0.00  0.00    +0.114 C 
ENDROOT
BRANCH   1   3
ATOM      2  C   LIG A   1     -13.478   9.141 128.412  0.00  0.00    +0.006 C 
ATOM      3  C   LIG A   1     -13.462   7.774 127.741  0.00  0.00    +0.028 C 
ENDBRANCH   1   3
BRANCH   1   4
ATOM      4  O   LIG A   1     -11.888   6.643 126.296  0.00  0.00    -0.392 OA
ATOM      5  H   LIG A   1     -12.320   5.773 126.302  0.00  0.00    +0.210 HD
ENDBRANCH   1   4
BRANCH   1   6
ATOM      6  C   LIG A   1     -10.989   8.309 127.804  0.00  0.00    +0.031 C 
BRANCH   6   7
ATOM      7  C   LIG A   1     -10.054   7.995 128.975  0.00  0.00    -0.001 C 
ATOM      8  C   LIG A   1     -10.693   7.025 129.956  0.00  0.00    +0.004 C 
ENDBRANCH   6   7
ENDBRANCH   1   6
TORSDOF 4
ENDMDL
MODEL 6
REMARK VINA RESULT:      -3.8      9.419     11.021
REMARK  Name = NuBBE_1376
REMARK  6 active torsions:
REMARK  status: ('A' for Active; 'I' for Inactive)
REMARK    1  A    between atoms: C_1  and  C_2
REMARK    2  A    between atoms: C_2  and  C_3
REMARK    3  A    between atoms: C_3  and  O_4
REMARK    4  A    between atoms: C_3  and  C_5
REMARK    5  A    between atoms: C_5  and  C_6
REMARK    6  A    between atoms: C_6  and  C_7
REMARK                            x       y       z     vdW  Elec       q    Type
REMARK                         _______ _______ _______ _____ _____    ______ ____
ROOT
ATOM      1  C   LIG A   1     -12.202   6.962 128.866  0.00  0.00    +0.114 C 
ENDROOT
BRANCH   1   3
ATOM      2  C   LIG A   1     -12.838   9.336 129.499  0.00  0.00    +0.006 C 
ATOM      3  C   LIG A   1     -12.666   7.903 129.984  0.00  0.00    +0.028 C 
ENDBRANCH   1   3
BRANCH   1   4
ATOM      4  O   LIG A   1     -12.138   5.626 129.363  0.00  0.00    -0.392 OA
ATOM      5  H   LIG A   1     -12.735   5.565 130.128  0.00  0.00    +0.210 HD
ENDBRANCH   1   4
BRANCH   1   6
ATOM      6  C   LIG A   1     -13.152   7.019 127.662  0.00  0.00    +0.031 C 
BRANCH   6   7
ATOM      7  C   LIG A   1     -12.396   7.113 126.334  0.00  0.00    -0.001 C 
ATOM      8  C   LIG A   1     -10.983   7.637 126.531  0.00  0.00    +0.004 C 
ENDBRANCH   6   7
ENDBRANCH   1   6
TORSDOF 4
ENDMDL
MODEL 7
REMARK VINA RESULT:      -3.8      9.940     11.326
REMARK  Name = NuBBE_1376
REMARK  6 active torsions:
REMARK  status: ('A' for Active; 'I' for Inactive)
REMARK    1  A    between atoms: C_1  and  C_2
REMARK    2  A    between atoms: C_2  and  C_3
REMARK    3  A    between atoms: C_3  and  O_4
REMARK    4  A    between atoms: C_3  and  C_5
REMARK    5  A    between atoms: C_5  and  C_6
REMARK    6  A    between atoms: C_6  and  C_7
REMARK                            x       y       z     vdW  Elec       q    Type
REMARK                         _______ _______ _______ _____ _____    ______ ____
ROOT
ATOM      1  C   LIG A   1     -12.022   8.690 129.010  0.00  0.00    +0.114 C 
ENDROOT
BRANCH   1   3
ATOM      2  C   LIG A   1     -12.020   7.293 126.891  0.00  0.00    +0.006 C 
ATOM      3  C   LIG A   1     -11.252   8.291 127.746  0.00  0.00    +0.028 C 
ENDBRANCH   1   3
BRANCH   1   4
ATOM      4  O   LIG A   1     -12.844   9.821 128.730  0.00  0.00    -0.392 OA
ATOM      5  H   LIG A   1     -12.900  10.355 129.540  0.00  0.00    +0.210 HD
ENDBRANCH   1   4
BRANCH   1   6
ATOM      6  C   LIG A   1     -12.892   7.533 129.519  0.00  0.00    +0.031 C 
BRANCH   6   7
ATOM      7  C   LIG A   1     -12.913   7.455 131.048  0.00  0.00    -0.001 C 
ATOM      8  C   LIG A   1     -11.760   6.621 131.581  0.00  0.00    +0.004 C 
ENDBRANCH   6   7
ENDBRANCH   1   6
TORSDOF 4
ENDMDL
MODEL 8
REMARK VINA RESULT:      -3.7     10.175     11.537
REMARK  Name = NuBBE_1376
REMARK  6 active torsions:
REMARK  status: ('A' for Active; 'I' for Inactive)
REMARK    1  A    between atoms: C_1  and  C_2
REMARK    2  A    between atoms: C_2  and  C_3
REMARK    3  A    between atoms: C_3  and  O_4
REMARK    4  A    between atoms: C_3  and  C_5
REMARK    5  A    between atoms: C_5  and  C_6
REMARK    6  A    between atoms: C_6  and  C_7
REMARK                            x       y       z     vdW  Elec       q    Type
REMARK                         _______ _______ _______ _____ _____    ______ ____
ROOT
ATOM      1  C   LIG A   1     -12.978   6.914 129.113  0.00  0.00    +0.114 C 
ENDROOT
BRANCH   1   3
ATOM      2  C   LIG A   1     -12.562   7.047 126.613  0.00  0.00    +0.006 C 
ATOM      3  C   LIG A   1     -13.602   7.094 127.724  0.00  0.00    +0.028 C 
ENDBRANCH   1   3
BRANCH   1   4
ATOM      4  O   LIG A   1     -12.161   5.745 129.120  0.00  0.00    -0.392 OA
ATOM      5  H   LIG A   1     -11.334   5.958 128.655  0.00  0.00    +0.210 HD
ENDBRANCH   1   4
BRANCH   1   6
ATOM      6  C   LIG A   1     -12.137   8.134 129.508  0.00  0.00    +0.031 C 
BRANCH   6   7
ATOM      7  C   LIG A   1     -12.929   9.133 130.356  0.00  0.00    -0.001 C 
ATOM      8  C   LIG A   1     -13.298  10.374 129.559  0.00  0.00    +0.004 C 
ENDBRANCH   6   7
ENDBRANCH   1   6
TORSDOF 4
ENDMDL
MODEL 9
REMARK VINA RESULT:      -3.7      9.372     10.856
REMARK  Name = NuBBE_1376
REMARK  6 active torsions:
REMARK  status: ('A' for Active; 'I' for Inactive)
REMARK    1  A    between atoms: C_1  and  C_2
REMARK    2  A    between atoms: C_2  and  C_3
REMARK    3  A    between atoms: C_3  and  O_4
REMARK    4  A    between atoms: C_3  and  C_5
REMARK    5  A    between atoms: C_5  and  C_6
REMARK    6  A    between atoms: C_6  and  C_7
REMARK                            x       y       z     vdW  Elec       q    Type
REMARK                         _______ _______ _______ _____ _____    ______ ____
ROOT
ATOM      1  C   LIG A   1     -11.952   7.812 127.237  0.00  0.00    +0.114 C 
ENDROOT
BRANCH   1   3
ATOM      2  C   LIG A   1     -10.354   7.662 129.203  0.00  0.00    +0.006 C 
ATOM      3  C   LIG A   1     -10.490   7.843 127.697  0.00  0.00    +0.028 C 
ENDBRANCH   1   3
BRANCH   1   4
ATOM      4  O   LIG A   1     -12.218   6.575 126.578  0.00  0.00    -0.392 OA
ATOM      5  H   LIG A   1     -13.130   6.606 126.245  0.00  0.00    +0.210 HD
ENDBRANCH   1   4
BRANCH   1   6
ATOM      6  C   LIG A   1     -12.911   7.980 128.423  0.00  0.00    +0.031 C 
BRANCH   6   7
ATOM      7  C   LIG A   1     -13.510   9.388 128.486  0.00  0.00    -0.001 C 
ATOM      8  C   LIG A   1     -13.142  10.094 129.781  0.00  0.00    +0.004 C 
ENDBRANCH   6   7
ENDBRANCH   1   6
TORSDOF 4
ENDMDL
