MODEL 1
REMARK VINA RESULT:      -9.0      0.000      0.000
REMARK  Name = NuBBE_2515
REMARK  7 active torsions:
REMARK  status: ('A' for Active; 'I' for Inactive)
REMARK    1  A    between atoms: C_1  and  C_2
REMARK    2  A    between atoms: C_1  and  C_4
REMARK    3  A    between atoms: C_9  and  O_11
REMARK    4  A    between atoms: O_11  and  C_12
REMARK    5  A    between atoms: C_14  and  C_19
REMARK    6  A    between atoms: C_16  and  C_18
REMARK    7  A    between atoms: C_19  and  C_20
REMARK                            x       y       z     vdW  Elec       q    Type
REMARK                         _______ _______ _______ _____ _____    ______ ____
ROOT
ATOM      1  C   LIG A   1      -6.736  -1.308 124.854  0.00  0.00    +0.059 C 
ATOM      2  C   LIG A   1      -7.363  -1.105 123.504  0.00  0.00    +0.113 C 
ATOM      3  C   LIG A   1      -8.393  -1.802 123.023  0.00  0.00    +0.096 C 
ATOM      4  C   LIG A   1      -9.045  -2.817 123.880  0.00  0.00    +0.223 C 
ATOM      5  O   LIG A   1      -9.826  -3.605 123.368  0.00  0.00    -0.284 OA
ATOM      6  C   LIG A   1      -8.752  -2.746 125.365  0.00  0.00    +0.164 C 
ATOM      7  C   LIG A   1      -7.685  -2.039 125.780  0.00  0.00    +0.038 C 
ATOM      8  O   LIG A   1      -6.903   0.015 122.852  0.00  0.00    -0.491 OA
ATOM      9  C   LIG A   1      -6.499   0.928 123.890  0.00  0.00    +0.181 C 
ATOM     10  C   LIG A   1      -6.584   0.175 125.240  0.00  0.00    +0.045 C 
ATOM     11  C   LIG A   1      -5.423   0.539 126.164  0.00  0.00    +0.012 C 
ENDROOT
BRANCH   6  12
ATOM     12  O   LIG A   1      -9.527  -3.368 126.335  0.00  0.00    -0.492 OA
ATOM     13  C   LIG A   1      -8.877  -3.731 127.547  0.00  0.00    +0.277 C 
ENDBRANCH   6  12
BRANCH   1  14
ATOM     14  C   LIG A   1      -5.384  -2.079 124.757  0.00  0.00    +0.045 C 
BRANCH  14  15
ATOM     15  C   LIG A   1      -5.281  -3.051 123.601  0.00  0.00    -0.033 C 
ATOM     16  C   LIG A   1      -4.487  -4.129 123.582  0.00  0.00    +0.004 C 
ENDBRANCH  14  15
ENDBRANCH   1  14
BRANCH   9  17
ATOM     17  C   LIG A   1      -7.446   2.144 123.890  0.00  0.00    +0.080 C 
BRANCH  17  18
ATOM     18  C   LIG A   1      -7.507   2.879 122.572  0.00  0.00    -0.040 A 
ATOM     19  C   LIG A   1      -6.332   3.400 122.001  0.00  0.00    +0.053 A 
ATOM     20  C   LIG A   1      -6.426   4.031 120.779  0.00  0.00    +0.167 A 
ATOM     21  C   LIG A   1      -7.626   4.161 120.123  0.00  0.00    +0.166 A 
ATOM     22  C   LIG A   1      -8.800   3.678 120.658  0.00  0.00    +0.050 A 
ATOM     23  C   LIG A   1      -8.738   3.034 121.898  0.00  0.00    +0.007 A 
ATOM     24  O   LIG A   1      -7.499   4.794 118.928  0.00  0.00    -0.453 OA
ATOM     25  C   LIG A   1      -6.074   5.026 118.895  0.00  0.00    +0.466 C 
ATOM     26  O   LIG A   1      -5.391   4.570 120.081  0.00  0.00    -0.453 OA
ENDBRANCH  17  18
ENDBRANCH   9  17
TORSDOF 5
ENDMDL
MODEL 2
REMARK VINA RESULT:      -8.3      2.870      4.123
REMARK  Name = NuBBE_2515
REMARK  7 active torsions:
REMARK  status: ('A' for Active; 'I' for Inactive)
REMARK    1  A    between atoms: C_1  and  C_2
REMARK    2  A    between atoms: C_1  and  C_4
REMARK    3  A    between atoms: C_9  and  O_11
REMARK    4  A    between atoms: O_11  and  C_12
REMARK    5  A    between atoms: C_14  and  C_19
REMARK    6  A    between atoms: C_16  and  C_18
REMARK    7  A    between atoms: C_19  and  C_20
REMARK                            x       y       z     vdW  Elec       q    Type
REMARK                         _______ _______ _______ _____ _____    ______ ____
ROOT
ATOM      1  C   LIG A   1      -7.252  -2.683 124.628  0.00  0.00    +0.059 C 
ATOM      2  C   LIG A   1      -8.693  -3.002 124.910  0.00  0.00    +0.113 C 
ATOM      3  C   LIG A   1      -9.208  -3.225 126.120  0.00  0.00    +0.096 C 
ATOM      4  C   LIG A   1      -8.343  -3.089 127.312  0.00  0.00    +0.223 C 
ATOM      5  O   LIG A   1      -8.748  -3.514 128.384  0.00  0.00    -0.284 OA
ATOM      6  C   LIG A   1      -7.034  -2.348 127.126  0.00  0.00    +0.164 C 
ATOM      7  C   LIG A   1      -6.563  -2.174 125.877  0.00  0.00    +0.038 C 
ATOM      8  O   LIG A   1      -9.508  -2.857 123.812  0.00  0.00    -0.491 OA
ATOM      9  C   LIG A   1      -8.869  -1.867 122.984  0.00  0.00    +0.181 C 
ATOM     10  C   LIG A   1      -7.482  -1.560 123.601  0.00  0.00    +0.045 C 
ATOM     11  C   LIG A   1      -6.415  -1.371 122.525  0.00  0.00    +0.012 C 
ENDROOT
BRANCH   6  12
ATOM     12  O   LIG A   1      -6.286  -1.829 128.173  0.00  0.00    -0.492 OA
ATOM     13  C   LIG A   1      -5.001  -2.396 128.393  0.00  0.00    +0.277 C 
ENDBRANCH   6  12
BRANCH   1  14
ATOM     14  C   LIG A   1      -6.484  -3.915 124.059  0.00  0.00    +0.045 C 
BRANCH  14  15
ATOM     15  C   LIG A   1      -4.986  -3.894 124.278  0.00  0.00    -0.033 C 
ATOM     16  C   LIG A   1      -4.100  -4.572 123.538  0.00  0.00    +0.004 C 
ENDBRANCH  14  15
ENDBRANCH   1  14
BRANCH   9  17
ATOM     17  C   LIG A   1      -9.739  -0.596 122.953  0.00  0.00    +0.080 C 
BRANCH  17  18
ATOM     18  C   LIG A   1      -9.315   0.466 123.940  0.00  0.00    -0.040 A 
ATOM     19  C   LIG A   1      -8.827   1.703 123.478  0.00  0.00    +0.053 A 
ATOM     20  C   LIG A   1      -8.487   2.658 124.412  0.00  0.00    +0.167 A 
ATOM     21  C   LIG A   1      -8.609   2.427 125.760  0.00  0.00    +0.166 A 
ATOM     22  C   LIG A   1      -9.067   1.224 126.251  0.00  0.00    +0.050 A 
ATOM     23  C   LIG A   1      -9.419   0.233 125.328  0.00  0.00    +0.007 A 
ATOM     24  O   LIG A   1      -8.241   3.501 126.507  0.00  0.00    -0.453 OA
ATOM     25  C   LIG A   1      -7.896   4.445 125.472  0.00  0.00    +0.466 C 
ATOM     26  O   LIG A   1      -8.022   3.906 124.139  0.00  0.00    -0.453 OA
ENDBRANCH  17  18
ENDBRANCH   9  17
TORSDOF 5
ENDMDL
MODEL 3
REMARK VINA RESULT:      -7.6      3.971      5.631
REMARK  Name = NuBBE_2515
REMARK  7 active torsions:
REMARK  status: ('A' for Active; 'I' for Inactive)
REMARK    1  A    between atoms: C_1  and  C_2
REMARK    2  A    between atoms: C_1  and  C_4
REMARK    3  A    between atoms: C_9  and  O_11
REMARK    4  A    between atoms: O_11  and  C_12
REMARK    5  A    between atoms: C_14  and  C_19
REMARK    6  A    between atoms: C_16  and  C_18
REMARK    7  A    between atoms: C_19  and  C_20
REMARK                            x       y       z     vdW  Elec       q    Type
REMARK                         _______ _______ _______ _____ _____    ______ ____
ROOT
ATOM      1  C   LIG A   1      -7.410  -0.718 126.129  0.00  0.00    +0.059 C 
ATOM      2  C   LIG A   1      -5.930  -0.929 125.975  0.00  0.00    +0.113 C 
ATOM      3  C   LIG A   1      -5.363  -1.839 125.183  0.00  0.00    +0.096 C 
ATOM      4  C   LIG A   1      -6.217  -2.681 124.318  0.00  0.00    +0.223 C 
ATOM      5  O   LIG A   1      -5.723  -3.658 123.774  0.00  0.00    -0.284 OA
ATOM      6  C   LIG A   1      -7.643  -2.214 124.103  0.00  0.00    +0.164 C 
ATOM      7  C   LIG A   1      -8.159  -1.306 124.952  0.00  0.00    +0.038 C 
ATOM      8  O   LIG A   1      -5.175   0.043 126.589  0.00  0.00    -0.491 OA
ATOM      9  C   LIG A   1      -5.999   1.224 126.600  0.00  0.00    +0.181 C 
ATOM     10  C   LIG A   1      -7.407   0.821 126.099  0.00  0.00    +0.045 C 
ATOM     11  C   LIG A   1      -8.509   1.535 126.879  0.00  0.00    +0.012 C 
ENDROOT
BRANCH   6  12
ATOM     12  O   LIG A   1      -8.456  -2.665 123.073  0.00  0.00    -0.492 OA
ATOM     13  C   LIG A   1      -9.606  -3.417 123.439  0.00  0.00    +0.277 C 
ENDBRANCH   6  12
BRANCH   1  14
ATOM     14  C   LIG A   1      -7.948  -1.324 127.462  0.00  0.00    +0.045 C 
BRANCH  14  15
ATOM     15  C   LIG A   1      -8.281  -2.800 127.406  0.00  0.00    -0.033 C 
ATOM     16  C   LIG A   1      -8.411  -3.591 128.478  0.00  0.00    +0.004 C 
ENDBRANCH  14  15
ENDBRANCH   1  14
BRANCH   9  17
ATOM     17  C   LIG A   1      -5.377   2.283 125.668  0.00  0.00    +0.080 C 
BRANCH  17  18
ATOM     18  C   LIG A   1      -4.445   3.246 126.363  0.00  0.00    -0.040 A 
ATOM     19  C   LIG A   1      -4.917   4.503 126.785  0.00  0.00    +0.053 A 
ATOM     20  C   LIG A   1      -4.043   5.337 127.449  0.00  0.00    +0.167 A 
ATOM     21  C   LIG A   1      -2.743   4.970 127.699  0.00  0.00    +0.166 A 
ATOM     22  C   LIG A   1      -2.241   3.755 127.288  0.00  0.00    +0.050 A 
ATOM     23  C   LIG A   1      -3.102   2.887 126.609  0.00  0.00    +0.007 A 
ATOM     24  O   LIG A   1      -2.056   5.924 128.382  0.00  0.00    -0.453 OA
ATOM     25  C   LIG A   1      -3.083   6.923 128.556  0.00  0.00    +0.466 C 
ATOM     26  O   LIG A   1      -4.338   6.570 127.940  0.00  0.00    -0.453 OA
ENDBRANCH  17  18
ENDBRANCH   9  17
TORSDOF 5
ENDMDL
MODEL 4
REMARK VINA RESULT:      -7.6      3.003      8.092
REMARK  Name = NuBBE_2515
REMARK  7 active torsions:
REMARK  status: ('A' for Active; 'I' for Inactive)
REMARK    1  A    between atoms: C_1  and  C_2
REMARK    2  A    between atoms: C_1  and  C_4
REMARK    3  A    between atoms: C_9  and  O_11
REMARK    4  A    between atoms: O_11  and  C_12
REMARK    5  A    between atoms: C_14  and  C_19
REMARK    6  A    between atoms: C_16  and  C_18
REMARK    7  A    between atoms: C_19  and  C_20
REMARK                            x       y       z     vdW  Elec       q    Type
REMARK                         _______ _______ _______ _____ _____    ______ ____
ROOT
ATOM      1  C   LIG A   1      -7.156  -1.475 124.291  0.00  0.00    +0.059 C 
ATOM      2  C   LIG A   1      -6.377  -1.375 125.572  0.00  0.00    +0.113 C 
ATOM      3  C   LIG A   1      -5.818  -0.262 126.047  0.00  0.00    +0.096 C 
ATOM      4  C   LIG A   1      -6.014   1.013 125.322  0.00  0.00    +0.223 C 
ATOM      5  O   LIG A   1      -5.321   1.974 125.624  0.00  0.00    -0.284 OA
ATOM      6  C   LIG A   1      -7.134   1.054 124.302  0.00  0.00    +0.164 C 
ATOM      7  C   LIG A   1      -7.640  -0.109 123.853  0.00  0.00    +0.038 C 
ATOM      8  O   LIG A   1      -6.445  -2.514 126.341  0.00  0.00    -0.491 OA
ATOM      9  C   LIG A   1      -7.701  -3.133 126.005  0.00  0.00    +0.181 C 
ATOM     10  C   LIG A   1      -8.307  -2.353 124.813  0.00  0.00    +0.045 C 
ATOM     11  C   LIG A   1      -8.979  -3.289 123.809  0.00  0.00    +0.012 C 
ENDROOT
BRANCH   6  12
ATOM     12  O   LIG A   1      -7.679   2.228 123.802  0.00  0.00    -0.492 OA
ATOM     13  C   LIG A   1      -8.636   2.895 124.615  0.00  0.00    +0.277 C 
ENDBRANCH   6  12
BRANCH   1  14
ATOM     14  C   LIG A   1      -6.320  -2.136 123.153  0.00  0.00    +0.045 C 
BRANCH  14  15
ATOM     15  C   LIG A   1      -4.994  -2.722 123.588  0.00  0.00    -0.033 C 
ATOM     16  C   LIG A   1      -4.707  -4.030 123.598  0.00  0.00    +0.004 C 
ENDBRANCH  14  15
ENDBRANCH   1  14
BRANCH   9  17
ATOM     17  C   LIG A   1      -8.640  -3.067 127.225  0.00  0.00    +0.080 C 
BRANCH  17  18
ATOM     18  C   LIG A   1      -7.935  -2.789 128.532  0.00  0.00    -0.040 A 
ATOM     19  C   LIG A   1      -7.307  -3.837 129.231  0.00  0.00    +0.053 A 
ATOM     20  C   LIG A   1      -6.642  -3.533 130.400  0.00  0.00    +0.167 A 
ATOM     21  C   LIG A   1      -6.587  -2.250 130.887  0.00  0.00    +0.166 A 
ATOM     22  C   LIG A   1      -7.203  -1.202 130.240  0.00  0.00    +0.050 A 
ATOM     23  C   LIG A   1      -7.887  -1.478 129.052  0.00  0.00    +0.007 A 
ATOM     24  O   LIG A   1      -5.869  -2.162 132.038  0.00  0.00    -0.453 OA
ATOM     25  C   LIG A   1      -5.456  -3.535 132.204  0.00  0.00    +0.466 C 
ATOM     26  O   LIG A   1      -5.969  -4.416 131.184  0.00  0.00    -0.453 OA
ENDBRANCH  17  18
ENDBRANCH   9  17
TORSDOF 5
ENDMDL
MODEL 5
REMARK VINA RESULT:      -7.6      3.677      7.444
REMARK  Name = NuBBE_2515
REMARK  7 active torsions:
REMARK  status: ('A' for Active; 'I' for Inactive)
REMARK    1  A    between atoms: C_1  and  C_2
REMARK    2  A    between atoms: C_1  and  C_4
REMARK    3  A    between atoms: C_9  and  O_11
REMARK    4  A    between atoms: O_11  and  C_12
REMARK    5  A    between atoms: C_14  and  C_19
REMARK    6  A    between atoms: C_16  and  C_18
REMARK    7  A    between atoms: C_19  and  C_20
REMARK                            x       y       z     vdW  Elec       q    Type
REMARK                         _______ _______ _______ _____ _____    ______ ____
ROOT
ATOM      1  C   LIG A   1      -7.806  -2.020 126.363  0.00  0.00    +0.059 C 
ATOM      2  C   LIG A   1      -6.400  -1.493 126.311  0.00  0.00    +0.113 C 
ATOM      3  C   LIG A   1      -6.021  -0.375 125.691  0.00  0.00    +0.096 C 
ATOM      4  C   LIG A   1      -7.044   0.480 125.049  0.00  0.00    +0.223 C 
ATOM      5  O   LIG A   1      -6.677   1.368 124.293  0.00  0.00    -0.284 OA
ATOM      6  C   LIG A   1      -8.485   0.238 125.450  0.00  0.00    +0.164 C 
ATOM      7  C   LIG A   1      -8.801  -0.920 126.057  0.00  0.00    +0.038 C 
ATOM      8  O   LIG A   1      -5.534  -2.170 127.137  0.00  0.00    -0.491 OA
ATOM      9  C   LIG A   1      -6.346  -2.689 128.207  0.00  0.00    +0.181 C 
ATOM     10  C   LIG A   1      -7.828  -2.417 127.850  0.00  0.00    +0.045 C 
ATOM     11  C   LIG A   1      -8.727  -3.587 128.245  0.00  0.00    +0.012 C 
ENDROOT
BRANCH   6  12
ATOM     12  O   LIG A   1      -9.509   1.149 125.231  0.00  0.00    -0.492 OA
ATOM     13  C   LIG A   1     -10.050   1.211 123.917  0.00  0.00    +0.277 C 
ENDBRANCH   6  12
BRANCH   1  14
ATOM     14  C   LIG A   1      -8.015  -3.217 125.384  0.00  0.00    +0.045 C 
BRANCH  14  15
ATOM     15  C   LIG A   1      -9.309  -3.184 124.599  0.00  0.00    -0.033 C 
ATOM     16  C   LIG A   1      -9.387  -3.145 123.263  0.00  0.00    +0.004 C 
ENDBRANCH  14  15
ENDBRANCH   1  14
BRANCH   9  17
ATOM     17  C   LIG A   1      -5.969  -1.974 129.520  0.00  0.00    +0.080 C 
BRANCH  17  18
ATOM     18  C   LIG A   1      -6.840  -0.784 129.847  0.00  0.00    -0.040 A 
ATOM     19  C   LIG A   1      -7.880  -0.910 130.786  0.00  0.00    +0.053 A 
ATOM     20  C   LIG A   1      -8.627   0.209 131.084  0.00  0.00    +0.167 A 
ATOM     21  C   LIG A   1      -8.381   1.422 130.488  0.00  0.00    +0.166 A 
ATOM     22  C   LIG A   1      -7.382   1.581 129.553  0.00  0.00    +0.050 A 
ATOM     23  C   LIG A   1      -6.607   0.462 129.227  0.00  0.00    +0.007 A 
ATOM     24  O   LIG A   1      -9.214   2.399 130.934  0.00  0.00    -0.453 OA
ATOM     25  C   LIG A   1      -9.998   1.666 131.899  0.00  0.00    +0.466 C 
ATOM     26  O   LIG A   1      -9.650   0.268 131.978  0.00  0.00    -0.453 OA
ENDBRANCH  17  18
ENDBRANCH   9  17
TORSDOF 5
ENDMDL
MODEL 6
REMARK VINA RESULT:      -7.5      4.055      9.344
REMARK  Name = NuBBE_2515
REMARK  7 active torsions:
REMARK  status: ('A' for Active; 'I' for Inactive)
REMARK    1  A    between atoms: C_1  and  C_2
REMARK    2  A    between atoms: C_1  and  C_4
REMARK    3  A    between atoms: C_9  and  O_11
REMARK    4  A    between atoms: O_11  and  C_12
REMARK    5  A    between atoms: C_14  and  C_19
REMARK    6  A    between atoms: C_16  and  C_18
REMARK    7  A    between atoms: C_19  and  C_20
REMARK                            x       y       z     vdW  Elec       q    Type
REMARK                         _______ _______ _______ _____ _____    ______ ____
ROOT
ATOM      1  C   LIG A   1      -7.942  -2.141 125.951  0.00  0.00    +0.059 C 
ATOM      2  C   LIG A   1      -6.708  -1.357 126.296  0.00  0.00    +0.113 C 
ATOM      3  C   LIG A   1      -6.423  -0.136 125.844  0.00  0.00    +0.096 C 
ATOM      4  C   LIG A   1      -7.402   0.568 124.987  0.00  0.00    +0.223 C 
ATOM      5  O   LIG A   1      -7.047   1.574 124.391  0.00  0.00    -0.284 OA
ATOM      6  C   LIG A   1      -8.817   0.023 124.979  0.00  0.00    +0.164 C 
ATOM      7  C   LIG A   1      -9.031  -1.225 125.435  0.00  0.00    +0.038 C 
ATOM      8  O   LIG A   1      -5.959  -1.932 127.296  0.00  0.00    -0.491 OA
ATOM      9  C   LIG A   1      -6.890  -2.690 128.090  0.00  0.00    +0.181 C 
ATOM     10  C   LIG A   1      -8.257  -2.670 127.362  0.00  0.00    +0.045 C 
ATOM     11  C   LIG A   1      -8.967  -4.019 127.457  0.00  0.00    +0.012 C 
ENDROOT
BRANCH   6  12
ATOM     12  O   LIG A   1      -9.917   0.742 124.532  0.00  0.00    -0.492 OA
ATOM     13  C   LIG A   1     -10.108   0.821 123.125  0.00  0.00    +0.277 C 
ENDBRANCH   6  12
BRANCH   1  14
ATOM     14  C   LIG A   1      -7.646  -3.261 124.906  0.00  0.00    +0.045 C 
BRANCH  14  15
ATOM     15  C   LIG A   1      -6.468  -2.991 123.994  0.00  0.00    -0.033 C 
ATOM     16  C   LIG A   1      -5.334  -3.703 123.986  0.00  0.00    +0.004 C 
ENDBRANCH  14  15
ENDBRANCH   1  14
BRANCH   9  17
ATOM     17  C   LIG A   1      -7.013  -2.041 129.483  0.00  0.00    +0.080 C 
BRANCH  17  18
ATOM     18  C   LIG A   1      -6.612  -2.947 130.623  0.00  0.00    -0.040 A 
ATOM     19  C   LIG A   1      -7.133  -2.729 131.912  0.00  0.00    +0.053 A 
ATOM     20  C   LIG A   1      -6.771  -3.601 132.916  0.00  0.00    +0.167 A 
ATOM     21  C   LIG A   1      -5.924  -4.658 132.685  0.00  0.00    +0.166 A 
ATOM     22  C   LIG A   1      -5.382  -4.894 131.441  0.00  0.00    +0.050 A 
ATOM     23  C   LIG A   1      -5.728  -4.024 130.401  0.00  0.00    +0.007 A 
ATOM     24  O   LIG A   1      -5.711  -5.406 133.800  0.00  0.00    -0.453 OA
ATOM     25  C   LIG A   1      -6.544  -4.713 134.753  0.00  0.00    +0.466 C 
ATOM     26  O   LIG A   1      -7.196  -3.549 134.206  0.00  0.00    -0.453 OA
ENDBRANCH  17  18
ENDBRANCH   9  17
TORSDOF 5
ENDMDL
MODEL 7
REMARK VINA RESULT:      -7.4      7.684      9.671
REMARK  Name = NuBBE_2515
REMARK  7 active torsions:
REMARK  status: ('A' for Active; 'I' for Inactive)
REMARK    1  A    between atoms: C_1  and  C_2
REMARK    2  A    between atoms: C_1  and  C_4
REMARK    3  A    between atoms: C_9  and  O_11
REMARK    4  A    between atoms: O_11  and  C_12
REMARK    5  A    between atoms: C_14  and  C_19
REMARK    6  A    between atoms: C_16  and  C_18
REMARK    7  A    between atoms: C_19  and  C_20
REMARK                            x       y       z     vdW  Elec       q    Type
REMARK                         _______ _______ _______ _____ _____    ______ ____
ROOT
ATOM      1  C   LIG A   1      -7.512   2.963 130.833  0.00  0.00    +0.059 C 
ATOM      2  C   LIG A   1      -6.436   4.008 130.921  0.00  0.00    +0.113 C 
ATOM      3  C   LIG A   1      -5.850   4.597 129.878  0.00  0.00    +0.096 C 
ATOM      4  C   LIG A   1      -6.314   4.278 128.510  0.00  0.00    +0.223 C 
ATOM      5  O   LIG A   1      -5.634   4.636 127.560  0.00  0.00    -0.284 OA
ATOM      6  C   LIG A   1      -7.662   3.595 128.388  0.00  0.00    +0.164 C 
ATOM      7  C   LIG A   1      -8.186   3.004 129.477  0.00  0.00    +0.038 C 
ATOM      8  O   LIG A   1      -6.223   4.464 132.201  0.00  0.00    -0.491 OA
ATOM      9  C   LIG A   1      -7.478   4.291 132.886  0.00  0.00    +0.181 C 
ATOM     10  C   LIG A   1      -8.426   3.508 131.946  0.00  0.00    +0.045 C 
ATOM     11  C   LIG A   1      -9.270   2.492 132.713  0.00  0.00    +0.012 C 
ENDROOT
BRANCH   6  12
ATOM     12  O   LIG A   1      -8.397   3.544 127.212  0.00  0.00    -0.492 OA
ATOM     13  C   LIG A   1      -8.038   2.542 126.268  0.00  0.00    +0.277 C 
ENDBRANCH   6  12
BRANCH   1  14
ATOM     14  C   LIG A   1      -6.958   1.532 131.111  0.00  0.00    +0.045 C 
BRANCH  14  15
ATOM     15  C   LIG A   1      -7.581   0.431 130.280  0.00  0.00    -0.033 C 
ATOM     16  C   LIG A   1      -8.211  -0.638 130.783  0.00  0.00    +0.004 C 
ENDBRANCH  14  15
ENDBRANCH   1  14
BRANCH   9  17
ATOM     17  C   LIG A   1      -8.069   5.676 133.215  0.00  0.00    +0.080 C 
BRANCH  17  18
ATOM     18  C   LIG A   1      -9.056   6.185 132.190  0.00  0.00    -0.040 A 
ATOM     19  C   LIG A   1     -10.438   6.082 132.432  0.00  0.00    +0.053 A 
ATOM     20  C   LIG A   1     -11.303   6.593 131.488  0.00  0.00    +0.167 A 
ATOM     21  C   LIG A   1     -10.848   7.186 130.336  0.00  0.00    +0.166 A 
ATOM     22  C   LIG A   1      -9.503   7.292 130.057  0.00  0.00    +0.050 A 
ATOM     23  C   LIG A   1      -8.599   6.781 130.995  0.00  0.00    +0.007 A 
ATOM     24  O   LIG A   1     -11.860   7.641 129.550  0.00  0.00    -0.453 OA
ATOM     25  C   LIG A   1     -13.005   7.287 130.354  0.00  0.00    +0.466 C 
ATOM     26  O   LIG A   1     -12.660   6.595 131.572  0.00  0.00    -0.453 OA
ENDBRANCH  17  18
ENDBRANCH   9  17
TORSDOF 5
ENDMDL
MODEL 8
REMARK VINA RESULT:      -7.4      4.518      9.197
REMARK  Name = NuBBE_2515
REMARK  7 active torsions:
REMARK  status: ('A' for Active; 'I' for Inactive)
REMARK    1  A    between atoms: C_1  and  C_2
REMARK    2  A    between atoms: C_1  and  C_4
REMARK    3  A    between atoms: C_9  and  O_11
REMARK    4  A    between atoms: O_11  and  C_12
REMARK    5  A    between atoms: C_14  and  C_19
REMARK    6  A    between atoms: C_16  and  C_18
REMARK    7  A    between atoms: C_19  and  C_20
REMARK                            x       y       z     vdW  Elec       q    Type
REMARK                         _______ _______ _______ _____ _____    ______ ____
ROOT
ATOM      1  C   LIG A   1      -7.944  -2.071 126.382  0.00  0.00    +0.059 C 
ATOM      2  C   LIG A   1      -6.531  -1.811 125.944  0.00  0.00    +0.113 C 
ATOM      3  C   LIG A   1      -6.148  -0.831 125.125  0.00  0.00    +0.096 C 
ATOM      4  C   LIG A   1      -7.152   0.143 124.640  0.00  0.00    +0.223 C 
ATOM      5  O   LIG A   1      -6.851   0.889 123.720  0.00  0.00    -0.284 OA
ATOM      6  C   LIG A   1      -8.468   0.196 125.389  0.00  0.00    +0.164 C 
ATOM      7  C   LIG A   1      -8.800  -0.837 126.186  0.00  0.00    +0.038 C 
ATOM      8  O   LIG A   1      -5.603  -2.567 126.621  0.00  0.00    -0.491 OA
ATOM      9  C   LIG A   1      -6.194  -2.846 127.904  0.00  0.00    +0.181 C 
ATOM     10  C   LIG A   1      -7.658  -2.341 127.870  0.00  0.00    +0.045 C 
ATOM     11  C   LIG A   1      -8.602  -3.296 128.599  0.00  0.00    +0.012 C 
ENDROOT
BRANCH   6  12
ATOM     12  O   LIG A   1      -9.360   1.256 125.307  0.00  0.00    -0.492 OA
ATOM     13  C   LIG A   1     -10.232   1.282 124.184  0.00  0.00    +0.277 C 
ENDBRANCH   6  12
BRANCH   1  14
ATOM     14  C   LIG A   1      -8.573  -3.282 125.627  0.00  0.00    +0.045 C 
BRANCH  14  15
ATOM     15  C   LIG A   1      -8.359  -3.285 124.129  0.00  0.00    -0.033 C 
ATOM     16  C   LIG A   1      -9.290  -2.948 123.227  0.00  0.00    +0.004 C 
ENDBRANCH  14  15
ENDBRANCH   1  14
BRANCH   9  17
ATOM     17  C   LIG A   1      -5.397  -2.112 129.000  0.00  0.00    +0.080 C 
BRANCH  17  18
ATOM     18  C   LIG A   1      -5.006  -2.985 130.169  0.00  0.00    -0.040 A 
ATOM     19  C   LIG A   1      -3.989  -2.571 131.049  0.00  0.00    +0.053 A 
ATOM     20  C   LIG A   1      -3.690  -3.379 132.125  0.00  0.00    +0.167 A 
ATOM     21  C   LIG A   1      -4.352  -4.562 132.346  0.00  0.00    +0.166 A 
ATOM     22  C   LIG A   1      -5.342  -5.008 131.499  0.00  0.00    +0.050 A 
ATOM     23  C   LIG A   1      -5.668  -4.211 130.396  0.00  0.00    +0.007 A 
ATOM     24  O   LIG A   1      -3.921  -5.196 133.468  0.00  0.00    -0.453 OA
ATOM     25  C   LIG A   1      -2.928  -4.262 133.942  0.00  0.00    +0.466 C 
ATOM     26  O   LIG A   1      -2.755  -3.121 133.077  0.00  0.00    -0.453 OA
ENDBRANCH  17  18
ENDBRANCH   9  17
TORSDOF 5
ENDMDL
MODEL 9
REMARK VINA RESULT:      -7.3      4.811      6.941
REMARK  Name = NuBBE_2515
REMARK  7 active torsions:
REMARK  status: ('A' for Active; 'I' for Inactive)
REMARK    1  A    between atoms: C_1  and  C_2
REMARK    2  A    between atoms: C_1  and  C_4
REMARK    3  A    between atoms: C_9  and  O_11
REMARK    4  A    between atoms: O_11  and  C_12
REMARK    5  A    between atoms: C_14  and  C_19
REMARK    6  A    between atoms: C_16  and  C_18
REMARK    7  A    between atoms: C_19  and  C_20
REMARK                            x       y       z     vdW  Elec       q    Type
REMARK                         _______ _______ _______ _____ _____    ______ ____
ROOT
ATOM      1  C   LIG A   1      -7.414   1.417 124.496  0.00  0.00    +0.059 C 
ATOM      2  C   LIG A   1      -8.786   1.973 124.756  0.00  0.00    +0.113 C 
ATOM      3  C   LIG A   1      -9.901   1.587 124.135  0.00  0.00    +0.096 C 
ATOM      4  C   LIG A   1      -9.839   0.480 123.155  0.00  0.00    +0.223 C 
ATOM      5  O   LIG A   1     -10.801   0.285 122.426  0.00  0.00    -0.284 OA
ATOM      6  C   LIG A   1      -8.601  -0.393 123.188  0.00  0.00    +0.164 C 
ATOM      7  C   LIG A   1      -7.504   0.066 123.818  0.00  0.00    +0.038 C 
ATOM      8  O   LIG A   1      -8.839   2.803 125.851  0.00  0.00    -0.491 OA
ATOM      9  C   LIG A   1      -7.781   2.361 126.723  0.00  0.00    +0.181 C 
ATOM     10  C   LIG A   1      -6.955   1.296 125.961  0.00  0.00    +0.045 C 
ATOM     11  C   LIG A   1      -5.459   1.438 126.236  0.00  0.00    +0.012 C 
ENDROOT
BRANCH   6  12
ATOM     12  O   LIG A   1      -8.528  -1.652 122.607  0.00  0.00    -0.492 OA
ATOM     13  C   LIG A   1      -9.085  -2.735 123.341  0.00  0.00    +0.277 C 
ENDBRANCH   6  12
BRANCH   1  14
ATOM     14  C   LIG A   1      -6.546   2.389 123.639  0.00  0.00    +0.045 C 
BRANCH  14  15
ATOM     15  C   LIG A   1      -7.299   3.140 122.561  0.00  0.00    -0.033 C 
ATOM     16  C   LIG A   1      -6.761   3.561 121.410  0.00  0.00    +0.004 C 
ENDBRANCH  14  15
ENDBRANCH   1  14
BRANCH   9  17
ATOM     17  C   LIG A   1      -8.397   1.755 127.999  0.00  0.00    +0.080 C 
BRANCH  17  18
ATOM     18  C   LIG A   1      -8.590   2.746 129.122  0.00  0.00    -0.040 A 
ATOM     19  C   LIG A   1      -8.233   4.095 128.940  0.00  0.00    +0.053 A 
ATOM     20  C   LIG A   1      -8.461   4.974 129.977  0.00  0.00    +0.167 A 
ATOM     21  C   LIG A   1      -9.017   4.563 131.164  0.00  0.00    +0.166 A 
ATOM     22  C   LIG A   1      -9.366   3.249 131.385  0.00  0.00    +0.050 A 
ATOM     23  C   LIG A   1      -9.144   2.331 130.352  0.00  0.00    +0.007 A 
ATOM     24  O   LIG A   1      -9.176   5.585 132.045  0.00  0.00    -0.453 OA
ATOM     25  C   LIG A   1      -8.679   6.693 131.266  0.00  0.00    +0.466 C 
ATOM     26  O   LIG A   1      -8.195   6.307 129.963  0.00  0.00    -0.453 OA
ENDBRANCH  17  18
ENDBRANCH   9  17
TORSDOF 5
ENDMDL
