MODEL 1
REMARK VINA RESULT:      -6.8      0.000      0.000
REMARK  Name = NuBBE_1615
REMARK  4 active torsions:
REMARK  status: ('A' for Active; 'I' for Inactive)
REMARK    1  A    between atoms: C_7  and  O_14
REMARK    2  A    between atoms: C_11  and  O_12
REMARK    3  A    between atoms: O_12  and  C_13
REMARK    4  A    between atoms: O_14  and  C_15
REMARK                            x       y       z     vdW  Elec       q    Type
REMARK                         _______ _______ _______ _____ _____    ______ ____
ROOT
ATOM      1  O   LIG A   1     -10.633   8.683 128.046  0.00  0.00    -0.241 OA
ATOM      2  C   LIG A   1     -10.507   8.008 129.064  0.00  0.00    +0.380 A 
ATOM      3  O   LIG A   1      -9.233   7.745 129.562  0.00  0.00    -0.419 OA
ATOM      4  C   LIG A   1      -9.009   6.991 130.731  0.00  0.00    +0.150 A 
ATOM      5  C   LIG A   1      -7.695   6.769 131.176  0.00  0.00    +0.067 A 
ATOM      6  C   LIG A   1      -7.509   6.014 132.332  0.00  0.00    +0.180 A 
ATOM      7  C   LIG A   1      -8.569   5.466 133.071  0.00  0.00    +0.164 A 
ATOM      8  C   LIG A   1      -9.868   5.735 132.608  0.00  0.00    +0.061 A 
ATOM      9  C   LIG A   1     -10.092   6.476 131.444  0.00  0.00    +0.025 A 
ATOM     10  C   LIG A   1     -11.431   6.725 130.944  0.00  0.00    +0.064 A 
ATOM     11  C   LIG A   1     -11.664   7.430 129.828  0.00  0.00    +0.205 A 
ATOM     12  O   LIG A   1      -6.174   5.922 132.603  0.00  0.00    -0.459 OA
ATOM     13  C   LIG A   1      -5.512   6.603 131.633  0.00  0.00    +0.196 A 
ATOM     14  C   LIG A   1      -6.397   7.139 130.730  0.00  0.00    +0.053 A 
ENDROOT
BRANCH  11  15
ATOM     15  O   LIG A   1     -12.997   7.580 129.455  0.00  0.00    -0.489 OA
ATOM     16  C   LIG A   1     -13.481   6.814 128.360  0.00  0.00    +0.277 C 
ENDBRANCH  11  15
BRANCH   7  17
ATOM     17  O   LIG A   1      -8.492   4.734 134.242  0.00  0.00    -0.491 OA
ATOM     18  C   LIG A   1      -7.923   3.437 134.099  0.00  0.00    +0.277 C 
ENDBRANCH   7  17
TORSDOF 2
ENDMDL
MODEL 2
REMARK VINA RESULT:      -6.5      1.523      3.394
REMARK  Name = NuBBE_1615
REMARK  4 active torsions:
REMARK  status: ('A' for Active; 'I' for Inactive)
REMARK    1  A    between atoms: C_7  and  O_14
REMARK    2  A    between atoms: C_11  and  O_12
REMARK    3  A    between atoms: O_12  and  C_13
REMARK    4  A    between atoms: O_14  and  C_15
REMARK                            x       y       z     vdW  Elec       q    Type
REMARK                         _______ _______ _______ _____ _____    ______ ____
ROOT
ATOM      1  O   LIG A   1     -12.341   6.379 131.749  0.00  0.00    -0.241 OA
ATOM      2  C   LIG A   1     -11.131   6.493 131.574  0.00  0.00    +0.380 A 
ATOM      3  O   LIG A   1     -10.247   5.978 132.519  0.00  0.00    -0.419 OA
ATOM      4  C   LIG A   1      -8.847   6.057 132.381  0.00  0.00    +0.150 A 
ATOM      5  C   LIG A   1      -8.016   5.512 133.374  0.00  0.00    +0.067 A 
ATOM      6  C   LIG A   1      -6.637   5.613 133.208  0.00  0.00    +0.180 A 
ATOM      7  C   LIG A   1      -6.039   6.232 132.100  0.00  0.00    +0.164 A 
ATOM      8  C   LIG A   1      -6.904   6.740 131.116  0.00  0.00    +0.061 A 
ATOM      9  C   LIG A   1      -8.293   6.669 131.256  0.00  0.00    +0.025 A 
ATOM     10  C   LIG A   1      -9.190   7.225 130.259  0.00  0.00    +0.064 A 
ATOM     11  C   LIG A   1     -10.523   7.169 130.378  0.00  0.00    +0.205 A 
ATOM     12  O   LIG A   1      -6.009   5.018 134.265  0.00  0.00    -0.459 OA
ATOM     13  C   LIG A   1      -6.971   4.546 135.099  0.00  0.00    +0.196 A 
ATOM     14  C   LIG A   1      -8.221   4.826 134.602  0.00  0.00    +0.053 A 
ENDROOT
BRANCH  11  15
ATOM     15  O   LIG A   1     -11.263   7.754 129.354  0.00  0.00    -0.489 OA
ATOM     16  C   LIG A   1     -10.562   8.367 128.280  0.00  0.00    +0.277 C 
ENDBRANCH  11  15
BRANCH   7  17
ATOM     17  O   LIG A   1      -4.688   6.355 131.828  0.00  0.00    -0.491 OA
ATOM     18  C   LIG A   1      -4.355   7.392 130.912  0.00  0.00    +0.277 C 
ENDBRANCH   7  17
TORSDOF 2
ENDMDL
MODEL 3
REMARK VINA RESULT:      -6.3      2.121      2.364
REMARK  Name = NuBBE_1615
REMARK  4 active torsions:
REMARK  status: ('A' for Active; 'I' for Inactive)
REMARK    1  A    between atoms: C_7  and  O_14
REMARK    2  A    between atoms: C_11  and  O_12
REMARK    3  A    between atoms: O_12  and  C_13
REMARK    4  A    between atoms: O_14  and  C_15
REMARK                            x       y       z     vdW  Elec       q    Type
REMARK                         _______ _______ _______ _____ _____    ______ ____
ROOT
ATOM      1  O   LIG A   1     -10.880   7.641 126.181  0.00  0.00    -0.241 OA
ATOM      2  C   LIG A   1     -10.785   7.374 127.377  0.00  0.00    +0.380 A 
ATOM      3  O   LIG A   1      -9.881   6.401 127.795  0.00  0.00    -0.419 OA
ATOM      4  C   LIG A   1      -9.705   6.050 129.148  0.00  0.00    +0.150 A 
ATOM      5  C   LIG A   1      -8.771   5.060 129.495  0.00  0.00    +0.067 A 
ATOM      6  C   LIG A   1      -8.627   4.734 130.842  0.00  0.00    +0.180 A 
ATOM      7  C   LIG A   1      -9.368   5.345 131.865  0.00  0.00    +0.164 A 
ATOM      8  C   LIG A   1     -10.271   6.349 131.478  0.00  0.00    +0.061 A 
ATOM      9  C   LIG A   1     -10.452   6.693 130.135  0.00  0.00    +0.025 A 
ATOM     10  C   LIG A   1     -11.410   7.705 129.729  0.00  0.00    +0.064 A 
ATOM     11  C   LIG A   1     -11.599   8.044 128.446  0.00  0.00    +0.205 A 
ATOM     12  O   LIG A   1      -7.671   3.766 130.974  0.00  0.00    -0.459 OA
ATOM     13  C   LIG A   1      -7.213   3.473 129.730  0.00  0.00    +0.196 A 
ATOM     14  C   LIG A   1      -7.856   4.235 128.786  0.00  0.00    +0.053 A 
ENDROOT
BRANCH  11  15
ATOM     15  O   LIG A   1     -12.560   9.021 128.198  0.00  0.00    -0.489 OA
ATOM     16  C   LIG A   1     -13.074   9.758 129.299  0.00  0.00    +0.277 C 
ENDBRANCH  11  15
BRANCH   7  17
ATOM     17  O   LIG A   1      -9.277   5.116 133.226  0.00  0.00    -0.491 OA
ATOM     18  C   LIG A   1      -8.157   5.723 133.861  0.00  0.00    +0.277 C 
ENDBRANCH   7  17
TORSDOF 2
ENDMDL
MODEL 4
REMARK VINA RESULT:      -6.3      8.848      9.717
REMARK  Name = NuBBE_1615
REMARK  4 active torsions:
REMARK  status: ('A' for Active; 'I' for Inactive)
REMARK    1  A    between atoms: C_7  and  O_14
REMARK    2  A    between atoms: C_11  and  O_12
REMARK    3  A    between atoms: O_12  and  C_13
REMARK    4  A    between atoms: O_14  and  C_15
REMARK                            x       y       z     vdW  Elec       q    Type
REMARK                         _______ _______ _______ _____ _____    ______ ____
ROOT
ATOM      1  O   LIG A   1      -4.159   6.090 120.801  0.00  0.00    -0.241 OA
ATOM      2  C   LIG A   1      -4.935   5.242 121.233  0.00  0.00    +0.380 A 
ATOM      3  O   LIG A   1      -4.853   4.849 122.567  0.00  0.00    -0.419 OA
ATOM      4  C   LIG A   1      -5.716   3.893 123.138  0.00  0.00    +0.150 A 
ATOM      5  C   LIG A   1      -5.575   3.548 124.493  0.00  0.00    +0.067 A 
ATOM      6  C   LIG A   1      -6.442   2.596 125.024  0.00  0.00    +0.180 A 
ATOM      7  C   LIG A   1      -7.445   1.965 124.272  0.00  0.00    +0.164 A 
ATOM      8  C   LIG A   1      -7.570   2.358 122.929  0.00  0.00    +0.061 A 
ATOM      9  C   LIG A   1      -6.710   3.300 122.358  0.00  0.00    +0.025 A 
ATOM     10  C   LIG A   1      -6.813   3.682 120.962  0.00  0.00    +0.064 A 
ATOM     11  C   LIG A   1      -5.995   4.581 120.398  0.00  0.00    +0.205 A 
ATOM     12  O   LIG A   1      -6.154   2.408 126.346  0.00  0.00    -0.459 OA
ATOM     13  C   LIG A   1      -5.116   3.225 126.657  0.00  0.00    +0.196 A 
ATOM     14  C   LIG A   1      -4.719   3.944 125.556  0.00  0.00    +0.053 A 
ENDROOT
BRANCH  11  15
ATOM     15  O   LIG A   1      -6.197   4.842 119.046  0.00  0.00    -0.489 OA
ATOM     16  C   LIG A   1      -7.457   4.513 118.476  0.00  0.00    +0.277 C 
ENDBRANCH  11  15
BRANCH   7  17
ATOM     17  O   LIG A   1      -8.371   1.036 124.711  0.00  0.00    -0.491 OA
ATOM     18  C   LIG A   1      -8.853   0.151 123.705  0.00  0.00    +0.277 C 
ENDBRANCH   7  17
TORSDOF 2
ENDMDL
MODEL 5
REMARK VINA RESULT:      -6.0      8.718      9.554
REMARK  Name = NuBBE_1615
REMARK  4 active torsions:
REMARK  status: ('A' for Active; 'I' for Inactive)
REMARK    1  A    between atoms: C_7  and  O_14
REMARK    2  A    between atoms: C_11  and  O_12
REMARK    3  A    between atoms: O_12  and  C_13
REMARK    4  A    between atoms: O_14  and  C_15
REMARK                            x       y       z     vdW  Elec       q    Type
REMARK                         _______ _______ _______ _____ _____    ______ ____
ROOT
ATOM      1  O   LIG A   1     -10.185  -0.274 122.597  0.00  0.00    -0.241 OA
ATOM      2  C   LIG A   1      -9.343   0.348 123.240  0.00  0.00    +0.380 A 
ATOM      3  O   LIG A   1      -8.553   1.301 122.602  0.00  0.00    -0.419 OA
ATOM      4  C   LIG A   1      -7.578   2.063 123.275  0.00  0.00    +0.150 A 
ATOM      5  C   LIG A   1      -6.821   3.010 122.565  0.00  0.00    +0.067 A 
ATOM      6  C   LIG A   1      -5.861   3.741 123.261  0.00  0.00    +0.180 A 
ATOM      7  C   LIG A   1      -5.615   3.579 124.633  0.00  0.00    +0.164 A 
ATOM      8  C   LIG A   1      -6.413   2.642 125.311  0.00  0.00    +0.061 A 
ATOM      9  C   LIG A   1      -7.376   1.880 124.643  0.00  0.00    +0.025 A 
ATOM     10  C   LIG A   1      -8.177   0.886 125.334  0.00  0.00    +0.064 A 
ATOM     11  C   LIG A   1      -9.101   0.144 124.709  0.00  0.00    +0.205 A 
ATOM     12  O   LIG A   1      -5.245   4.609 122.405  0.00  0.00    -0.459 OA
ATOM     13  C   LIG A   1      -5.797   4.433 121.178  0.00  0.00    +0.196 A 
ATOM     14  C   LIG A   1      -6.767   3.461 121.219  0.00  0.00    +0.053 A 
ENDROOT
BRANCH  11  15
ATOM     15  O   LIG A   1      -9.787  -0.782 125.491  0.00  0.00    -0.489 OA
ATOM     16  C   LIG A   1      -9.154  -2.021 125.780  0.00  0.00    +0.277 C 
ENDBRANCH  11  15
BRANCH   7  17
ATOM     17  O   LIG A   1      -4.713   4.274 125.418  0.00  0.00    -0.491 OA
ATOM     18  C   LIG A   1      -3.980   3.473 126.338  0.00  0.00    +0.277 C 
ENDBRANCH   7  17
TORSDOF 2
ENDMDL
MODEL 6
REMARK VINA RESULT:      -5.9      8.019      9.242
REMARK  Name = NuBBE_1615
REMARK  4 active torsions:
REMARK  status: ('A' for Active; 'I' for Inactive)
REMARK    1  A    between atoms: C_7  and  O_14
REMARK    2  A    between atoms: C_11  and  O_12
REMARK    3  A    between atoms: O_12  and  C_13
REMARK    4  A    between atoms: O_14  and  C_15
REMARK                            x       y       z     vdW  Elec       q    Type
REMARK                         _______ _______ _______ _____ _____    ______ ____
ROOT
ATOM      1  O   LIG A   1      -8.731   5.606 125.937  0.00  0.00    -0.241 OA
ATOM      2  C   LIG A   1      -8.189   4.520 125.743  0.00  0.00    +0.380 A 
ATOM      3  O   LIG A   1      -8.816   3.571 124.940  0.00  0.00    -0.419 OA
ATOM      4  C   LIG A   1      -8.251   2.310 124.662  0.00  0.00    +0.150 A 
ATOM      5  C   LIG A   1      -8.940   1.404 123.839  0.00  0.00    +0.067 A 
ATOM      6  C   LIG A   1      -8.355   0.165 123.589  0.00  0.00    +0.180 A 
ATOM      7  C   LIG A   1      -7.114  -0.220 124.118  0.00  0.00    +0.164 A 
ATOM      8  C   LIG A   1      -6.444   0.726 124.913  0.00  0.00    +0.061 A 
ATOM      9  C   LIG A   1      -7.007   1.973 125.197  0.00  0.00    +0.025 A 
ATOM     10  C   LIG A   1      -6.335   2.938 126.046  0.00  0.00    +0.064 A 
ATOM     11  C   LIG A   1      -6.861   4.137 126.332  0.00  0.00    +0.205 A 
ATOM     12  O   LIG A   1      -9.168  -0.562 122.767  0.00  0.00    -0.459 OA
ATOM     13  C   LIG A   1     -10.260   0.197 122.497  0.00  0.00    +0.196 A 
ATOM     14  C   LIG A   1     -10.173   1.411 123.133  0.00  0.00    +0.053 A 
ENDROOT
BRANCH  11  15
ATOM     15  O   LIG A   1      -6.114   4.960 127.172  0.00  0.00    -0.489 OA
ATOM     16  C   LIG A   1      -4.703   4.988 127.007  0.00  0.00    +0.277 C 
ENDBRANCH  11  15
BRANCH   7  17
ATOM     17  O   LIG A   1      -6.437  -1.407 123.906  0.00  0.00    -0.491 OA
ATOM     18  C   LIG A   1      -5.457  -1.721 124.889  0.00  0.00    +0.277 C 
ENDBRANCH   7  17
TORSDOF 2
ENDMDL
MODEL 7
REMARK VINA RESULT:      -5.9      9.200      9.760
REMARK  Name = NuBBE_1615
REMARK  4 active torsions:
REMARK  status: ('A' for Active; 'I' for Inactive)
REMARK    1  A    between atoms: C_7  and  O_14
REMARK    2  A    between atoms: C_11  and  O_12
REMARK    3  A    between atoms: O_12  and  C_13
REMARK    4  A    between atoms: O_14  and  C_15
REMARK                            x       y       z     vdW  Elec       q    Type
REMARK                         _______ _______ _______ _____ _____    ______ ____
ROOT
ATOM      1  O   LIG A   1     -10.770   0.510 122.400  0.00  0.00    -0.241 OA
ATOM      2  C   LIG A   1      -9.806   0.460 123.159  0.00  0.00    +0.380 A 
ATOM      3  O   LIG A   1      -9.703  -0.585 124.074  0.00  0.00    -0.419 OA
ATOM      4  C   LIG A   1      -8.621  -0.716 124.967  0.00  0.00    +0.150 A 
ATOM      5  C   LIG A   1      -8.583  -1.800 125.861  0.00  0.00    +0.067 A 
ATOM      6  C   LIG A   1      -7.502  -1.896 126.734  0.00  0.00    +0.180 A 
ATOM      7  C   LIG A   1      -6.452  -0.966 126.764  0.00  0.00    +0.164 A 
ATOM      8  C   LIG A   1      -6.514   0.088 125.836  0.00  0.00    +0.061 A 
ATOM      9  C   LIG A   1      -7.591   0.224 124.954  0.00  0.00    +0.025 A 
ATOM     10  C   LIG A   1      -7.676   1.331 124.019  0.00  0.00    +0.064 A 
ATOM     11  C   LIG A   1      -8.701   1.479 123.170  0.00  0.00    +0.205 A 
ATOM     12  O   LIG A   1      -7.642  -3.014 127.506  0.00  0.00    -0.459 OA
ATOM     13  C   LIG A   1      -8.798  -3.623 127.138  0.00  0.00    +0.196 A 
ATOM     14  C   LIG A   1      -9.416  -2.918 126.134  0.00  0.00    +0.053 A 
ENDROOT
BRANCH  11  15
ATOM     15  O   LIG A   1      -8.662   2.595 122.337  0.00  0.00    -0.489 OA
ATOM     16  C   LIG A   1      -7.413   3.244 122.138  0.00  0.00    +0.277 C 
ENDBRANCH  11  15
BRANCH   7  17
ATOM     17  O   LIG A   1      -5.325  -0.989 127.565  0.00  0.00    -0.491 OA
ATOM     18  C   LIG A   1      -5.488  -0.385 128.844  0.00  0.00    +0.277 C 
ENDBRANCH   7  17
TORSDOF 2
ENDMDL
MODEL 8
REMARK VINA RESULT:      -5.9      1.502      3.080
REMARK  Name = NuBBE_1615
REMARK  4 active torsions:
REMARK  status: ('A' for Active; 'I' for Inactive)
REMARK    1  A    between atoms: C_7  and  O_14
REMARK    2  A    between atoms: C_11  and  O_12
REMARK    3  A    between atoms: O_12  and  C_13
REMARK    4  A    between atoms: O_14  and  C_15
REMARK                            x       y       z     vdW  Elec       q    Type
REMARK                         _______ _______ _______ _____ _____    ______ ____
ROOT
ATOM      1  O   LIG A   1     -12.389   5.736 129.285  0.00  0.00    -0.241 OA
ATOM      2  C   LIG A   1     -11.288   6.001 129.760  0.00  0.00    +0.380 A 
ATOM      3  O   LIG A   1     -10.673   5.095 130.621  0.00  0.00    -0.419 OA
ATOM      4  C   LIG A   1      -9.406   5.322 131.194  0.00  0.00    +0.150 A 
ATOM      5  C   LIG A   1      -8.846   4.360 132.052  0.00  0.00    +0.067 A 
ATOM      6  C   LIG A   1      -7.595   4.620 132.605  0.00  0.00    +0.180 A 
ATOM      7  C   LIG A   1      -6.868   5.793 132.349  0.00  0.00    +0.164 A 
ATOM      8  C   LIG A   1      -7.451   6.716 131.464  0.00  0.00    +0.061 A 
ATOM      9  C   LIG A   1      -8.711   6.496 130.901  0.00  0.00    +0.025 A 
ATOM     10  C   LIG A   1      -9.331   7.464 130.016  0.00  0.00    +0.064 A 
ATOM     11  C   LIG A   1     -10.539   7.271 129.470  0.00  0.00    +0.205 A 
ATOM     12  O   LIG A   1      -7.221   3.569 133.394  0.00  0.00    -0.459 OA
ATOM     13  C   LIG A   1      -8.221   2.651 133.351  0.00  0.00    +0.196 A 
ATOM     14  C   LIG A   1      -9.244   3.088 132.545  0.00  0.00    +0.053 A 
ENDROOT
BRANCH  11  15
ATOM     15  O   LIG A   1     -11.020   8.289 128.650  0.00  0.00    -0.489 OA
ATOM     16  C   LIG A   1     -10.912   8.129 127.242  0.00  0.00    +0.277 C 
ENDBRANCH  11  15
BRANCH   7  17
ATOM     17  O   LIG A   1      -5.612   6.129 132.821  0.00  0.00    -0.491 OA
ATOM     18  C   LIG A   1      -4.529   5.572 132.085  0.00  0.00    +0.277 C 
ENDBRANCH   7  17
TORSDOF 2
ENDMDL
MODEL 9
REMARK VINA RESULT:      -5.8      8.947     10.722
REMARK  Name = NuBBE_1615
REMARK  4 active torsions:
REMARK  status: ('A' for Active; 'I' for Inactive)
REMARK    1  A    between atoms: C_7  and  O_14
REMARK    2  A    between atoms: C_11  and  O_12
REMARK    3  A    between atoms: O_12  and  C_13
REMARK    4  A    between atoms: O_14  and  C_15
REMARK                            x       y       z     vdW  Elec       q    Type
REMARK                         _______ _______ _______ _____ _____    ______ ____
ROOT
ATOM      1  O   LIG A   1      -6.368  -0.900 130.988  0.00  0.00    -0.241 OA
ATOM      2  C   LIG A   1      -6.910  -1.461 130.038  0.00  0.00    +0.380 A 
ATOM      3  O   LIG A   1      -7.386  -0.703 128.971  0.00  0.00    -0.419 OA
ATOM      4  C   LIG A   1      -8.006  -1.275 127.842  0.00  0.00    +0.150 A 
ATOM      5  C   LIG A   1      -8.457  -0.447 126.801  0.00  0.00    +0.067 A 
ATOM      6  C   LIG A   1      -9.071  -1.045 125.703  0.00  0.00    +0.180 A 
ATOM      7  C   LIG A   1      -9.258  -2.431 125.587  0.00  0.00    +0.164 A 
ATOM      8  C   LIG A   1      -8.767  -3.225 126.636  0.00  0.00    +0.061 A 
ATOM      9  C   LIG A   1      -8.159  -2.659 127.761  0.00  0.00    +0.025 A 
ATOM     10  C   LIG A   1      -7.684  -3.474 128.863  0.00  0.00    +0.064 A 
ATOM     11  C   LIG A   1      -7.101  -2.948 129.949  0.00  0.00    +0.205 A 
ATOM     12  O   LIG A   1      -9.426  -0.081 124.802  0.00  0.00    -0.459 OA
ATOM     13  C   LIG A   1      -9.051   1.117 125.317  0.00  0.00    +0.196 A 
ATOM     14  C   LIG A   1      -8.455   0.951 126.544  0.00  0.00    +0.053 A 
ENDROOT
BRANCH  11  15
ATOM     15  O   LIG A   1      -6.705  -3.846 130.937  0.00  0.00    -0.489 OA
ATOM     16  C   LIG A   1      -5.455  -4.505 130.787  0.00  0.00    +0.277 C 
ENDBRANCH  11  15
BRANCH   7  17
ATOM     17  O   LIG A   1      -9.823  -3.121 124.530  0.00  0.00    -0.491 OA
ATOM     18  C   LIG A   1      -9.048  -3.126 123.337  0.00  0.00    +0.277 C 
ENDBRANCH   7  17
TORSDOF 2
ENDMDL
