MODEL 1
REMARK VINA RESULT:      -8.1      0.000      0.000
REMARK  Name = NuBBE_854
REMARK  4 active torsions:
REMARK  status: ('A' for Active; 'I' for Inactive)
REMARK    1  A    between atoms: C_3  and  O_4
REMARK    2  A    between atoms: C_13  and  C_14
REMARK    3  A    between atoms: C_18  and  C_20
REMARK    4  A    between atoms: C_20  and  C_21
REMARK                            x       y       z     vdW  Elec       q    Type
REMARK                         _______ _______ _______ _____ _____    ______ ____
ROOT
ATOM      1  O   LIG A   1      -5.880   2.288 125.001  0.00  0.00    -0.289 OA
ATOM      2  C   LIG A   1      -6.839   1.991 124.282  0.00  0.00    +0.196 C 
ATOM      3  C   LIG A   1      -7.612   3.068 123.402  0.00  0.00    +0.154 C 
ATOM      4  C   LIG A   1      -8.829   2.825 124.388  0.00  0.00    +0.084 C 
ATOM      5  C   LIG A   1      -9.533   1.632 123.777  0.00  0.00    +0.187 C 
ATOM      6  O   LIG A   1      -9.532   1.943 122.381  0.00  0.00    -0.365 OA
ATOM      7  C   LIG A   1      -8.682   3.099 122.244  0.00  0.00    +0.203 C 
ATOM      8  C   LIG A   1      -7.367   0.568 124.327  0.00  0.00    +0.038 C 
ATOM      9  C   LIG A   1      -8.674   0.417 124.020  0.00  0.00    +0.134 C 
ATOM     10  O   LIG A   1      -9.335  -0.807 124.020  0.00  0.00    -0.487 OA
ATOM     11  C   LIG A   1      -8.589  -1.862 124.646  0.00  0.00    +0.111 C 
ATOM     12  C   LIG A   1      -8.826  -1.785 126.168  0.00  0.00    +0.056 C 
ATOM     13  C   LIG A   1      -7.125  -1.833 124.179  0.00  0.00    +0.044 C 
ATOM     14  C   LIG A   1      -6.435  -0.560 124.644  0.00  0.00    +0.050 C 
ATOM     15  C   LIG A   1      -6.566  -3.190 124.616  0.00  0.00    +0.021 C 
ATOM     16  C   LIG A   1      -7.778  -4.144 124.412  0.00  0.00    +0.012 C 
ATOM     17  C   LIG A   1      -8.999  -3.246 124.131  0.00  0.00    +0.049 C 
ENDROOT
BRANCH  15  18
ATOM     18  C   LIG A   1      -5.283  -3.567 123.901  0.00  0.00    -0.076 C 
ATOM     19  C   LIG A   1      -4.899  -5.021 123.974  0.00  0.00    +0.038 C 
ATOM     20  C   LIG A   1      -4.508  -2.686 123.248  0.00  0.00    +0.007 C 
ENDBRANCH  15  18
BRANCH   3  21
ATOM     21  O   LIG A   1      -6.674   2.328 122.472  0.00  0.00    -0.378 OA
ATOM     22  H   LIG A   1      -6.814   2.612 121.543  0.00  0.00    +0.211 HD
ENDBRANCH   3  21
TORSDOF 2
ENDMDL
MODEL 2
REMARK VINA RESULT:      -7.8      1.808      5.729
REMARK  Name = NuBBE_854
REMARK  4 active torsions:
REMARK  status: ('A' for Active; 'I' for Inactive)
REMARK    1  A    between atoms: C_3  and  O_4
REMARK    2  A    between atoms: C_13  and  C_14
REMARK    3  A    between atoms: C_18  and  C_20
REMARK    4  A    between atoms: C_20  and  C_21
REMARK                            x       y       z     vdW  Elec       q    Type
REMARK                         _______ _______ _______ _____ _____    ______ ____
ROOT
ATOM      1  O   LIG A   1     -10.042  -0.874 122.747  0.00  0.00    -0.289 OA
ATOM      2  C   LIG A   1      -9.015  -1.070 123.403  0.00  0.00    +0.196 C 
ATOM      3  C   LIG A   1      -8.608  -2.513 123.938  0.00  0.00    +0.154 C 
ATOM      4  C   LIG A   1      -8.901  -1.928 125.383  0.00  0.00    +0.084 C 
ATOM      5  C   LIG A   1      -7.589  -1.277 125.762  0.00  0.00    +0.187 C 
ATOM      6  O   LIG A   1      -6.620  -2.242 125.342  0.00  0.00    -0.365 OA
ATOM      7  C   LIG A   1      -7.358  -3.223 124.586  0.00  0.00    +0.203 C 
ATOM      8  C   LIG A   1      -8.169   0.125 123.805  0.00  0.00    +0.038 C 
ATOM      9  C   LIG A   1      -7.439  -0.026 124.932  0.00  0.00    +0.134 C 
ATOM     10  O   LIG A   1      -6.616   0.962 125.462  0.00  0.00    -0.487 OA
ATOM     11  C   LIG A   1      -6.821   2.256 124.873  0.00  0.00    +0.111 C 
ATOM     12  C   LIG A   1      -8.012   2.929 125.585  0.00  0.00    +0.056 C 
ATOM     13  C   LIG A   1      -6.915   2.140 123.343  0.00  0.00    +0.044 C 
ATOM     14  C   LIG A   1      -8.146   1.344 122.937  0.00  0.00    +0.050 C 
ATOM     15  C   LIG A   1      -6.757   3.579 122.848  0.00  0.00    +0.021 C 
ATOM     16  C   LIG A   1      -5.735   4.180 123.856  0.00  0.00    +0.012 C 
ATOM     17  C   LIG A   1      -5.581   3.149 124.990  0.00  0.00    +0.049 C 
ENDROOT
BRANCH  15  18
ATOM     18  C   LIG A   1      -6.391   3.670 121.379  0.00  0.00    -0.076 C 
ATOM     19  C   LIG A   1      -7.537   3.919 120.436  0.00  0.00    +0.038 C 
ATOM     20  C   LIG A   1      -5.139   3.529 120.914  0.00  0.00    +0.007 C 
ENDBRANCH  15  18
BRANCH   3  21
ATOM     21  O   LIG A   1      -7.778  -2.251 122.700  0.00  0.00    -0.378 OA
ATOM     22  H   LIG A   1      -8.343  -1.922 121.968  0.00  0.00    +0.211 HD
ENDBRANCH   3  21
TORSDOF 2
ENDMDL
MODEL 3
REMARK VINA RESULT:      -7.7      1.665      1.980
REMARK  Name = NuBBE_854
REMARK  4 active torsions:
REMARK  status: ('A' for Active; 'I' for Inactive)
REMARK    1  A    between atoms: C_3  and  O_4
REMARK    2  A    between atoms: C_13  and  C_14
REMARK    3  A    between atoms: C_18  and  C_20
REMARK    4  A    between atoms: C_20  and  C_21
REMARK                            x       y       z     vdW  Elec       q    Type
REMARK                         _______ _______ _______ _____ _____    ______ ____
ROOT
ATOM      1  O   LIG A   1      -4.723   1.968 126.417  0.00  0.00    -0.289 OA
ATOM      2  C   LIG A   1      -5.886   1.975 126.004  0.00  0.00    +0.196 C 
ATOM      3  C   LIG A   1      -6.703   3.322 125.779  0.00  0.00    +0.154 C 
ATOM      4  C   LIG A   1      -7.595   2.844 127.000  0.00  0.00    +0.084 C 
ATOM      5  C   LIG A   1      -8.629   1.956 126.342  0.00  0.00    +0.187 C 
ATOM      6  O   LIG A   1      -8.994   2.701 125.177  0.00  0.00    -0.365 OA
ATOM      7  C   LIG A   1      -8.050   3.788 125.104  0.00  0.00    +0.203 C 
ATOM      8  C   LIG A   1      -6.597   0.647 125.811  0.00  0.00    +0.038 C 
ATOM      9  C   LIG A   1      -7.943   0.680 125.926  0.00  0.00    +0.134 C 
ATOM     10  O   LIG A   1      -8.761  -0.438 125.794  0.00  0.00    -0.487 OA
ATOM     11  C   LIG A   1      -8.040  -1.680 125.806  0.00  0.00    +0.111 C 
ATOM     12  C   LIG A   1      -7.799  -2.086 127.274  0.00  0.00    +0.056 C 
ATOM     13  C   LIG A   1      -6.796  -1.587 124.908  0.00  0.00    +0.044 C 
ATOM     14  C   LIG A   1      -5.805  -0.575 125.462  0.00  0.00    +0.050 C 
ATOM     15  C   LIG A   1      -6.357  -3.041 124.725  0.00  0.00    +0.021 C 
ATOM     16  C   LIG A   1      -7.711  -3.806 124.671  0.00  0.00    +0.012 C 
ATOM     17  C   LIG A   1      -8.800  -2.797 125.081  0.00  0.00    +0.049 C 
ENDROOT
BRANCH  15  18
ATOM     18  C   LIG A   1      -5.421  -3.241 123.549  0.00  0.00    -0.076 C 
ATOM     19  C   LIG A   1      -5.689  -2.372 122.349  0.00  0.00    +0.038 C 
ATOM     20  C   LIG A   1      -4.418  -4.134 123.538  0.00  0.00    +0.007 C 
ENDBRANCH  15  18
BRANCH   3  21
ATOM     21  O   LIG A   1      -6.215   2.869 124.420  0.00  0.00    -0.378 OA
ATOM     22  H   LIG A   1      -6.491   1.945 124.244  0.00  0.00    +0.211 HD
ENDBRANCH   3  21
TORSDOF 2
ENDMDL
MODEL 4
REMARK VINA RESULT:      -7.3      1.627      3.163
REMARK  Name = NuBBE_854
REMARK  4 active torsions:
REMARK  status: ('A' for Active; 'I' for Inactive)
REMARK    1  A    between atoms: C_3  and  O_4
REMARK    2  A    between atoms: C_13  and  C_14
REMARK    3  A    between atoms: C_18  and  C_20
REMARK    4  A    between atoms: C_20  and  C_21
REMARK                            x       y       z     vdW  Elec       q    Type
REMARK                         _______ _______ _______ _____ _____    ______ ____
ROOT
ATOM      1  O   LIG A   1     -10.540   1.792 124.774  0.00  0.00    -0.289 OA
ATOM      2  C   LIG A   1      -9.327   1.872 124.564  0.00  0.00    +0.196 C 
ATOM      3  C   LIG A   1      -8.588   3.265 124.349  0.00  0.00    +0.154 C 
ATOM      4  C   LIG A   1      -8.378   2.786 122.851  0.00  0.00    +0.084 C 
ATOM      5  C   LIG A   1      -7.102   1.976 122.926  0.00  0.00    +0.187 C 
ATOM      6  O   LIG A   1      -6.262   2.781 123.758  0.00  0.00    -0.365 OA
ATOM      7  C   LIG A   1      -7.115   3.822 124.275  0.00  0.00    +0.203 C 
ATOM      8  C   LIG A   1      -8.532   0.589 124.396  0.00  0.00    +0.038 C 
ATOM      9  C   LIG A   1      -7.418   0.684 123.637  0.00  0.00    +0.134 C 
ATOM     10  O   LIG A   1      -6.572  -0.386 123.361  0.00  0.00    -0.487 OA
ATOM     11  C   LIG A   1      -7.129  -1.662 123.714  0.00  0.00    +0.111 C 
ATOM     12  C   LIG A   1      -8.031  -2.134 122.555  0.00  0.00    +0.056 C 
ATOM     13  C   LIG A   1      -7.780  -1.597 125.105  0.00  0.00    +0.044 C 
ATOM     14  C   LIG A   1      -8.975  -0.657 125.098  0.00  0.00    +0.050 C 
ATOM     15  C   LIG A   1      -7.983  -3.064 125.491  0.00  0.00    +0.021 C 
ATOM     16  C   LIG A   1      -6.731  -3.758 124.882  0.00  0.00    +0.012 C 
ATOM     17  C   LIG A   1      -6.045  -2.712 123.983  0.00  0.00    +0.049 C 
ENDROOT
BRANCH  15  18
ATOM     18  C   LIG A   1      -8.211  -3.265 126.977  0.00  0.00    -0.076 C 
ATOM     19  C   LIG A   1      -7.254  -2.542 127.887  0.00  0.00    +0.038 C 
ATOM     20  C   LIG A   1      -9.184  -4.040 127.483  0.00  0.00    +0.007 C 
ENDBRANCH  15  18
BRANCH   3  21
ATOM     21  O   LIG A   1      -8.322   2.840 125.777  0.00  0.00    -0.378 OA
ATOM     22  H   LIG A   1      -9.128   2.948 126.325  0.00  0.00    +0.211 HD
ENDBRANCH   3  21
TORSDOF 2
ENDMDL
MODEL 5
REMARK VINA RESULT:      -7.3      7.783      9.535
REMARK  Name = NuBBE_854
REMARK  4 active torsions:
REMARK  status: ('A' for Active; 'I' for Inactive)
REMARK    1  A    between atoms: C_3  and  O_4
REMARK    2  A    between atoms: C_13  and  C_14
REMARK    3  A    between atoms: C_18  and  C_20
REMARK    4  A    between atoms: C_20  and  C_21
REMARK                            x       y       z     vdW  Elec       q    Type
REMARK                         _______ _______ _______ _____ _____    ______ ____
ROOT
ATOM      1  O   LIG A   1      -9.977   6.411 127.945  0.00  0.00    -0.289 OA
ATOM      2  C   LIG A   1     -10.718   6.402 128.931  0.00  0.00    +0.196 C 
ATOM      3  C   LIG A   1     -12.126   7.144 128.946  0.00  0.00    +0.154 C 
ATOM      4  C   LIG A   1     -11.460   8.131 129.994  0.00  0.00    +0.084 C 
ATOM      5  C   LIG A   1     -11.675   7.423 131.315  0.00  0.00    +0.187 C 
ATOM      6  O   LIG A   1     -13.027   6.967 131.216  0.00  0.00    -0.365 OA
ATOM      7  C   LIG A   1     -13.416   7.211 129.850  0.00  0.00    +0.203 C 
ATOM      8  C   LIG A   1     -10.220   5.753 130.210  0.00  0.00    +0.038 C 
ATOM      9  C   LIG A   1     -10.748   6.234 131.357  0.00  0.00    +0.134 C 
ATOM     10  O   LIG A   1     -10.404   5.774 132.624  0.00  0.00    -0.487 OA
ATOM     11  C   LIG A   1      -9.234   4.940 132.632  0.00  0.00    +0.111 C 
ATOM     12  C   LIG A   1      -7.991   5.851 132.675  0.00  0.00    +0.056 C 
ATOM     13  C   LIG A   1      -9.296   3.918 131.485  0.00  0.00    +0.044 C 
ATOM     14  C   LIG A   1      -9.246   4.618 130.136  0.00  0.00    +0.050 C 
ATOM     15  C   LIG A   1      -8.214   2.895 131.838  0.00  0.00    +0.021 C 
ATOM     16  C   LIG A   1      -8.296   2.828 133.391  0.00  0.00    +0.012 C 
ATOM     17  C   LIG A   1      -9.214   3.984 133.831  0.00  0.00    +0.049 C 
ENDROOT
BRANCH  15  18
ATOM     18  C   LIG A   1      -8.369   1.581 131.097  0.00  0.00    -0.076 C 
ATOM     19  C   LIG A   1      -9.304   0.583 131.727  0.00  0.00    +0.038 C 
ATOM     20  C   LIG A   1      -7.721   1.287 129.958  0.00  0.00    +0.007 C 
ENDBRANCH  15  18
BRANCH   3  21
ATOM     21  O   LIG A   1     -12.404   5.675 128.713  0.00  0.00    -0.378 OA
ATOM     22  H   LIG A   1     -13.361   5.526 128.557  0.00  0.00    +0.211 HD
ENDBRANCH   3  21
TORSDOF 2
ENDMDL
MODEL 6
REMARK VINA RESULT:      -7.3      3.449      4.416
REMARK  Name = NuBBE_854
REMARK  4 active torsions:
REMARK  status: ('A' for Active; 'I' for Inactive)
REMARK    1  A    between atoms: C_3  and  O_4
REMARK    2  A    between atoms: C_13  and  C_14
REMARK    3  A    between atoms: C_18  and  C_20
REMARK    4  A    between atoms: C_20  and  C_21
REMARK                            x       y       z     vdW  Elec       q    Type
REMARK                         _______ _______ _______ _____ _____    ______ ____
ROOT
ATOM      1  O   LIG A   1      -4.371  -1.701 129.278  0.00  0.00    -0.289 OA
ATOM      2  C   LIG A   1      -5.230  -0.906 128.887  0.00  0.00    +0.196 C 
ATOM      3  C   LIG A   1      -5.424   0.531 129.541  0.00  0.00    +0.154 C 
ATOM      4  C   LIG A   1      -6.807  -0.032 130.078  0.00  0.00    +0.084 C 
ATOM      5  C   LIG A   1      -7.752   0.225 128.925  0.00  0.00    +0.187 C 
ATOM      6  O   LIG A   1      -7.399   1.548 128.511  0.00  0.00    -0.365 OA
ATOM      7  C   LIG A   1      -6.198   1.872 129.240  0.00  0.00    +0.203 C 
ATOM      8  C   LIG A   1      -6.207  -1.361 127.817  0.00  0.00    +0.038 C 
ATOM      9  C   LIG A   1      -7.412  -0.749 127.825  0.00  0.00    +0.134 C 
ATOM     10  O   LIG A   1      -8.438  -1.042 126.932  0.00  0.00    -0.487 OA
ATOM     11  C   LIG A   1      -8.216  -2.245 126.178  0.00  0.00    +0.111 C 
ATOM     12  C   LIG A   1      -8.678  -3.443 127.032  0.00  0.00    +0.056 C 
ATOM     13  C   LIG A   1      -6.770  -2.292 125.658  0.00  0.00    +0.044 C 
ATOM     14  C   LIG A   1      -5.784  -2.386 126.812  0.00  0.00    +0.050 C 
ATOM     15  C   LIG A   1      -6.790  -3.396 124.598  0.00  0.00    +0.021 C 
ATOM     16  C   LIG A   1      -8.197  -3.232 123.955  0.00  0.00    +0.012 C 
ATOM     17  C   LIG A   1      -8.972  -2.241 124.845  0.00  0.00    +0.049 C 
ENDROOT
BRANCH  15  18
ATOM     18  C   LIG A   1      -5.605  -3.340 123.654  0.00  0.00    -0.076 C 
ATOM     19  C   LIG A   1      -5.677  -2.289 122.579  0.00  0.00    +0.038 C 
ATOM     20  C   LIG A   1      -4.550  -4.168 123.732  0.00  0.00    +0.007 C 
ENDBRANCH  15  18
BRANCH   3  21
ATOM     21  O   LIG A   1      -4.644   0.732 128.260  0.00  0.00    -0.378 OA
ATOM     22  H   LIG A   1      -5.227   1.080 127.552  0.00  0.00    +0.211 HD
ENDBRANCH   3  21
TORSDOF 2
ENDMDL
MODEL 7
REMARK VINA RESULT:      -7.3      6.990      8.784
REMARK  Name = NuBBE_854
REMARK  4 active torsions:
REMARK  status: ('A' for Active; 'I' for Inactive)
REMARK    1  A    between atoms: C_3  and  O_4
REMARK    2  A    between atoms: C_13  and  C_14
REMARK    3  A    between atoms: C_18  and  C_20
REMARK    4  A    between atoms: C_20  and  C_21
REMARK                            x       y       z     vdW  Elec       q    Type
REMARK                         _______ _______ _______ _____ _____    ______ ____
ROOT
ATOM      1  O   LIG A   1      -9.764   8.817 128.475  0.00  0.00    -0.289 OA
ATOM      2  C   LIG A   1     -10.723   8.043 128.556  0.00  0.00    +0.196 C 
ATOM      3  C   LIG A   1     -12.176   8.429 128.036  0.00  0.00    +0.154 C 
ATOM      4  C   LIG A   1     -12.596   8.423 129.565  0.00  0.00    +0.084 C 
ATOM      5  C   LIG A   1     -12.934   6.970 129.822  0.00  0.00    +0.187 C 
ATOM      6  O   LIG A   1     -13.690   6.609 128.662  0.00  0.00    -0.365 OA
ATOM      7  C   LIG A   1     -13.557   7.722 127.755  0.00  0.00    +0.203 C 
ATOM      8  C   LIG A   1     -10.532   6.721 129.278  0.00  0.00    +0.038 C 
ATOM      9  C   LIG A   1     -11.642   6.192 129.838  0.00  0.00    +0.134 C 
ATOM     10  O   LIG A   1     -11.659   4.997 130.549  0.00  0.00    -0.487 OA
ATOM     11  C   LIG A   1     -10.350   4.510 130.883  0.00  0.00    +0.111 C 
ATOM     12  C   LIG A   1      -9.884   5.217 132.172  0.00  0.00    +0.056 C 
ATOM     13  C   LIG A   1      -9.413   4.614 129.669  0.00  0.00    +0.044 C 
ATOM     14  C   LIG A   1      -9.185   6.067 129.286  0.00  0.00    +0.050 C 
ATOM     15  C   LIG A   1      -8.213   3.742 130.046  0.00  0.00    +0.021 C 
ATOM     16  C   LIG A   1      -8.869   2.580 130.847  0.00  0.00    +0.012 C 
ATOM     17  C   LIG A   1     -10.333   2.992 131.095  0.00  0.00    +0.049 C 
ENDROOT
BRANCH  15  18
ATOM     18  C   LIG A   1      -7.363   3.345 128.855  0.00  0.00    -0.076 C 
ATOM     19  C   LIG A   1      -7.930   2.256 127.983  0.00  0.00    +0.038 C 
ATOM     20  C   LIG A   1      -6.172   3.897 128.572  0.00  0.00    +0.007 C 
ENDBRANCH  15  18
BRANCH   3  21
ATOM     21  O   LIG A   1     -11.547   7.551 126.976  0.00  0.00    -0.378 OA
ATOM     22  H   LIG A   1     -11.313   8.081 126.184  0.00  0.00    +0.211 HD
ENDBRANCH   3  21
TORSDOF 2
ENDMDL
MODEL 8
REMARK VINA RESULT:      -7.3      3.608      5.080
REMARK  Name = NuBBE_854
REMARK  4 active torsions:
REMARK  status: ('A' for Active; 'I' for Inactive)
REMARK    1  A    between atoms: C_3  and  O_4
REMARK    2  A    between atoms: C_13  and  C_14
REMARK    3  A    between atoms: C_18  and  C_20
REMARK    4  A    between atoms: C_20  and  C_21
REMARK                            x       y       z     vdW  Elec       q    Type
REMARK                         _______ _______ _______ _____ _____    ______ ____
ROOT
ATOM      1  O   LIG A   1      -5.350  -2.044 124.132  0.00  0.00    -0.289 OA
ATOM      2  C   LIG A   1      -6.484  -2.255 124.571  0.00  0.00    +0.196 C 
ATOM      3  C   LIG A   1      -7.707  -2.635 123.627  0.00  0.00    +0.154 C 
ATOM      4  C   LIG A   1      -8.291  -1.212 124.011  0.00  0.00    +0.084 C 
ATOM      5  C   LIG A   1      -9.036  -1.484 125.300  0.00  0.00    +0.187 C 
ATOM      6  O   LIG A   1      -9.718  -2.711 125.022  0.00  0.00    -0.365 OA
ATOM      7  C   LIG A   1      -9.184  -3.170 123.764  0.00  0.00    +0.203 C 
ATOM      8  C   LIG A   1      -6.743  -2.037 126.051  0.00  0.00    +0.038 C 
ATOM      9  C   LIG A   1      -8.013  -1.717 126.384  0.00  0.00    +0.134 C 
ATOM     10  O   LIG A   1      -8.436  -1.467 127.685  0.00  0.00    -0.487 OA
ATOM     11  C   LIG A   1      -7.355  -1.300 128.617  0.00  0.00    +0.111 C 
ATOM     12  C   LIG A   1      -6.873   0.163 128.541  0.00  0.00    +0.056 C 
ATOM     13  C   LIG A   1      -6.288  -2.384 128.400  0.00  0.00    +0.044 C 
ATOM     14  C   LIG A   1      -5.633  -2.232 127.036  0.00  0.00    +0.050 C 
ATOM     15  C   LIG A   1      -5.421  -2.313 129.659  0.00  0.00    +0.021 C 
ATOM     16  C   LIG A   1      -6.456  -1.980 130.772  0.00  0.00    +0.012 C 
ATOM     17  C   LIG A   1      -7.774  -1.631 130.054  0.00  0.00    +0.049 C 
ENDROOT
BRANCH  15  18
ATOM     18  C   LIG A   1      -4.574  -3.552 129.874  0.00  0.00    -0.076 C 
ATOM     19  C   LIG A   1      -5.244  -4.680 130.613  0.00  0.00    +0.038 C 
ATOM     20  C   LIG A   1      -3.301  -3.666 129.458  0.00  0.00    +0.007 C 
ENDBRANCH  15  18
BRANCH   3  21
ATOM     21  O   LIG A   1      -7.216  -3.923 124.252  0.00  0.00    -0.378 OA
ATOM     22  H   LIG A   1      -6.742  -4.469 123.589  0.00  0.00    +0.211 HD
ENDBRANCH   3  21
TORSDOF 2
ENDMDL
MODEL 9
REMARK VINA RESULT:      -6.9      7.021      8.353
REMARK  Name = NuBBE_854
REMARK  4 active torsions:
REMARK  status: ('A' for Active; 'I' for Inactive)
REMARK    1  A    between atoms: C_3  and  O_4
REMARK    2  A    between atoms: C_13  and  C_14
REMARK    3  A    between atoms: C_18  and  C_20
REMARK    4  A    between atoms: C_20  and  C_21
REMARK                            x       y       z     vdW  Elec       q    Type
REMARK                         _______ _______ _______ _____ _____    ______ ____
ROOT
ATOM      1  O   LIG A   1      -8.272   7.548 130.377  0.00  0.00    -0.289 OA
ATOM      2  C   LIG A   1      -9.224   6.811 130.104  0.00  0.00    +0.196 C 
ATOM      3  C   LIG A   1     -10.528   7.340 129.361  0.00  0.00    +0.154 C 
ATOM      4  C   LIG A   1     -11.274   7.075 130.735  0.00  0.00    +0.084 C 
ATOM      5  C   LIG A   1     -11.657   5.614 130.641  0.00  0.00    +0.187 C 
ATOM      6  O   LIG A   1     -12.138   5.496 129.299  0.00  0.00    -0.365 OA
ATOM      7  C   LIG A   1     -11.811   6.748 128.662  0.00  0.00    +0.203 C 
ATOM      8  C   LIG A   1      -9.194   5.374 130.595  0.00  0.00    +0.038 C 
ATOM      9  C   LIG A   1     -10.399   4.796 130.794  0.00  0.00    +0.134 C 
ATOM     10  O   LIG A   1     -10.570   3.494 131.252  0.00  0.00    -0.487 OA
ATOM     11  C   LIG A   1      -9.365   2.905 131.767  0.00  0.00    +0.111 C 
ATOM     12  C   LIG A   1      -9.197   3.351 133.233  0.00  0.00    +0.056 C 
ATOM     13  C   LIG A   1      -8.185   3.189 130.825  0.00  0.00    +0.044 C 
ATOM     14  C   LIG A   1      -7.881   4.678 130.774  0.00  0.00    +0.050 C 
ATOM     15  C   LIG A   1      -7.096   2.218 131.287  0.00  0.00    +0.021 C 
ATOM     16  C   LIG A   1      -7.910   0.957 131.699  0.00  0.00    +0.012 C 
ATOM     17  C   LIG A   1      -9.393   1.374 131.695  0.00  0.00    +0.049 C 
ENDROOT
BRANCH  15  18
ATOM     18  C   LIG A   1      -6.004   2.009 130.256  0.00  0.00    -0.076 C 
ATOM     19  C   LIG A   1      -4.630   2.477 130.658  0.00  0.00    +0.038 C 
ATOM     20  C   LIG A   1      -6.214   1.458 129.049  0.00  0.00    +0.007 C 
ENDBRANCH  15  18
BRANCH   3  21
ATOM     21  O   LIG A   1      -9.679   6.642 128.320  0.00  0.00    -0.378 OA
ATOM     22  H   LIG A   1      -9.451   5.734 128.613  0.00  0.00    +0.211 HD
ENDBRANCH   3  21
TORSDOF 2
ENDMDL
