MODEL 1
REMARK VINA RESULT:      -6.8      0.000      0.000
REMARK  Name = NuBBE_1894
REMARK  11 active torsions:
REMARK  status: ('A' for Active; 'I' for Inactive)
REMARK    1  A    between atoms: C_1  and  O_2
REMARK    2  A    between atoms: O_2  and  C_3
REMARK    3  A    between atoms: C_4  and  O_5
REMARK    4  A    between atoms: O_5  and  C_6
REMARK    5  A    between atoms: C_7  and  O_8
REMARK    6  A    between atoms: O_8  and  C_9
REMARK    7  A    between atoms: C_12  and  C_13
REMARK    8  A    between atoms: C_18  and  O_19
REMARK    9  A    between atoms: O_19  and  C_20
REMARK   10  A    between atoms: C_21  and  O_22
REMARK   11  A    between atoms: O_22  and  C_23
REMARK                            x       y       z     vdW  Elec       q    Type
REMARK                         _______ _______ _______ _____ _____    ______ ____
ROOT
ATOM      1  C   LIG A   1     -10.060   5.019 131.772  0.00  0.00    +0.068 A 
ATOM      2  C   LIG A   1     -10.381   6.042 132.588  0.00  0.00    +0.208 A 
ATOM      3  O   LIG A   1     -11.343   6.983 132.340  0.00  0.00    -0.462 OA
ATOM      4  C   LIG A   1     -11.793   7.070 131.052  0.00  0.00    +0.142 A 
ATOM      5  C   LIG A   1     -12.385   8.271 130.679  0.00  0.00    +0.096 A 
ATOM      6  C   LIG A   1     -12.938   8.426 129.411  0.00  0.00    +0.165 A 
ATOM      7  C   LIG A   1     -12.821   7.382 128.465  0.00  0.00    +0.162 A 
ATOM      8  C   LIG A   1     -12.196   6.177 128.843  0.00  0.00    +0.064 A 
ATOM      9  C   LIG A   1     -11.676   6.030 130.136  0.00  0.00    +0.068 A 
ATOM     10  C   LIG A   1     -10.948   4.850 130.601  0.00  0.00    +0.200 A 
ATOM     11  O   LIG A   1     -11.087   3.733 130.011  0.00  0.00    -0.286 OA
ENDROOT
BRANCH   1  17
ATOM     12  C   LIG A   1      -7.605   4.434 131.490  0.00  0.00    +0.173 A 
ATOM     13  C   LIG A   1      -6.526   3.537 131.737  0.00  0.00    +0.204 A 
ATOM     14  C   LIG A   1      -6.740   2.453 132.647  0.00  0.00    +0.165 A 
ATOM     15  C   LIG A   1      -7.994   2.248 133.234  0.00  0.00    +0.050 A 
ATOM     16  C   LIG A   1      -9.065   3.073 132.906  0.00  0.00    +0.016 A 
ATOM     17  C   LIG A   1      -8.886   4.165 132.043  0.00  0.00    +0.034 A 
BRANCH  12  19
ATOM     18  C   LIG A   1      -6.846   6.639 131.317  0.00  0.00    +0.277 C 
ATOM     19  O   LIG A   1      -7.590   5.588 130.729  0.00  0.00    -0.491 OA
ENDBRANCH  12  19
BRANCH  13  20
ATOM     20  O   LIG A   1      -5.261   3.493 131.181  0.00  0.00    -0.488 OA
ATOM     21  C   LIG A   1      -5.010   3.288 129.808  0.00  0.00    +0.277 C 
ENDBRANCH  13  20
BRANCH  14  22
ATOM     22  O   LIG A   1      -5.651   1.650 132.937  0.00  0.00    -0.491 OA
ATOM     23  C   LIG A   1      -5.704   0.283 132.531  0.00  0.00    +0.277 C 
ENDBRANCH  14  22
ENDBRANCH   1  17
BRANCH   6  24
ATOM     24  O   LIG A   1     -13.501   9.612 129.046  0.00  0.00    -0.491 OA
ATOM     25  C   LIG A   1     -13.413  10.723 129.927  0.00  0.00    +0.277 C 
ENDBRANCH   6  24
BRANCH   7  26
ATOM     26  O   LIG A   1     -13.301   7.422 127.173  0.00  0.00    -0.491 OA
ATOM     27  C   LIG A   1     -12.347   7.162 126.141  0.00  0.00    +0.277 C 
ENDBRANCH   7  26
TORSDOF 6
ENDMDL
MODEL 2
REMARK VINA RESULT:      -6.5      7.445     11.697
REMARK  Name = NuBBE_1894
REMARK  11 active torsions:
REMARK  status: ('A' for Active; 'I' for Inactive)
REMARK    1  A    between atoms: C_1  and  O_2
REMARK    2  A    between atoms: O_2  and  C_3
REMARK    3  A    between atoms: C_4  and  O_5
REMARK    4  A    between atoms: O_5  and  C_6
REMARK    5  A    between atoms: C_7  and  O_8
REMARK    6  A    between atoms: O_8  and  C_9
REMARK    7  A    between atoms: C_12  and  C_13
REMARK    8  A    between atoms: C_18  and  O_19
REMARK    9  A    between atoms: O_19  and  C_20
REMARK   10  A    between atoms: C_21  and  O_22
REMARK   11  A    between atoms: O_22  and  C_23
REMARK                            x       y       z     vdW  Elec       q    Type
REMARK                         _______ _______ _______ _____ _____    ______ ____
ROOT
ATOM      1  C   LIG A   1      -7.277  -2.675 130.058  0.00  0.00    +0.068 A 
ATOM      2  C   LIG A   1      -7.882  -2.122 131.126  0.00  0.00    +0.208 A 
ATOM      3  O   LIG A   1      -7.499  -2.286 132.430  0.00  0.00    -0.462 OA
ATOM      4  C   LIG A   1      -6.638  -3.318 132.685  0.00  0.00    +0.142 A 
ATOM      5  C   LIG A   1      -6.606  -3.792 133.992  0.00  0.00    +0.096 A 
ATOM      6  C   LIG A   1      -5.709  -4.789 134.363  0.00  0.00    +0.165 A 
ATOM      7  C   LIG A   1      -4.882  -5.386 133.383  0.00  0.00    +0.162 A 
ATOM      8  C   LIG A   1      -4.939  -4.916 132.056  0.00  0.00    +0.064 A 
ATOM      9  C   LIG A   1      -5.826  -3.887 131.711  0.00  0.00    +0.068 A 
ATOM     10  C   LIG A   1      -6.011  -3.382 130.352  0.00  0.00    +0.200 A 
ATOM     11  O   LIG A   1      -5.109  -3.552 129.473  0.00  0.00    -0.286 OA
ENDROOT
BRANCH   1  17
ATOM     12  C   LIG A   1      -7.656  -1.475 127.852  0.00  0.00    +0.173 A 
ATOM     13  C   LIG A   1      -8.312  -1.418 126.588  0.00  0.00    +0.204 A 
ATOM     14  C   LIG A   1      -9.075  -2.555 126.168  0.00  0.00    +0.165 A 
ATOM     15  C   LIG A   1      -9.219  -3.669 127.004  0.00  0.00    +0.050 A 
ATOM     16  C   LIG A   1      -8.655  -3.669 128.275  0.00  0.00    +0.016 A 
ATOM     17  C   LIG A   1      -7.874  -2.586 128.710  0.00  0.00    +0.034 A 
BRANCH  12  19
ATOM     18  C   LIG A   1      -5.567  -0.431 127.720  0.00  0.00    +0.277 C 
ATOM     19  O   LIG A   1      -6.802  -0.541 128.405  0.00  0.00    -0.491 OA
ENDBRANCH  12  19
BRANCH  13  20
ATOM     20  O   LIG A   1      -8.392  -0.385 125.674  0.00  0.00    -0.488 OA
ATOM     21  C   LIG A   1      -9.038   0.844 125.926  0.00  0.00    +0.277 C 
ENDBRANCH  13  20
BRANCH  14  22
ATOM     22  O   LIG A   1      -9.627  -2.509 124.900  0.00  0.00    -0.491 OA
ATOM     23  C   LIG A   1      -9.101  -3.395 123.912  0.00  0.00    +0.277 C 
ENDBRANCH  14  22
ENDBRANCH   1  17
BRANCH   6  24
ATOM     24  O   LIG A   1      -5.696  -5.262 135.641  0.00  0.00    -0.491 OA
ATOM     25  C   LIG A   1      -6.626  -6.266 136.020  0.00  0.00    +0.277 C 
ENDBRANCH   6  24
BRANCH   7  26
ATOM     26  O   LIG A   1      -3.975  -6.396 133.618  0.00  0.00    -0.491 OA
ATOM     27  C   LIG A   1      -2.655  -5.983 133.982  0.00  0.00    +0.277 C 
ENDBRANCH   7  26
TORSDOF 6
ENDMDL
MODEL 3
REMARK VINA RESULT:      -6.4      7.405     11.567
REMARK  Name = NuBBE_1894
REMARK  11 active torsions:
REMARK  status: ('A' for Active; 'I' for Inactive)
REMARK    1  A    between atoms: C_1  and  O_2
REMARK    2  A    between atoms: O_2  and  C_3
REMARK    3  A    between atoms: C_4  and  O_5
REMARK    4  A    between atoms: O_5  and  C_6
REMARK    5  A    between atoms: C_7  and  O_8
REMARK    6  A    between atoms: O_8  and  C_9
REMARK    7  A    between atoms: C_12  and  C_13
REMARK    8  A    between atoms: C_18  and  O_19
REMARK    9  A    between atoms: O_19  and  C_20
REMARK   10  A    between atoms: C_21  and  O_22
REMARK   11  A    between atoms: O_22  and  C_23
REMARK                            x       y       z     vdW  Elec       q    Type
REMARK                         _______ _______ _______ _____ _____    ______ ____
ROOT
ATOM      1  C   LIG A   1      -6.692  -2.279 127.920  0.00  0.00    +0.068 A 
ATOM      2  C   LIG A   1      -5.370  -2.332 127.667  0.00  0.00    +0.208 A 
ATOM      3  O   LIG A   1      -4.428  -2.901 128.481  0.00  0.00    -0.462 OA
ATOM      4  C   LIG A   1      -4.813  -3.159 129.768  0.00  0.00    +0.142 A 
ATOM      5  C   LIG A   1      -3.795  -3.283 130.708  0.00  0.00    +0.096 A 
ATOM      6  C   LIG A   1      -4.085  -3.617 132.027  0.00  0.00    +0.165 A 
ATOM      7  C   LIG A   1      -5.433  -3.749 132.435  0.00  0.00    +0.162 A 
ATOM      8  C   LIG A   1      -6.459  -3.596 131.482  0.00  0.00    +0.064 A 
ATOM      9  C   LIG A   1      -6.143  -3.292 130.150  0.00  0.00    +0.068 A 
ATOM     10  C   LIG A   1      -7.135  -3.044 129.106  0.00  0.00    +0.200 A 
ATOM     11  O   LIG A   1      -8.322  -3.478 129.228  0.00  0.00    -0.286 OA
ENDROOT
BRANCH   1  17
ATOM     12  C   LIG A   1      -8.272  -2.037 125.946  0.00  0.00    +0.173 A 
ATOM     13  C   LIG A   1      -9.087  -1.203 125.127  0.00  0.00    +0.204 A 
ATOM     14  C   LIG A   1      -9.305   0.150 125.542  0.00  0.00    +0.165 A 
ATOM     15  C   LIG A   1      -8.686   0.654 126.692  0.00  0.00    +0.050 A 
ATOM     16  C   LIG A   1      -7.815  -0.143 127.426  0.00  0.00    +0.016 A 
ATOM     17  C   LIG A   1      -7.601  -1.484 127.069  0.00  0.00    +0.034 A 
BRANCH  12  19
ATOM     18  C   LIG A   1      -7.233  -3.675 124.639  0.00  0.00    +0.277 C 
ATOM     19  O   LIG A   1      -8.011  -3.385 125.786  0.00  0.00    -0.491 OA
ENDBRANCH  12  19
BRANCH  13  20
ATOM     20  O   LIG A   1      -9.688  -1.466 123.911  0.00  0.00    -0.488 OA
ATOM     21  C   LIG A   1      -9.010  -1.449 122.674  0.00  0.00    +0.277 C 
ENDBRANCH  13  20
BRANCH  14  22
ATOM     22  O   LIG A   1     -10.170   0.911 124.777  0.00  0.00    -0.491 OA
ATOM     23  C   LIG A   1      -9.622   2.005 124.041  0.00  0.00    +0.277 C 
ENDBRANCH  14  22
ENDBRANCH   1  17
BRANCH   6  24
ATOM     24  O   LIG A   1      -3.085  -3.719 132.947  0.00  0.00    -0.491 OA
ATOM     25  C   LIG A   1      -2.740  -2.583 133.727  0.00  0.00    +0.277 C 
ENDBRANCH   6  24
BRANCH   7  26
ATOM     26  O   LIG A   1      -5.850  -4.051 133.714  0.00  0.00    -0.491 OA
ATOM     27  C   LIG A   1      -5.930  -5.441 134.036  0.00  0.00    +0.277 C 
ENDBRANCH   7  26
TORSDOF 6
ENDMDL
MODEL 4
REMARK VINA RESULT:      -6.3      5.665      8.723
REMARK  Name = NuBBE_1894
REMARK  11 active torsions:
REMARK  status: ('A' for Active; 'I' for Inactive)
REMARK    1  A    between atoms: C_1  and  O_2
REMARK    2  A    between atoms: O_2  and  C_3
REMARK    3  A    between atoms: C_4  and  O_5
REMARK    4  A    between atoms: O_5  and  C_6
REMARK    5  A    between atoms: C_7  and  O_8
REMARK    6  A    between atoms: O_8  and  C_9
REMARK    7  A    between atoms: C_12  and  C_13
REMARK    8  A    between atoms: C_18  and  O_19
REMARK    9  A    between atoms: O_19  and  C_20
REMARK   10  A    between atoms: C_21  and  O_22
REMARK   11  A    between atoms: O_22  and  C_23
REMARK                            x       y       z     vdW  Elec       q    Type
REMARK                         _______ _______ _______ _____ _____    ______ ____
ROOT
ATOM      1  C   LIG A   1      -5.192   1.594 126.309  0.00  0.00    +0.068 A 
ATOM      2  C   LIG A   1      -4.971   0.329 126.718  0.00  0.00    +0.208 A 
ATOM      3  O   LIG A   1      -5.605  -0.783 126.235  0.00  0.00    -0.462 OA
ATOM      4  C   LIG A   1      -6.747  -0.568 125.513  0.00  0.00    +0.142 A 
ATOM      5  C   LIG A   1      -7.635  -1.634 125.422  0.00  0.00    +0.096 A 
ATOM      6  C   LIG A   1      -8.788  -1.532 124.649  0.00  0.00    +0.165 A 
ATOM      7  C   LIG A   1      -9.103  -0.306 124.020  0.00  0.00    +0.162 A 
ATOM      8  C   LIG A   1      -8.209   0.778 124.139  0.00  0.00    +0.064 A 
ATOM      9  C   LIG A   1      -7.037   0.643 124.895  0.00  0.00    +0.068 A 
ATOM     10  C   LIG A   1      -6.086   1.727 125.138  0.00  0.00    +0.200 A 
ATOM     11  O   LIG A   1      -6.043   2.732 124.363  0.00  0.00    -0.286 OA
ENDROOT
BRANCH   1  17
ATOM     12  C   LIG A   1      -5.335   3.561 127.909  0.00  0.00    +0.173 A 
ATOM     13  C   LIG A   1      -4.714   4.693 128.514  0.00  0.00    +0.204 A 
ATOM     14  C   LIG A   1      -3.312   4.893 128.300  0.00  0.00    +0.165 A 
ATOM     15  C   LIG A   1      -2.585   4.030 127.472  0.00  0.00    +0.050 A 
ATOM     16  C   LIG A   1      -3.225   2.989 126.809  0.00  0.00    +0.016 A 
ATOM     17  C   LIG A   1      -4.591   2.742 127.018  0.00  0.00    +0.034 A 
BRANCH  12  19
ATOM     18  C   LIG A   1      -7.595   4.040 127.546  0.00  0.00    +0.277 C 
ATOM     19  O   LIG A   1      -6.639   3.130 128.059  0.00  0.00    -0.491 OA
ENDBRANCH  12  19
BRANCH  13  20
ATOM     20  O   LIG A   1      -5.266   5.715 129.262  0.00  0.00    -0.488 OA
ATOM     21  C   LIG A   1      -5.799   5.546 130.558  0.00  0.00    +0.277 C 
ENDBRANCH  13  20
BRANCH  14  22
ATOM     22  O   LIG A   1      -2.718   5.947 128.970  0.00  0.00    -0.491 OA
ATOM     23  C   LIG A   1      -2.200   7.025 128.190  0.00  0.00    +0.277 C 
ENDBRANCH  14  22
ENDBRANCH   1  17
BRANCH   6  24
ATOM     24  O   LIG A   1      -9.663  -2.574 124.578  0.00  0.00    -0.491 OA
ATOM     25  C   LIG A   1      -9.590  -3.469 123.477  0.00  0.00    +0.277 C 
ENDBRANCH   6  24
BRANCH   7  26
ATOM     26  O   LIG A   1     -10.223  -0.070 123.252  0.00  0.00    -0.491 OA
ATOM     27  C   LIG A   1     -10.158   1.060 122.378  0.00  0.00    +0.277 C 
ENDBRANCH   7  26
TORSDOF 6
ENDMDL
MODEL 5
REMARK VINA RESULT:      -6.2      8.108      9.675
REMARK  Name = NuBBE_1894
REMARK  11 active torsions:
REMARK  status: ('A' for Active; 'I' for Inactive)
REMARK    1  A    between atoms: C_1  and  O_2
REMARK    2  A    between atoms: O_2  and  C_3
REMARK    3  A    between atoms: C_4  and  O_5
REMARK    4  A    between atoms: O_5  and  C_6
REMARK    5  A    between atoms: C_7  and  O_8
REMARK    6  A    between atoms: O_8  and  C_9
REMARK    7  A    between atoms: C_12  and  C_13
REMARK    8  A    between atoms: C_18  and  O_19
REMARK    9  A    between atoms: O_19  and  C_20
REMARK   10  A    between atoms: C_21  and  O_22
REMARK   11  A    between atoms: O_22  and  C_23
REMARK                            x       y       z     vdW  Elec       q    Type
REMARK                         _______ _______ _______ _____ _____    ______ ____
ROOT
ATOM      1  C   LIG A   1      -6.100  -2.375 129.423  0.00  0.00    +0.068 A 
ATOM      2  C   LIG A   1      -5.097  -1.701 128.829  0.00  0.00    +0.208 A 
ATOM      3  O   LIG A   1      -5.180  -1.048 127.628  0.00  0.00    -0.462 OA
ATOM      4  C   LIG A   1      -6.256  -1.357 126.842  0.00  0.00    +0.142 A 
ATOM      5  C   LIG A   1      -6.128  -1.092 125.483  0.00  0.00    +0.096 A 
ATOM      6  C   LIG A   1      -7.196  -1.304 124.616  0.00  0.00    +0.165 A 
ATOM      7  C   LIG A   1      -8.393  -1.875 125.106  0.00  0.00    +0.162 A 
ATOM      8  C   LIG A   1      -8.504  -2.164 126.481  0.00  0.00    +0.064 A 
ATOM      9  C   LIG A   1      -7.428  -1.911 127.343  0.00  0.00    +0.068 A 
ATOM     10  C   LIG A   1      -7.420  -2.242 128.767  0.00  0.00    +0.200 A 
ATOM     11  O   LIG A   1      -8.510  -2.404 129.398  0.00  0.00    -0.286 OA
ENDROOT
BRANCH   1  17
ATOM     12  C   LIG A   1      -5.959  -2.670 131.942  0.00  0.00    +0.173 A 
ATOM     13  C   LIG A   1      -5.654  -3.498 133.061  0.00  0.00    +0.204 A 
ATOM     14  C   LIG A   1      -5.379  -4.883 132.824  0.00  0.00    +0.165 A 
ATOM     15  C   LIG A   1      -5.355  -5.396 131.522  0.00  0.00    +0.050 A 
ATOM     16  C   LIG A   1      -5.557  -4.554 130.433  0.00  0.00    +0.016 A 
ATOM     17  C   LIG A   1      -5.861  -3.198 130.627  0.00  0.00    +0.034 A 
BRANCH  12  19
ATOM     18  C   LIG A   1      -7.599  -1.124 132.566  0.00  0.00    +0.277 C 
ATOM     19  O   LIG A   1      -6.343  -1.343 131.951  0.00  0.00    -0.491 OA
ENDBRANCH  12  19
BRANCH  13  20
ATOM     20  O   LIG A   1      -5.513  -3.171 134.396  0.00  0.00    -0.488 OA
ATOM     21  C   LIG A   1      -4.496  -2.334 134.901  0.00  0.00    +0.277 C 
ENDBRANCH  13  20
BRANCH  14  22
ATOM     22  O   LIG A   1      -5.174  -5.683 133.934  0.00  0.00    -0.491 OA
ATOM     23  C   LIG A   1      -3.878  -6.256 134.112  0.00  0.00    +0.277 C 
ENDBRANCH  14  22
ENDBRANCH   1  17
BRANCH   6  24
ATOM     24  O   LIG A   1      -7.059  -1.060 123.282  0.00  0.00    -0.491 OA
ATOM     25  C   LIG A   1      -6.219  -1.901 122.504  0.00  0.00    +0.277 C 
ENDBRANCH   6  24
BRANCH   7  26
ATOM     26  O   LIG A   1      -9.508  -2.157 124.348  0.00  0.00    -0.491 OA
ATOM     27  C   LIG A   1      -9.489  -3.401 123.642  0.00  0.00    +0.277 C 
ENDBRANCH   7  26
TORSDOF 6
ENDMDL
MODEL 6
REMARK VINA RESULT:      -6.1      6.039     11.222
REMARK  Name = NuBBE_1894
REMARK  11 active torsions:
REMARK  status: ('A' for Active; 'I' for Inactive)
REMARK    1  A    between atoms: C_1  and  O_2
REMARK    2  A    between atoms: O_2  and  C_3
REMARK    3  A    between atoms: C_4  and  O_5
REMARK    4  A    between atoms: O_5  and  C_6
REMARK    5  A    between atoms: C_7  and  O_8
REMARK    6  A    between atoms: O_8  and  C_9
REMARK    7  A    between atoms: C_12  and  C_13
REMARK    8  A    between atoms: C_18  and  O_19
REMARK    9  A    between atoms: O_19  and  C_20
REMARK   10  A    between atoms: C_21  and  O_22
REMARK   11  A    between atoms: O_22  and  C_23
REMARK                            x       y       z     vdW  Elec       q    Type
REMARK                         _______ _______ _______ _____ _____    ______ ____
ROOT
ATOM      1  C   LIG A   1      -6.654  -2.377 128.183  0.00  0.00    +0.068 A 
ATOM      2  C   LIG A   1      -5.351  -2.550 127.889  0.00  0.00    +0.208 A 
ATOM      3  O   LIG A   1      -4.430  -3.163 128.694  0.00  0.00    -0.462 OA
ATOM      4  C   LIG A   1      -4.786  -3.337 130.003  0.00  0.00    +0.142 A 
ATOM      5  C   LIG A   1      -3.748  -3.508 130.912  0.00  0.00    +0.096 A 
ATOM      6  C   LIG A   1      -4.015  -3.765 132.254  0.00  0.00    +0.165 A 
ATOM      7  C   LIG A   1      -5.352  -3.766 132.712  0.00  0.00    +0.162 A 
ATOM      8  C   LIG A   1      -6.397  -3.567 131.788  0.00  0.00    +0.064 A 
ATOM      9  C   LIG A   1      -6.107  -3.343 130.435  0.00  0.00    +0.068 A 
ATOM     10  C   LIG A   1      -7.113  -3.055 129.415  0.00  0.00    +0.200 A 
ATOM     11  O   LIG A   1      -8.328  -3.382 129.596  0.00  0.00    -0.286 OA
ENDROOT
BRANCH   1  17
ATOM     12  C   LIG A   1      -7.595  -0.130 127.464  0.00  0.00    +0.173 A 
ATOM     13  C   LIG A   1      -8.503   0.613 126.655  0.00  0.00    +0.204 A 
ATOM     14  C   LIG A   1      -9.229  -0.084 125.636  0.00  0.00    +0.165 A 
ATOM     15  C   LIG A   1      -9.092  -1.468 125.478  0.00  0.00    +0.050 A 
ATOM     16  C   LIG A   1      -8.277  -2.194 126.341  0.00  0.00    +0.016 A 
ATOM     17  C   LIG A   1      -7.526  -1.543 127.331  0.00  0.00    +0.034 A 
BRANCH  12  19
ATOM     18  C   LIG A   1      -7.393   0.799 129.601  0.00  0.00    +0.277 C 
ATOM     19  O   LIG A   1      -6.734   0.352 128.431  0.00  0.00    -0.491 OA
ENDBRANCH  12  19
BRANCH  13  20
ATOM     20  O   LIG A   1      -8.867   1.944 126.720  0.00  0.00    -0.488 OA
ATOM     21  C   LIG A   1      -7.986   3.017 126.468  0.00  0.00    +0.277 C 
ENDBRANCH  13  20
BRANCH  14  22
ATOM     22  O   LIG A   1     -10.036   0.676 124.807  0.00  0.00    -0.491 OA
ATOM     23  C   LIG A   1      -9.670   0.776 123.431  0.00  0.00    +0.277 C 
ENDBRANCH  14  22
ENDBRANCH   1  17
BRANCH   6  24
ATOM     24  O   LIG A   1      -2.993  -3.914 133.142  0.00  0.00    -0.491 OA
ATOM     25  C   LIG A   1      -2.654  -5.215 133.600  0.00  0.00    +0.277 C 
ENDBRANCH   6  24
BRANCH   7  26
ATOM     26  O   LIG A   1      -5.745  -3.981 134.016  0.00  0.00    -0.491 OA
ATOM     27  C   LIG A   1      -6.304  -5.266 134.299  0.00  0.00    +0.277 C 
ENDBRANCH   7  26
TORSDOF 6
ENDMDL
MODEL 7
REMARK VINA RESULT:      -6.0      7.291      9.017
REMARK  Name = NuBBE_1894
REMARK  11 active torsions:
REMARK  status: ('A' for Active; 'I' for Inactive)
REMARK    1  A    between atoms: C_1  and  O_2
REMARK    2  A    between atoms: O_2  and  C_3
REMARK    3  A    between atoms: C_4  and  O_5
REMARK    4  A    between atoms: O_5  and  C_6
REMARK    5  A    between atoms: C_7  and  O_8
REMARK    6  A    between atoms: O_8  and  C_9
REMARK    7  A    between atoms: C_12  and  C_13
REMARK    8  A    between atoms: C_18  and  O_19
REMARK    9  A    between atoms: O_19  and  C_20
REMARK   10  A    between atoms: C_21  and  O_22
REMARK   11  A    between atoms: O_22  and  C_23
REMARK                            x       y       z     vdW  Elec       q    Type
REMARK                         _______ _______ _______ _____ _____    ______ ____
ROOT
ATOM      1  C   LIG A   1      -6.949  -3.138 129.096  0.00  0.00    +0.068 A 
ATOM      2  C   LIG A   1      -8.177  -3.587 128.772  0.00  0.00    +0.208 A 
ATOM      3  O   LIG A   1      -8.816  -3.365 127.582  0.00  0.00    -0.462 OA
ATOM      4  C   LIG A   1      -8.303  -2.374 126.792  0.00  0.00    +0.142 A 
ATOM      5  C   LIG A   1      -9.163  -1.822 125.849  0.00  0.00    +0.096 A 
ATOM      6  C   LIG A   1      -8.710  -0.860 124.952  0.00  0.00    +0.165 A 
ATOM      7  C   LIG A   1      -7.385  -0.376 125.056  0.00  0.00    +0.162 A 
ATOM      8  C   LIG A   1      -6.527  -0.923 126.031  0.00  0.00    +0.064 A 
ATOM      9  C   LIG A   1      -6.995  -1.916 126.903  0.00  0.00    +0.068 A 
ATOM     10  C   LIG A   1      -6.207  -2.492 127.991  0.00  0.00    +0.200 A 
ATOM     11  O   LIG A   1      -4.938  -2.433 127.970  0.00  0.00    -0.286 OA
ENDROOT
BRANCH   1  17
ATOM     12  C   LIG A   1      -6.463  -2.210 131.409  0.00  0.00    +0.173 A 
ATOM     13  C   LIG A   1      -5.882  -2.383 132.699  0.00  0.00    +0.204 A 
ATOM     14  C   LIG A   1      -5.386  -3.680 133.051  0.00  0.00    +0.165 A 
ATOM     15  C   LIG A   1      -5.420  -4.733 132.130  0.00  0.00    +0.050 A 
ATOM     16  C   LIG A   1      -5.899  -4.523 130.841  0.00  0.00    +0.016 A 
ATOM     17  C   LIG A   1      -6.423  -3.275 130.469  0.00  0.00    +0.034 A 
BRANCH  12  19
ATOM     18  C   LIG A   1      -8.253  -0.718 131.612  0.00  0.00    +0.277 C 
ATOM     19  O   LIG A   1      -7.081  -1.083 130.904  0.00  0.00    -0.491 OA
ENDBRANCH  12  19
BRANCH  13  20
ATOM     20  O   LIG A   1      -5.649  -1.460 133.700  0.00  0.00    -0.488 OA
ATOM     21  C   LIG A   1      -4.815  -0.331 133.555  0.00  0.00    +0.277 C 
ENDBRANCH  13  20
BRANCH  14  22
ATOM     22  O   LIG A   1      -4.908  -3.842 134.339  0.00  0.00    -0.491 OA
ATOM     23  C   LIG A   1      -5.552  -4.808 135.171  0.00  0.00    +0.277 C 
ENDBRANCH  14  22
ENDBRANCH   1  17
BRANCH   6  24
ATOM     24  O   LIG A   1      -9.562  -0.310 124.043  0.00  0.00    -0.491 OA
ATOM     25  C   LIG A   1      -9.544  -0.778 122.702  0.00  0.00    +0.277 C 
ENDBRANCH   6  24
BRANCH   7  26
ATOM     26  O   LIG A   1      -6.826   0.590 124.248  0.00  0.00    -0.491 OA
ATOM     27  C   LIG A   1      -6.829   1.922 124.768  0.00  0.00    +0.277 C 
ENDBRANCH   7  26
TORSDOF 6
ENDMDL
MODEL 8
REMARK VINA RESULT:      -6.0      6.463     10.539
REMARK  Name = NuBBE_1894
REMARK  11 active torsions:
REMARK  status: ('A' for Active; 'I' for Inactive)
REMARK    1  A    between atoms: C_1  and  O_2
REMARK    2  A    between atoms: O_2  and  C_3
REMARK    3  A    between atoms: C_4  and  O_5
REMARK    4  A    between atoms: O_5  and  C_6
REMARK    5  A    between atoms: C_7  and  O_8
REMARK    6  A    between atoms: O_8  and  C_9
REMARK    7  A    between atoms: C_12  and  C_13
REMARK    8  A    between atoms: C_18  and  O_19
REMARK    9  A    between atoms: O_19  and  C_20
REMARK   10  A    between atoms: C_21  and  O_22
REMARK   11  A    between atoms: O_22  and  C_23
REMARK                            x       y       z     vdW  Elec       q    Type
REMARK                         _______ _______ _______ _____ _____    ______ ____
ROOT
ATOM      1  C   LIG A   1      -6.232   3.594 124.295  0.00  0.00    +0.068 A 
ATOM      2  C   LIG A   1      -6.302   2.351 124.809  0.00  0.00    +0.208 A 
ATOM      3  O   LIG A   1      -6.059   2.017 126.114  0.00  0.00    -0.462 OA
ATOM      4  C   LIG A   1      -5.410   2.953 126.871  0.00  0.00    +0.142 A 
ATOM      5  C   LIG A   1      -4.751   2.489 128.004  0.00  0.00    +0.096 A 
ATOM      6  C   LIG A   1      -4.125   3.376 128.874  0.00  0.00    +0.165 A 
ATOM      7  C   LIG A   1      -4.085   4.754 128.559  0.00  0.00    +0.162 A 
ATOM      8  C   LIG A   1      -4.734   5.213 127.395  0.00  0.00    +0.064 A 
ATOM      9  C   LIG A   1      -5.387   4.306 126.550  0.00  0.00    +0.068 A 
ATOM     10  C   LIG A   1      -6.025   4.672 125.287  0.00  0.00    +0.200 A 
ATOM     11  O   LIG A   1      -6.382   5.872 125.068  0.00  0.00    -0.286 OA
ENDROOT
BRANCH   1  17
ATOM     12  C   LIG A   1      -7.549   3.658 122.124  0.00  0.00    +0.173 A 
ATOM     13  C   LIG A   1      -7.567   3.834 120.709  0.00  0.00    +0.204 A 
ATOM     14  C   LIG A   1      -6.375   4.303 120.069  0.00  0.00    +0.165 A 
ATOM     15  C   LIG A   1      -5.207   4.528 120.807  0.00  0.00    +0.050 A 
ATOM     16  C   LIG A   1      -5.176   4.256 122.171  0.00  0.00    +0.016 A 
ATOM     17  C   LIG A   1      -6.333   3.825 122.839  0.00  0.00    +0.034 A 
BRANCH  12  19
ATOM     18  C   LIG A   1      -9.138   2.029 122.664  0.00  0.00    +0.277 C 
ATOM     19  O   LIG A   1      -8.602   3.309 122.947  0.00  0.00    -0.491 OA
ENDBRANCH  12  19
BRANCH  13  20
ATOM     20  O   LIG A   1      -8.566   3.565 119.793  0.00  0.00    -0.488 OA
ATOM     21  C   LIG A   1      -9.609   4.460 119.476  0.00  0.00    +0.277 C 
ENDBRANCH  13  20
BRANCH  14  22
ATOM     22  O   LIG A   1      -6.448   4.551 118.710  0.00  0.00    -0.491 OA
ATOM     23  C   LIG A   1      -5.970   5.810 118.236  0.00  0.00    +0.277 C 
ENDBRANCH  14  22
ENDBRANCH   1  17
BRANCH   6  24
ATOM     24  O   LIG A   1      -3.466   2.913 129.973  0.00  0.00    -0.491 OA
ATOM     25  C   LIG A   1      -4.196   2.242 130.990  0.00  0.00    +0.277 C 
ENDBRANCH   6  24
BRANCH   7  26
ATOM     26  O   LIG A   1      -3.477   5.727 129.323  0.00  0.00    -0.491 OA
ATOM     27  C   LIG A   1      -2.266   6.273 128.794  0.00  0.00    +0.277 C 
ENDBRANCH   7  26
TORSDOF 6
ENDMDL
MODEL 9
REMARK VINA RESULT:      -5.9      6.865      9.391
REMARK  Name = NuBBE_1894
REMARK  11 active torsions:
REMARK  status: ('A' for Active; 'I' for Inactive)
REMARK    1  A    between atoms: C_1  and  O_2
REMARK    2  A    between atoms: O_2  and  C_3
REMARK    3  A    between atoms: C_4  and  O_5
REMARK    4  A    between atoms: O_5  and  C_6
REMARK    5  A    between atoms: C_7  and  O_8
REMARK    6  A    between atoms: O_8  and  C_9
REMARK    7  A    between atoms: C_12  and  C_13
REMARK    8  A    between atoms: C_18  and  O_19
REMARK    9  A    between atoms: O_19  and  C_20
REMARK   10  A    between atoms: C_21  and  O_22
REMARK   11  A    between atoms: O_22  and  C_23
REMARK                            x       y       z     vdW  Elec       q    Type
REMARK                         _______ _______ _______ _____ _____    ______ ____
ROOT
ATOM      1  C   LIG A   1      -2.325   5.746 131.790  0.00  0.00    +0.068 A 
ATOM      2  C   LIG A   1      -1.144   5.505 132.391  0.00  0.00    +0.208 A 
ATOM      3  O   LIG A   1      -0.443   6.402 133.151  0.00  0.00    -0.462 OA
ATOM      4  C   LIG A   1      -0.813   7.714 133.041  0.00  0.00    +0.142 A 
ATOM      5  C   LIG A   1       0.137   8.661 133.406  0.00  0.00    +0.096 A 
ATOM      6  C   LIG A   1      -0.173  10.017 133.396  0.00  0.00    +0.165 A 
ATOM      7  C   LIG A   1      -1.438  10.442 132.929  0.00  0.00    +0.162 A 
ATOM      8  C   LIG A   1      -2.386   9.476 132.536  0.00  0.00    +0.064 A 
ATOM      9  C   LIG A   1      -2.064   8.113 132.586  0.00  0.00    +0.068 A 
ATOM     10  C   LIG A   1      -2.950   7.042 132.133  0.00  0.00    +0.200 A 
ATOM     11  O   LIG A   1      -4.203   7.235 132.046  0.00  0.00    -0.286 OA
ENDROOT
BRANCH   1  17
ATOM     12  C   LIG A   1      -2.755   4.894 129.437  0.00  0.00    +0.173 A 
ATOM     13  C   LIG A   1      -3.399   3.961 128.572  0.00  0.00    +0.204 A 
ATOM     14  C   LIG A   1      -4.085   2.852 129.162  0.00  0.00    +0.165 A 
ATOM     15  C   LIG A   1      -4.168   2.719 130.553  0.00  0.00    +0.050 A 
ATOM     16  C   LIG A   1      -3.620   3.691 131.384  0.00  0.00    +0.016 A 
ATOM     17  C   LIG A   1      -2.912   4.776 130.844  0.00  0.00    +0.034 A 
BRANCH  12  19
ATOM     18  C   LIG A   1      -2.664   6.964 128.353  0.00  0.00    +0.277 C 
ATOM     19  O   LIG A   1      -1.966   5.971 129.082  0.00  0.00    -0.491 OA
ENDBRANCH  12  19
BRANCH  13  20
ATOM     20  O   LIG A   1      -3.533   3.971 127.197  0.00  0.00    -0.488 OA
ATOM     21  C   LIG A   1      -2.495   3.640 126.300  0.00  0.00    +0.277 C 
ENDBRANCH  13  20
BRANCH  14  22
ATOM     22  O   LIG A   1      -4.625   1.915 128.299  0.00  0.00    -0.491 OA
ATOM     23  C   LIG A   1      -6.040   1.728 128.320  0.00  0.00    +0.277 C 
ENDBRANCH  14  22
ENDBRANCH   1  17
BRANCH   6  24
ATOM     24  O   LIG A   1       0.768  10.941 133.738  0.00  0.00    -0.491 OA
ATOM     25  C   LIG A   1       1.615  11.477 132.731  0.00  0.00    +0.277 C 
ENDBRANCH   6  24
BRANCH   7  26
ATOM     26  O   LIG A   1      -1.856  11.753 132.846  0.00  0.00    -0.491 OA
ATOM     27  C   LIG A   1      -2.551  12.263 133.987  0.00  0.00    +0.277 C 
ENDBRANCH   7  26
TORSDOF 6
ENDMDL
