MODEL 1
REMARK VINA RESULT:      -8.2      0.000      0.000
REMARK  Name = NuBBE_2325
REMARK  8 active torsions:
REMARK  status: ('A' for Active; 'I' for Inactive)
REMARK    1  A    between atoms: C_1  and  C_28
REMARK    2  A    between atoms: C_3  and  C_25
REMARK    3  A    between atoms: C_4  and  O_24
REMARK    4  A    between atoms: C_5  and  O_22
REMARK    5  A    between atoms: C_6  and  C_8
REMARK    6  A    between atoms: C_19  and  O_21
REMARK    7  A    between atoms: O_22  and  C_23
REMARK    8  A    between atoms: C_25  and  C_26
REMARK                            x       y       z     vdW  Elec       q    Type
REMARK                         _______ _______ _______ _____ _____    ______ ____
ROOT
ATOM      1  C   LIG A   1      -7.242  -3.005 124.979  0.00  0.00    +0.009 C 
ATOM      2  C   LIG A   1      -6.939  -1.986 123.840  0.00  0.00    +0.028 C 
ATOM      3  C   LIG A   1      -6.598  -0.730 124.695  0.00  0.00    +0.165 C 
ATOM      4  C   LIG A   1      -7.816  -0.664 125.647  0.00  0.00    +0.168 C 
ATOM      5  C   LIG A   1      -7.948  -2.166 126.111  0.00  0.00    +0.065 C 
ATOM      6  C   LIG A   1      -9.077  -0.330 124.799  0.00  0.00    +0.231 C 
ATOM      7  O   LIG A   1     -10.030   0.356 125.184  0.00  0.00    -0.286 OA
ATOM      8  C   LIG A   1      -9.175  -0.935 123.435  0.00  0.00    +0.159 C 
ATOM      9  C   LIG A   1      -8.192  -1.740 123.014  0.00  0.00    +0.032 C 
ATOM     10  C   LIG A   1      -8.009  -4.272 124.605  0.00  0.00    +0.009 C 
ENDROOT
BRANCH   5  11
ATOM     11  C   LIG A   1      -7.416  -2.484 127.512  0.00  0.00    -0.037 A 
ATOM     12  C   LIG A   1      -8.334  -2.824 128.538  0.00  0.00    +0.008 A 
ATOM     13  C   LIG A   1      -7.900  -3.185 129.823  0.00  0.00    +0.050 A 
ATOM     14  C   LIG A   1      -6.545  -3.212 130.061  0.00  0.00    +0.166 A 
ATOM     15  C   LIG A   1      -5.645  -2.859 129.089  0.00  0.00    +0.167 A 
ATOM     16  C   LIG A   1      -6.045  -2.465 127.829  0.00  0.00    +0.053 A 
ATOM     17  O   LIG A   1      -4.354  -2.954 129.505  0.00  0.00    -0.453 OA
ATOM     18  C   LIG A   1      -4.545  -3.438 130.849  0.00  0.00    +0.466 C 
ATOM     19  O   LIG A   1      -5.934  -3.566 131.222  0.00  0.00    -0.453 OA
ENDBRANCH   5  11
BRANCH   8  20
ATOM     20  O   LIG A   1     -10.289  -0.682 122.668  0.00  0.00    -0.503 OA
ATOM     21  H   LIG A   1     -10.140  -1.186 121.838  0.00  0.00    +0.292 HD
ENDBRANCH   8  20
BRANCH   4  22
ATOM     22  O   LIG A   1      -7.660   0.200 126.770  0.00  0.00    -0.365 OA
ATOM     23  C   LIG A   1      -6.477   0.990 126.775  0.00  0.00    +0.195 C 
ENDBRANCH   4  22
BRANCH   3  24
ATOM     24  O   LIG A   1      -6.430   0.463 123.937  0.00  0.00    -0.388 OA
ATOM     25  H   LIG A   1      -7.262   0.966 123.984  0.00  0.00    +0.210 HD
ENDBRANCH   3  24
BRANCH   2  26
ATOM     26  C   LIG A   1      -5.754  -2.462 122.958  0.00  0.00    +0.040 C 
BRANCH  26  27
ATOM     27  C   LIG A   1      -4.651  -3.181 123.689  0.00  0.00    -0.034 C 
ATOM     28  C   LIG A   1      -4.300  -4.455 123.474  0.00  0.00    +0.004 C 
ENDBRANCH  26  27
ENDBRANCH   2  26
TORSDOF 6
ENDMDL
MODEL 2
REMARK VINA RESULT:      -7.6      2.718      4.277
REMARK  Name = NuBBE_2325
REMARK  8 active torsions:
REMARK  status: ('A' for Active; 'I' for Inactive)
REMARK    1  A    between atoms: C_1  and  C_28
REMARK    2  A    between atoms: C_3  and  C_25
REMARK    3  A    between atoms: C_4  and  O_24
REMARK    4  A    between atoms: C_5  and  O_22
REMARK    5  A    between atoms: C_6  and  C_8
REMARK    6  A    between atoms: C_19  and  O_21
REMARK    7  A    between atoms: O_22  and  C_23
REMARK    8  A    between atoms: C_25  and  C_26
REMARK                            x       y       z     vdW  Elec       q    Type
REMARK                         _______ _______ _______ _____ _____    ______ ____
ROOT
ATOM      1  C   LIG A   1      -5.770  -1.237 125.998  0.00  0.00    +0.009 C 
ATOM      2  C   LIG A   1      -6.323  -1.788 124.650  0.00  0.00    +0.028 C 
ATOM      3  C   LIG A   1      -6.738  -0.448 123.970  0.00  0.00    +0.165 C 
ATOM      4  C   LIG A   1      -7.591   0.211 125.079  0.00  0.00    +0.168 C 
ATOM      5  C   LIG A   1      -6.691  -0.009 126.357  0.00  0.00    +0.065 C 
ATOM      6  C   LIG A   1      -8.879  -0.641 125.271  0.00  0.00    +0.231 C 
ATOM      7  O   LIG A   1      -9.992  -0.189 125.564  0.00  0.00    -0.286 OA
ATOM      8  C   LIG A   1      -8.753  -2.126 125.152  0.00  0.00    +0.159 C 
ATOM      9  C   LIG A   1      -7.548  -2.652 124.904  0.00  0.00    +0.032 C 
ATOM     10  C   LIG A   1      -5.614  -2.226 127.152  0.00  0.00    +0.009 C 
ENDROOT
BRANCH   5  11
ATOM     11  C   LIG A   1      -5.901   1.212 126.838  0.00  0.00    -0.037 A 
ATOM     12  C   LIG A   1      -6.442   2.019 127.871  0.00  0.00    +0.008 A 
ATOM     13  C   LIG A   1      -5.735   3.114 128.395  0.00  0.00    +0.050 A 
ATOM     14  C   LIG A   1      -4.486   3.378 127.882  0.00  0.00    +0.166 A 
ATOM     15  C   LIG A   1      -3.961   2.625 126.864  0.00  0.00    +0.167 A 
ATOM     16  C   LIG A   1      -4.648   1.567 126.306  0.00  0.00    +0.053 A 
ATOM     17  O   LIG A   1      -2.716   3.030 126.495  0.00  0.00    -0.453 OA
ATOM     18  C   LIG A   1      -2.505   4.113 127.423  0.00  0.00    +0.466 C 
ATOM     19  O   LIG A   1      -3.640   4.365 128.279  0.00  0.00    -0.453 OA
ENDBRANCH   5  11
BRANCH   8  20
ATOM     20  O   LIG A   1      -9.866  -2.911 125.341  0.00  0.00    -0.503 OA
ATOM     21  H   LIG A   1      -9.828  -3.578 124.621  0.00  0.00    +0.292 HD
ENDBRANCH   8  20
BRANCH   4  22
ATOM     22  O   LIG A   1      -7.867   1.596 124.888  0.00  0.00    -0.365 OA
ATOM     23  C   LIG A   1      -7.248   2.192 123.754  0.00  0.00    +0.195 C 
ENDBRANCH   4  22
BRANCH   3  24
ATOM     24  O   LIG A   1      -7.454  -0.612 122.751  0.00  0.00    -0.388 OA
ATOM     25  H   LIG A   1      -6.842  -0.990 122.095  0.00  0.00    +0.210 HD
ENDBRANCH   3  24
BRANCH   2  26
ATOM     26  C   LIG A   1      -5.229  -2.556 123.864  0.00  0.00    +0.040 C 
BRANCH  26  27
ATOM     27  C   LIG A   1      -5.286  -4.057 123.973  0.00  0.00    -0.034 C 
ATOM     28  C   LIG A   1      -4.324  -4.888 123.554  0.00  0.00    +0.004 C 
ENDBRANCH  26  27
ENDBRANCH   2  26
TORSDOF 6
ENDMDL
MODEL 3
REMARK VINA RESULT:      -7.4      2.759      4.104
REMARK  Name = NuBBE_2325
REMARK  8 active torsions:
REMARK  status: ('A' for Active; 'I' for Inactive)
REMARK    1  A    between atoms: C_1  and  C_28
REMARK    2  A    between atoms: C_3  and  C_25
REMARK    3  A    between atoms: C_4  and  O_24
REMARK    4  A    between atoms: C_5  and  O_22
REMARK    5  A    between atoms: C_6  and  C_8
REMARK    6  A    between atoms: C_19  and  O_21
REMARK    7  A    between atoms: O_22  and  C_23
REMARK    8  A    between atoms: C_25  and  C_26
REMARK                            x       y       z     vdW  Elec       q    Type
REMARK                         _______ _______ _______ _____ _____    ______ ____
ROOT
ATOM      1  C   LIG A   1      -7.082  -1.683 126.300  0.00  0.00    +0.009 C 
ATOM      2  C   LIG A   1      -6.722  -2.198 124.875  0.00  0.00    +0.028 C 
ATOM      3  C   LIG A   1      -6.583  -0.836 124.131  0.00  0.00    +0.165 C 
ATOM      4  C   LIG A   1      -7.908  -0.137 124.516  0.00  0.00    +0.168 C 
ATOM      5  C   LIG A   1      -7.981  -0.409 126.068  0.00  0.00    +0.065 C 
ATOM      6  C   LIG A   1      -9.079  -0.919 123.855  0.00  0.00    +0.231 C 
ATOM      7  O   LIG A   1     -10.121  -0.409 123.427  0.00  0.00    -0.286 OA
ATOM      8  C   LIG A   1      -8.966  -2.408 123.784  0.00  0.00    +0.159 C 
ATOM      9  C   LIG A   1      -7.881  -2.997 124.301  0.00  0.00    +0.032 C 
ATOM     10  C   LIG A   1      -7.700  -2.683 127.275  0.00  0.00    +0.009 C 
ENDROOT
BRANCH   5  11
ATOM     11  C   LIG A   1      -7.598   0.766 126.973  0.00  0.00    -0.037 A 
ATOM     12  C   LIG A   1      -6.228   1.001 127.255  0.00  0.00    +0.008 A 
ATOM     13  C   LIG A   1      -5.815   2.099 128.027  0.00  0.00    +0.050 A 
ATOM     14  C   LIG A   1      -6.783   2.956 128.498  0.00  0.00    +0.166 A 
ATOM     15  C   LIG A   1      -8.113   2.728 128.258  0.00  0.00    +0.167 A 
ATOM     16  C   LIG A   1      -8.550   1.638 127.535  0.00  0.00    +0.053 A 
ATOM     17  O   LIG A   1      -8.918   3.683 128.795  0.00  0.00    -0.453 OA
ATOM     18  C   LIG A   1      -7.935   4.560 129.378  0.00  0.00    +0.466 C 
ATOM     19  O   LIG A   1      -6.580   4.084 129.228  0.00  0.00    -0.453 OA
ENDBRANCH   5  11
BRANCH   8  20
ATOM     20  O   LIG A   1      -9.995  -3.133 123.230  0.00  0.00    -0.503 OA
ATOM     21  H   LIG A   1      -9.862  -3.055 122.260  0.00  0.00    +0.292 HD
ENDBRANCH   8  20
BRANCH   4  22
ATOM     22  O   LIG A   1      -7.954   1.262 124.246  0.00  0.00    -0.365 OA
ATOM     23  C   LIG A   1      -6.771   1.817 123.685  0.00  0.00    +0.195 C 
ENDBRANCH   4  22
BRANCH   3  24
ATOM     24  O   LIG A   1      -6.415  -0.957 122.723  0.00  0.00    -0.388 OA
ATOM     25  H   LIG A   1      -7.300  -0.943 122.315  0.00  0.00    +0.210 HD
ENDBRANCH   3  24
BRANCH   2  26
ATOM     26  C   LIG A   1      -5.407  -3.021 124.888  0.00  0.00    +0.040 C 
BRANCH  26  27
ATOM     27  C   LIG A   1      -5.278  -4.053 123.799  0.00  0.00    -0.034 C 
ATOM     28  C   LIG A   1      -4.150  -4.712 123.504  0.00  0.00    +0.004 C 
ENDBRANCH  26  27
ENDBRANCH   2  26
TORSDOF 6
ENDMDL
MODEL 4
REMARK VINA RESULT:      -6.9      2.880      5.707
REMARK  Name = NuBBE_2325
REMARK  8 active torsions:
REMARK  status: ('A' for Active; 'I' for Inactive)
REMARK    1  A    between atoms: C_1  and  C_28
REMARK    2  A    between atoms: C_3  and  C_25
REMARK    3  A    between atoms: C_4  and  O_24
REMARK    4  A    between atoms: C_5  and  O_22
REMARK    5  A    between atoms: C_6  and  C_8
REMARK    6  A    between atoms: C_19  and  O_21
REMARK    7  A    between atoms: O_22  and  C_23
REMARK    8  A    between atoms: C_25  and  C_26
REMARK                            x       y       z     vdW  Elec       q    Type
REMARK                         _______ _______ _______ _____ _____    ______ ____
ROOT
ATOM      1  C   LIG A   1      -6.110   1.952 125.951  0.00  0.00    +0.009 C 
ATOM      2  C   LIG A   1      -6.686   3.398 125.887  0.00  0.00    +0.028 C 
ATOM      3  C   LIG A   1      -8.058   3.104 125.211  0.00  0.00    +0.165 C 
ATOM      4  C   LIG A   1      -7.627   2.263 123.987  0.00  0.00    +0.168 C 
ATOM      5  C   LIG A   1      -6.608   1.246 124.633  0.00  0.00    +0.065 C 
ATOM      6  C   LIG A   1      -6.815   3.182 123.029  0.00  0.00    +0.231 C 
ATOM      7  O   LIG A   1      -6.823   3.105 121.795  0.00  0.00    -0.286 OA
ATOM      8  C   LIG A   1      -5.908   4.199 123.646  0.00  0.00    +0.159 C 
ATOM      9  C   LIG A   1      -5.824   4.262 124.980  0.00  0.00    +0.032 C 
ATOM     10  C   LIG A   1      -4.607   1.801 126.180  0.00  0.00    +0.009 C 
ENDROOT
BRANCH   5  11
ATOM     11  C   LIG A   1      -7.140  -0.170 124.876  0.00  0.00    -0.037 A 
ATOM     12  C   LIG A   1      -6.990  -1.147 123.858  0.00  0.00    +0.008 A 
ATOM     13  C   LIG A   1      -7.401  -2.476 124.048  0.00  0.00    +0.050 A 
ATOM     14  C   LIG A   1      -7.948  -2.812 125.265  0.00  0.00    +0.166 A 
ATOM     15  C   LIG A   1      -8.126  -1.875 126.249  0.00  0.00    +0.167 A 
ATOM     16  C   LIG A   1      -7.765  -0.555 126.076  0.00  0.00    +0.053 A 
ATOM     17  O   LIG A   1      -8.673  -2.393 127.381  0.00  0.00    -0.453 OA
ATOM     18  C   LIG A   1      -8.792  -3.780 127.004  0.00  0.00    +0.466 C 
ATOM     19  O   LIG A   1      -8.372  -4.046 125.649  0.00  0.00    -0.453 OA
ENDBRANCH   5  11
BRANCH   8  20
ATOM     20  O   LIG A   1      -5.156   5.010 122.828  0.00  0.00    -0.503 OA
ATOM     21  H   LIG A   1      -4.581   4.393 122.325  0.00  0.00    +0.292 HD
ENDBRANCH   8  20
BRANCH   4  22
ATOM     22  O   LIG A   1      -8.682   1.570 123.326  0.00  0.00    -0.365 OA
ATOM     23  C   LIG A   1      -9.945   1.611 123.980  0.00  0.00    +0.195 C 
ENDBRANCH   4  22
BRANCH   3  24
ATOM     24  O   LIG A   1      -8.788   4.270 124.846  0.00  0.00    -0.388 OA
ATOM     25  H   LIG A   1      -9.582   4.313 125.408  0.00  0.00    +0.210 HD
ENDBRANCH   3  24
BRANCH   2  26
ATOM     26  C   LIG A   1      -6.825   4.013 127.305  0.00  0.00    +0.040 C 
BRANCH  26  27
ATOM     27  C   LIG A   1      -7.916   3.426 128.161  0.00  0.00    -0.034 C 
ATOM     28  C   LIG A   1      -7.725   2.499 129.107  0.00  0.00    +0.004 C 
ENDBRANCH  26  27
ENDBRANCH   2  26
TORSDOF 6
ENDMDL
MODEL 5
REMARK VINA RESULT:      -6.9      3.582      5.690
REMARK  Name = NuBBE_2325
REMARK  8 active torsions:
REMARK  status: ('A' for Active; 'I' for Inactive)
REMARK    1  A    between atoms: C_1  and  C_28
REMARK    2  A    between atoms: C_3  and  C_25
REMARK    3  A    between atoms: C_4  and  O_24
REMARK    4  A    between atoms: C_5  and  O_22
REMARK    5  A    between atoms: C_6  and  C_8
REMARK    6  A    between atoms: C_19  and  O_21
REMARK    7  A    between atoms: O_22  and  C_23
REMARK    8  A    between atoms: C_25  and  C_26
REMARK                            x       y       z     vdW  Elec       q    Type
REMARK                         _______ _______ _______ _____ _____    ______ ____
ROOT
ATOM      1  C   LIG A   1      -7.392   0.924 126.728  0.00  0.00    +0.009 C 
ATOM      2  C   LIG A   1      -7.810  -0.038 125.576  0.00  0.00    +0.028 C 
ATOM      3  C   LIG A   1      -6.876   0.486 124.445  0.00  0.00    +0.165 C 
ATOM      4  C   LIG A   1      -7.164   2.005 124.484  0.00  0.00    +0.168 C 
ATOM      5  C   LIG A   1      -7.104   2.308 126.032  0.00  0.00    +0.065 C 
ATOM      6  C   LIG A   1      -8.633   2.233 124.027  0.00  0.00    +0.231 C 
ATOM      7  O   LIG A   1      -9.034   3.209 123.382  0.00  0.00    -0.286 OA
ATOM      8  C   LIG A   1      -9.655   1.225 124.450  0.00  0.00    +0.159 C 
ATOM      9  C   LIG A   1      -9.267   0.193 125.208  0.00  0.00    +0.032 C 
ATOM     10  C   LIG A   1      -8.333   1.040 127.926  0.00  0.00    +0.009 C 
ENDROOT
BRANCH   5  11
ATOM     11  C   LIG A   1      -5.820   2.976 126.535  0.00  0.00    -0.037 A 
ATOM     12  C   LIG A   1      -4.612   2.231 126.540  0.00  0.00    +0.008 A 
ATOM     13  C   LIG A   1      -3.394   2.809 126.931  0.00  0.00    +0.050 A 
ATOM     14  C   LIG A   1      -3.400   4.135 127.301  0.00  0.00    +0.166 A 
ATOM     15  C   LIG A   1      -4.563   4.860 127.329  0.00  0.00    +0.167 A 
ATOM     16  C   LIG A   1      -5.779   4.308 126.986  0.00  0.00    +0.053 A 
ATOM     17  O   LIG A   1      -4.371   6.151 127.713  0.00  0.00    -0.453 OA
ATOM     18  C   LIG A   1      -2.942   6.162 127.896  0.00  0.00    +0.466 C 
ATOM     19  O   LIG A   1      -2.324   4.875 127.676  0.00  0.00    -0.453 OA
ENDBRANCH   5  11
BRANCH   8  20
ATOM     20  O   LIG A   1     -10.968   1.409 124.085  0.00  0.00    -0.503 OA
ATOM     21  H   LIG A   1     -10.939   2.098 123.386  0.00  0.00    +0.292 HD
ENDBRANCH   8  20
BRANCH   4  22
ATOM     22  O   LIG A   1      -6.232   2.817 123.775  0.00  0.00    -0.365 OA
ATOM     23  C   LIG A   1      -6.399   2.849 122.363  0.00  0.00    +0.195 C 
ENDBRANCH   4  22
BRANCH   3  24
ATOM     24  O   LIG A   1      -7.130  -0.087 123.167  0.00  0.00    -0.388 OA
ATOM     25  H   LIG A   1      -7.757  -0.822 123.291  0.00  0.00    +0.210 HD
ENDBRANCH   3  24
BRANCH   2  26
ATOM     26  C   LIG A   1      -7.539  -1.519 125.951  0.00  0.00    +0.040 C 
BRANCH  26  27
ATOM     27  C   LIG A   1      -8.579  -2.504 125.489  0.00  0.00    -0.034 C 
ATOM     28  C   LIG A   1      -8.382  -3.432 124.544  0.00  0.00    +0.004 C 
ENDBRANCH  26  27
ENDBRANCH   2  26
TORSDOF 6
ENDMDL
MODEL 6
REMARK VINA RESULT:      -6.8      2.508      7.244
REMARK  Name = NuBBE_2325
REMARK  8 active torsions:
REMARK  status: ('A' for Active; 'I' for Inactive)
REMARK    1  A    between atoms: C_1  and  C_28
REMARK    2  A    between atoms: C_3  and  C_25
REMARK    3  A    between atoms: C_4  and  O_24
REMARK    4  A    between atoms: C_5  and  O_22
REMARK    5  A    between atoms: C_6  and  C_8
REMARK    6  A    between atoms: C_19  and  O_21
REMARK    7  A    between atoms: O_22  and  C_23
REMARK    8  A    between atoms: C_25  and  C_26
REMARK                            x       y       z     vdW  Elec       q    Type
REMARK                         _______ _______ _______ _____ _____    ______ ____
ROOT
ATOM      1  C   LIG A   1      -6.348  -3.813 130.847  0.00  0.00    +0.009 C 
ATOM      2  C   LIG A   1      -6.244  -2.998 132.170  0.00  0.00    +0.028 C 
ATOM      3  C   LIG A   1      -6.848  -1.643 131.692  0.00  0.00    +0.165 C 
ATOM      4  C   LIG A   1      -6.023  -1.371 130.413  0.00  0.00    +0.168 C 
ATOM      5  C   LIG A   1      -6.062  -2.776 129.695  0.00  0.00    +0.065 C 
ATOM      6  C   LIG A   1      -4.549  -1.109 130.833  0.00  0.00    +0.231 C 
ATOM      7  O   LIG A   1      -3.778  -0.324 130.267  0.00  0.00    -0.286 OA
ATOM      8  C   LIG A   1      -3.998  -1.910 131.969  0.00  0.00    +0.159 C 
ATOM      9  C   LIG A   1      -4.785  -2.818 132.558  0.00  0.00    +0.032 C 
ATOM     10  C   LIG A   1      -5.505  -5.082 130.734  0.00  0.00    +0.009 C 
ENDROOT
BRANCH   5  11
ATOM     11  C   LIG A   1      -7.038  -2.902 128.521  0.00  0.00    -0.037 A 
ATOM     12  C   LIG A   1      -8.257  -3.601 128.710  0.00  0.00    +0.008 A 
ATOM     13  C   LIG A   1      -9.217  -3.695 127.689  0.00  0.00    +0.050 A 
ATOM     14  C   LIG A   1      -8.945  -3.075 126.491  0.00  0.00    +0.166 A 
ATOM     15  C   LIG A   1      -7.759  -2.419 126.282  0.00  0.00    +0.167 A 
ATOM     16  C   LIG A   1      -6.784  -2.343 127.255  0.00  0.00    +0.053 A 
ATOM     17  O   LIG A   1      -7.673  -1.864 125.044  0.00  0.00    -0.453 OA
ATOM     18  C   LIG A   1      -8.961  -2.222 124.505  0.00  0.00    +0.466 C 
ATOM     19  O   LIG A   1      -9.757  -3.025 125.403  0.00  0.00    -0.453 OA
ENDBRANCH   5  11
BRANCH   8  20
ATOM     20  O   LIG A   1      -2.690  -1.722 132.350  0.00  0.00    -0.503 OA
ATOM     21  H   LIG A   1      -2.601  -0.751 132.469  0.00  0.00    +0.292 HD
ENDBRANCH   8  20
BRANCH   4  22
ATOM     22  O   LIG A   1      -6.545  -0.355 129.561  0.00  0.00    -0.365 OA
ATOM     23  C   LIG A   1      -7.836   0.132 129.909  0.00  0.00    +0.195 C 
ENDBRANCH   4  22
BRANCH   3  24
ATOM     24  O   LIG A   1      -6.745  -0.592 132.645  0.00  0.00    -0.388 OA
ATOM     25  H   LIG A   1      -6.724  -0.994 133.532  0.00  0.00    +0.210 HD
ENDBRANCH   3  24
BRANCH   2  26
ATOM     26  C   LIG A   1      -7.064  -3.662 133.308  0.00  0.00    +0.040 C 
BRANCH  26  27
ATOM     27  C   LIG A   1      -6.255  -4.378 134.357  0.00  0.00    -0.034 C 
ATOM     28  C   LIG A   1      -6.365  -5.680 134.645  0.00  0.00    +0.004 C 
ENDBRANCH  26  27
ENDBRANCH   2  26
TORSDOF 6
ENDMDL
MODEL 7
REMARK VINA RESULT:      -6.8      6.965     10.557
REMARK  Name = NuBBE_2325
REMARK  8 active torsions:
REMARK  status: ('A' for Active; 'I' for Inactive)
REMARK    1  A    between atoms: C_1  and  C_28
REMARK    2  A    between atoms: C_3  and  C_25
REMARK    3  A    between atoms: C_4  and  O_24
REMARK    4  A    between atoms: C_5  and  O_22
REMARK    5  A    between atoms: C_6  and  C_8
REMARK    6  A    between atoms: C_19  and  O_21
REMARK    7  A    between atoms: O_22  and  C_23
REMARK    8  A    between atoms: C_25  and  C_26
REMARK                            x       y       z     vdW  Elec       q    Type
REMARK                         _______ _______ _______ _____ _____    ______ ____
ROOT
ATOM      1  C   LIG A   1      -8.192   5.646 132.179  0.00  0.00    +0.009 C 
ATOM      2  C   LIG A   1      -6.891   4.806 132.012  0.00  0.00    +0.028 C 
ATOM      3  C   LIG A   1      -7.031   4.399 130.515  0.00  0.00    +0.165 C 
ATOM      4  C   LIG A   1      -8.469   3.830 130.482  0.00  0.00    +0.168 C 
ATOM      5  C   LIG A   1      -9.272   4.925 131.285  0.00  0.00    +0.065 C 
ATOM      6  C   LIG A   1      -8.493   2.525 131.329  0.00  0.00    +0.231 C 
ATOM      7  O   LIG A   1      -9.188   1.532 131.085  0.00  0.00    -0.286 OA
ATOM      8  C   LIG A   1      -7.660   2.489 132.571  0.00  0.00    +0.159 C 
ATOM      9  C   LIG A   1      -6.949   3.574 132.901  0.00  0.00    +0.032 C 
ATOM     10  C   LIG A   1      -8.677   5.919 133.601  0.00  0.00    +0.009 C 
ENDROOT
BRANCH   5  11
ATOM     11  C   LIG A   1     -10.101   5.900 130.444  0.00  0.00    -0.037 A 
ATOM     12  C   LIG A   1      -9.498   7.099 129.984  0.00  0.00    +0.008 A 
ATOM     13  C   LIG A   1     -10.189   8.000 129.158  0.00  0.00    +0.050 A 
ATOM     14  C   LIG A   1     -11.476   7.679 128.792  0.00  0.00    +0.166 A 
ATOM     15  C   LIG A   1     -12.083   6.539 129.250  0.00  0.00    +0.167 A 
ATOM     16  C   LIG A   1     -11.441   5.655 130.092  0.00  0.00    +0.053 A 
ATOM     17  O   LIG A   1     -13.349   6.388 128.777  0.00  0.00    -0.453 OA
ATOM     18  C   LIG A   1     -13.460   7.556 127.941  0.00  0.00    +0.466 C 
ATOM     19  O   LIG A   1     -12.289   8.402 127.977  0.00  0.00    -0.453 OA
ENDBRANCH   5  11
BRANCH   8  20
ATOM     20  O   LIG A   1      -7.678   1.361 133.358  0.00  0.00    -0.503 OA
ATOM     21  H   LIG A   1      -6.985   1.519 134.037  0.00  0.00    +0.292 HD
ENDBRANCH   8  20
BRANCH   4  22
ATOM     22  O   LIG A   1      -9.020   3.653 129.180  0.00  0.00    -0.365 OA
ATOM     23  C   LIG A   1      -8.195   2.955 128.255  0.00  0.00    +0.195 C 
ENDBRANCH   4  22
BRANCH   3  24
ATOM     24  O   LIG A   1      -6.058   3.459 130.073  0.00  0.00    -0.388 OA
ATOM     25  H   LIG A   1      -5.503   3.897 129.404  0.00  0.00    +0.210 HD
ENDBRANCH   3  24
BRANCH   2  26
ATOM     26  C   LIG A   1      -5.628   5.660 132.295  0.00  0.00    +0.040 C 
BRANCH  26  27
ATOM     27  C   LIG A   1      -5.413   6.826 131.366  0.00  0.00    -0.034 C 
ATOM     28  C   LIG A   1      -4.219   7.354 131.070  0.00  0.00    +0.004 C 
ENDBRANCH  26  27
ENDBRANCH   2  26
TORSDOF 6
ENDMDL
MODEL 8
REMARK VINA RESULT:      -6.7      7.221      9.835
REMARK  Name = NuBBE_2325
REMARK  8 active torsions:
REMARK  status: ('A' for Active; 'I' for Inactive)
REMARK    1  A    between atoms: C_1  and  C_28
REMARK    2  A    between atoms: C_3  and  C_25
REMARK    3  A    between atoms: C_4  and  O_24
REMARK    4  A    between atoms: C_5  and  O_22
REMARK    5  A    between atoms: C_6  and  C_8
REMARK    6  A    between atoms: C_19  and  O_21
REMARK    7  A    between atoms: O_22  and  C_23
REMARK    8  A    between atoms: C_25  and  C_26
REMARK                            x       y       z     vdW  Elec       q    Type
REMARK                         _______ _______ _______ _____ _____    ______ ____
ROOT
ATOM      1  C   LIG A   1      -8.343   4.295 130.333  0.00  0.00    +0.009 C 
ATOM      2  C   LIG A   1      -9.619   4.117 131.209  0.00  0.00    +0.028 C 
ATOM      3  C   LIG A   1      -9.042   4.524 132.598  0.00  0.00    +0.165 C 
ATOM      4  C   LIG A   1      -7.776   3.640 132.679  0.00  0.00    +0.168 C 
ATOM      5  C   LIG A   1      -7.142   3.847 131.249  0.00  0.00    +0.065 C 
ATOM      6  C   LIG A   1      -8.227   2.154 132.772  0.00  0.00    +0.231 C 
ATOM      7  O   LIG A   1      -7.642   1.272 133.412  0.00  0.00    -0.286 OA
ATOM      8  C   LIG A   1      -9.427   1.742 131.979  0.00  0.00    +0.159 C 
ATOM      9  C   LIG A   1     -10.043   2.657 131.221  0.00  0.00    +0.032 C 
ATOM     10  C   LIG A   1      -8.333   3.626 128.960  0.00  0.00    +0.009 C 
ENDROOT
BRANCH   5  11
ATOM     11  C   LIG A   1      -5.946   4.801 131.178  0.00  0.00    -0.037 A 
ATOM     12  C   LIG A   1      -6.183   6.193 131.039  0.00  0.00    +0.008 A 
ATOM     13  C   LIG A   1      -5.128   7.121 131.031  0.00  0.00    +0.050 A 
ATOM     14  C   LIG A   1      -3.847   6.640 131.175  0.00  0.00    +0.166 A 
ATOM     15  C   LIG A   1      -3.599   5.296 131.282  0.00  0.00    +0.167 A 
ATOM     16  C   LIG A   1      -4.612   4.361 131.256  0.00  0.00    +0.053 A 
ATOM     17  O   LIG A   1      -2.277   5.012 131.424  0.00  0.00    -0.453 OA
ATOM     18  C   LIG A   1      -1.720   6.342 131.423  0.00  0.00    +0.466 C 
ATOM     19  O   LIG A   1      -2.707   7.378 131.225  0.00  0.00    -0.453 OA
ENDBRANCH   5  11
BRANCH   8  20
ATOM     20  O   LIG A   1      -9.838   0.430 132.018  0.00  0.00    -0.503 OA
ATOM     21  H   LIG A   1      -9.021  -0.093 131.864  0.00  0.00    +0.292 HD
ENDBRANCH   8  20
BRANCH   4  22
ATOM     22  O   LIG A   1      -6.849   4.001 133.699  0.00  0.00    -0.365 OA
ATOM     23  C   LIG A   1      -7.181   5.167 134.442  0.00  0.00    +0.195 C 
ENDBRANCH   4  22
BRANCH   3  24
ATOM     24  O   LIG A   1      -9.934   4.306 133.686  0.00  0.00    -0.388 OA
ATOM     25  H   LIG A   1      -9.449   3.819 134.375  0.00  0.00    +0.210 HD
ENDBRANCH   3  24
BRANCH   2  26
ATOM     26  C   LIG A   1     -10.766   5.045 130.732  0.00  0.00    +0.040 C 
BRANCH  26  27
ATOM     27  C   LIG A   1     -10.511   6.521 130.884  0.00  0.00    -0.034 C 
ATOM     28  C   LIG A   1     -10.059   7.320 129.909  0.00  0.00    +0.004 C 
ENDBRANCH  26  27
ENDBRANCH   2  26
TORSDOF 6
ENDMDL
MODEL 9
REMARK VINA RESULT:      -6.6      7.934     11.026
REMARK  Name = NuBBE_2325
REMARK  8 active torsions:
REMARK  status: ('A' for Active; 'I' for Inactive)
REMARK    1  A    between atoms: C_1  and  C_28
REMARK    2  A    between atoms: C_3  and  C_25
REMARK    3  A    between atoms: C_4  and  O_24
REMARK    4  A    between atoms: C_5  and  O_22
REMARK    5  A    between atoms: C_6  and  C_8
REMARK    6  A    between atoms: C_19  and  O_21
REMARK    7  A    between atoms: O_22  and  C_23
REMARK    8  A    between atoms: C_25  and  C_26
REMARK                            x       y       z     vdW  Elec       q    Type
REMARK                         _______ _______ _______ _____ _____    ______ ____
ROOT
ATOM      1  C   LIG A   1      -4.233   7.087 130.333  0.00  0.00    +0.009 C 
ATOM      2  C   LIG A   1      -2.871   6.490 130.796  0.00  0.00    +0.028 C 
ATOM      3  C   LIG A   1      -3.377   5.191 131.492  0.00  0.00    +0.165 C 
ATOM      4  C   LIG A   1      -4.470   5.750 132.433  0.00  0.00    +0.168 C 
ATOM      5  C   LIG A   1      -5.256   6.726 131.475  0.00  0.00    +0.065 C 
ATOM      6  C   LIG A   1      -3.776   6.626 133.516  0.00  0.00    +0.231 C 
ATOM      7  O   LIG A   1      -4.149   6.732 134.690  0.00  0.00    -0.286 OA
ATOM      8  C   LIG A   1      -2.603   7.451 133.092  0.00  0.00    +0.159 C 
ATOM      9  C   LIG A   1      -2.216   7.412 131.812  0.00  0.00    +0.032 C 
ATOM     10  C   LIG A   1      -4.259   8.566 129.950  0.00  0.00    +0.009 C 
ENDROOT
BRANCH   5  11
ATOM     11  C   LIG A   1      -6.593   6.205 130.939  0.00  0.00    -0.037 A 
ATOM     12  C   LIG A   1      -6.589   5.183 129.955  0.00  0.00    +0.008 A 
ATOM     13  C   LIG A   1      -7.783   4.623 129.472  0.00  0.00    +0.050 A 
ATOM     14  C   LIG A   1      -8.969   5.089 129.992  0.00  0.00    +0.166 A 
ATOM     15  C   LIG A   1      -8.991   6.096 130.922  0.00  0.00    +0.167 A 
ATOM     16  C   LIG A   1      -7.836   6.688 131.387  0.00  0.00    +0.053 A 
ATOM     17  O   LIG A   1     -10.250   6.417 131.323  0.00  0.00    -0.453 OA
ATOM     18  C   LIG A   1     -11.021   5.471 130.555  0.00  0.00    +0.466 C 
ATOM     19  O   LIG A   1     -10.217   4.652 129.678  0.00  0.00    -0.453 OA
ENDBRANCH   5  11
BRANCH   8  20
ATOM     20  O   LIG A   1      -1.982   8.257 134.018  0.00  0.00    -0.503 OA
ATOM     21  H   LIG A   1      -1.081   7.877 134.117  0.00  0.00    +0.292 HD
ENDBRANCH   8  20
BRANCH   4  22
ATOM     22  O   LIG A   1      -5.346   4.773 132.990  0.00  0.00    -0.365 OA
ATOM     23  C   LIG A   1      -5.018   3.420 132.699  0.00  0.00    +0.195 C 
ENDBRANCH   4  22
BRANCH   3  24
ATOM     24  O   LIG A   1      -2.366   4.473 132.190  0.00  0.00    -0.388 OA
ATOM     25  H   LIG A   1      -2.806   3.815 132.758  0.00  0.00    +0.210 HD
ENDBRANCH   3  24
BRANCH   2  26
ATOM     26  C   LIG A   1      -1.938   6.209 129.589  0.00  0.00    +0.040 C 
BRANCH  26  27
ATOM     27  C   LIG A   1      -2.624   5.720 128.341  0.00  0.00    -0.034 C 
ATOM     28  C   LIG A   1      -2.571   4.462 127.886  0.00  0.00    +0.004 C 
ENDBRANCH  26  27
ENDBRANCH   2  26
TORSDOF 6
ENDMDL
