MODEL 1
REMARK VINA RESULT:      -6.4      0.000      0.000
REMARK  Name = NuBBE_2208
REMARK  10 active torsions:
REMARK  status: ('A' for Active; 'I' for Inactive)
REMARK    1  A    between atoms: C_1  and  C_3
REMARK    2  A    between atoms: C_1  and  C_8
REMARK    3  A    between atoms: C_3  and  C_4
REMARK    4  A    between atoms: C_4  and  C_5
REMARK    5  A    between atoms: C_4  and  C_6
REMARK    6  A    between atoms: C_4  and  O_7
REMARK    7  A    between atoms: C_10  and  C_11
REMARK    8  A    between atoms: C_11  and  C_12
REMARK    9  A    between atoms: C_11  and  O_13
REMARK   10  A    between atoms: C_16  and  O_17
REMARK                            x       y       z     vdW  Elec       q    Type
REMARK                         _______ _______ _______ _____ _____    ______ ____
ROOT
ATOM      1  C   LIG A   1     -10.063   6.521 130.617  0.00  0.00    +0.059 A 
ATOM      2  C   LIG A   1      -8.687   6.771 130.448  0.00  0.00    +0.021 A 
ATOM      3  C   LIG A   1      -7.767   6.543 131.484  0.00  0.00    -0.018 A 
ATOM      4  C   LIG A   1      -8.256   6.074 132.710  0.00  0.00    +0.010 A 
ATOM      5  C   LIG A   1      -9.620   5.836 132.895  0.00  0.00    +0.046 A 
ATOM      6  C   LIG A   1     -10.522   6.060 131.851  0.00  0.00    +0.127 A 
ENDROOT
BRANCH   1   7
ATOM      7  C   LIG A   1     -10.944   6.839 129.457  0.00  0.00    +0.169 C 
ATOM      8  O   LIG A   1     -11.386   5.895 128.809  0.00  0.00    -0.292 OA
BRANCH   7   9
ATOM      9  C   LIG A   1     -11.309   8.290 129.139  0.00  0.00    +0.113 C 
BRANCH   9  10
ATOM     10  C   LIG A   1     -12.813   8.594 129.342  0.00  0.00    +0.068 C 
ATOM     11  C   LIG A   1     -13.053  10.007 129.881  0.00  0.00    +0.041 C 
ATOM     12  C   LIG A   1     -13.591   8.433 128.026  0.00  0.00    +0.041 C 
BRANCH  10  13
ATOM     13  O   LIG A   1     -13.374   7.645 130.256  0.00  0.00    -0.389 OA
ATOM     14  H   LIG A   1     -12.664   6.998 130.451  0.00  0.00    +0.210 HD
ENDBRANCH  10  13
ENDBRANCH   9  10
ENDBRANCH   7   9
ENDBRANCH   1   7
BRANCH   3  15
ATOM     15  C   LIG A   1      -6.298   6.832 131.269  0.00  0.00    +0.142 C 
ATOM     16  C   LIG A   1      -5.425   6.207 132.351  0.00  0.00    +0.043 C 
BRANCH  15  17
ATOM     17  O   LIG A   1      -5.891   6.332 129.995  0.00  0.00    -0.388 OA
ATOM     18  H   LIG A   1      -5.068   6.791 129.759  0.00  0.00    +0.210 HD
ENDBRANCH  15  17
ENDBRANCH   3  15
BRANCH   6  19
ATOM     19  O   LIG A   1     -11.853   5.857 132.077  0.00  0.00    -0.506 OA
ATOM     20  H   LIG A   1     -12.000   4.927 132.320  0.00  0.00    +0.292 HD
ENDBRANCH   6  19
TORSDOF 7
ENDMDL
MODEL 2
REMARK VINA RESULT:      -6.4      2.195      5.618
REMARK  Name = NuBBE_2208
REMARK  10 active torsions:
REMARK  status: ('A' for Active; 'I' for Inactive)
REMARK    1  A    between atoms: C_1  and  C_3
REMARK    2  A    between atoms: C_1  and  C_8
REMARK    3  A    between atoms: C_3  and  C_4
REMARK    4  A    between atoms: C_4  and  C_5
REMARK    5  A    between atoms: C_4  and  C_6
REMARK    6  A    between atoms: C_4  and  O_7
REMARK    7  A    between atoms: C_10  and  C_11
REMARK    8  A    between atoms: C_11  and  C_12
REMARK    9  A    between atoms: C_11  and  O_13
REMARK   10  A    between atoms: C_16  and  O_17
REMARK                            x       y       z     vdW  Elec       q    Type
REMARK                         _______ _______ _______ _____ _____    ______ ____
ROOT
ATOM      1  C   LIG A   1     -10.083   6.726 130.753  0.00  0.00    +0.059 A 
ATOM      2  C   LIG A   1     -10.601   7.445 129.659  0.00  0.00    +0.021 A 
ATOM      3  C   LIG A   1     -11.937   7.876 129.631  0.00  0.00    -0.018 A 
ATOM      4  C   LIG A   1     -12.758   7.555 130.721  0.00  0.00    +0.010 A 
ATOM      5  C   LIG A   1     -12.259   6.830 131.806  0.00  0.00    +0.046 A 
ATOM      6  C   LIG A   1     -10.925   6.416 131.821  0.00  0.00    +0.127 A 
ENDROOT
BRANCH   1   7
ATOM      7  C   LIG A   1      -8.660   6.290 130.648  0.00  0.00    +0.169 C 
ATOM      8  O   LIG A   1      -7.832   6.905 131.312  0.00  0.00    -0.292 OA
BRANCH   7   9
ATOM      9  C   LIG A   1      -8.283   5.088 129.780  0.00  0.00    +0.113 C 
BRANCH   9  10
ATOM     10  C   LIG A   1      -8.446   3.736 130.515  0.00  0.00    +0.068 C 
ATOM     11  C   LIG A   1      -9.826   3.113 130.288  0.00  0.00    +0.041 C 
ATOM     12  C   LIG A   1      -7.375   2.730 130.065  0.00  0.00    +0.041 C 
BRANCH  10  13
ATOM     13  O   LIG A   1      -8.248   3.928 131.921  0.00  0.00    -0.389 OA
ATOM     14  H   LIG A   1      -7.278   3.967 132.059  0.00  0.00    +0.210 HD
ENDBRANCH  10  13
ENDBRANCH   9  10
ENDBRANCH   7   9
ENDBRANCH   1   7
BRANCH   3  15
ATOM     15  C   LIG A   1     -12.463   8.638 128.435  0.00  0.00    +0.142 C 
ATOM     16  C   LIG A   1     -13.659   7.946 127.793  0.00  0.00    +0.043 C 
BRANCH  15  17
ATOM     17  O   LIG A   1     -12.844   9.955 128.833  0.00  0.00    -0.388 OA
ATOM     18  H   LIG A   1     -12.234  10.572 128.395  0.00  0.00    +0.210 HD
ENDBRANCH  15  17
ENDBRANCH   3  15
BRANCH   6  19
ATOM     19  O   LIG A   1     -10.479   5.673 132.877  0.00  0.00    -0.506 OA
ATOM     20  H   LIG A   1     -10.572   4.728 132.667  0.00  0.00    +0.292 HD
ENDBRANCH   6  19
TORSDOF 7
ENDMDL
MODEL 3
REMARK VINA RESULT:      -6.3      1.653      2.896
REMARK  Name = NuBBE_2208
REMARK  10 active torsions:
REMARK  status: ('A' for Active; 'I' for Inactive)
REMARK    1  A    between atoms: C_1  and  C_3
REMARK    2  A    between atoms: C_1  and  C_8
REMARK    3  A    between atoms: C_3  and  C_4
REMARK    4  A    between atoms: C_4  and  C_5
REMARK    5  A    between atoms: C_4  and  C_6
REMARK    6  A    between atoms: C_4  and  O_7
REMARK    7  A    between atoms: C_10  and  C_11
REMARK    8  A    between atoms: C_11  and  C_12
REMARK    9  A    between atoms: C_11  and  O_13
REMARK   10  A    between atoms: C_16  and  O_17
REMARK                            x       y       z     vdW  Elec       q    Type
REMARK                         _______ _______ _______ _____ _____    ______ ____
ROOT
ATOM      1  C   LIG A   1     -10.247   6.298 130.777  0.00  0.00    +0.059 A 
ATOM      2  C   LIG A   1     -10.121   5.360 131.820  0.00  0.00    +0.021 A 
ATOM      3  C   LIG A   1      -8.916   5.202 132.522  0.00  0.00    -0.018 A 
ATOM      4  C   LIG A   1      -7.822   5.993 132.145  0.00  0.00    +0.010 A 
ATOM      5  C   LIG A   1      -7.931   6.917 131.102  0.00  0.00    +0.046 A 
ATOM      6  C   LIG A   1      -9.140   7.068 130.419  0.00  0.00    +0.127 A 
ENDROOT
BRANCH   1   7
ATOM      7  C   LIG A   1     -11.566   6.346 130.081  0.00  0.00    +0.169 C 
ATOM      8  O   LIG A   1     -11.881   5.373 129.403  0.00  0.00    -0.292 OA
BRANCH   7   9
ATOM      9  C   LIG A   1     -12.492   7.550 130.264  0.00  0.00    +0.113 C 
BRANCH   9  10
ATOM     10  C   LIG A   1     -12.770   8.305 128.942  0.00  0.00    +0.068 C 
ATOM     11  C   LIG A   1     -13.888   7.651 128.124  0.00  0.00    +0.041 C 
ATOM     12  C   LIG A   1     -13.152   9.769 129.212  0.00  0.00    +0.041 C 
BRANCH  10  13
ATOM     13  O   LIG A   1     -11.576   8.342 128.151  0.00  0.00    -0.389 OA
ATOM     14  H   LIG A   1     -11.740   7.763 127.377  0.00  0.00    +0.210 HD
ENDBRANCH  10  13
ENDBRANCH   9  10
ENDBRANCH   7   9
ENDBRANCH   1   7
BRANCH   3  15
ATOM     15  C   LIG A   1      -8.814   4.178 133.631  0.00  0.00    +0.142 C 
ATOM     16  C   LIG A   1      -7.975   4.679 134.801  0.00  0.00    +0.043 C 
BRANCH  15  17
ATOM     17  O   LIG A   1     -10.121   3.848 134.102  0.00  0.00    -0.388 OA
ATOM     18  H   LIG A   1     -10.422   3.080 133.588  0.00  0.00    +0.210 HD
ENDBRANCH  15  17
ENDBRANCH   3  15
BRANCH   6  19
ATOM     19  O   LIG A   1      -9.202   7.949 129.377  0.00  0.00    -0.506 OA
ATOM     20  H   LIG A   1      -9.621   7.516 128.614  0.00  0.00    +0.292 HD
ENDBRANCH   6  19
TORSDOF 7
ENDMDL
MODEL 4
REMARK VINA RESULT:      -6.3      9.021     10.509
REMARK  Name = NuBBE_2208
REMARK  10 active torsions:
REMARK  status: ('A' for Active; 'I' for Inactive)
REMARK    1  A    between atoms: C_1  and  C_3
REMARK    2  A    between atoms: C_1  and  C_8
REMARK    3  A    between atoms: C_3  and  C_4
REMARK    4  A    between atoms: C_4  and  C_5
REMARK    5  A    between atoms: C_4  and  C_6
REMARK    6  A    between atoms: C_4  and  O_7
REMARK    7  A    between atoms: C_10  and  C_11
REMARK    8  A    between atoms: C_11  and  C_12
REMARK    9  A    between atoms: C_11  and  O_13
REMARK   10  A    between atoms: C_16  and  O_17
REMARK                            x       y       z     vdW  Elec       q    Type
REMARK                         _______ _______ _______ _____ _____    ______ ____
ROOT
ATOM      1  C   LIG A   1      -8.910   1.010 123.930  0.00  0.00    +0.059 A 
ATOM      2  C   LIG A   1      -7.760   1.802 124.110  0.00  0.00    +0.021 A 
ATOM      3  C   LIG A   1      -7.442   2.845 123.226  0.00  0.00    -0.018 A 
ATOM      4  C   LIG A   1      -8.294   3.071 122.136  0.00  0.00    +0.010 A 
ATOM      5  C   LIG A   1      -9.431   2.283 121.939  0.00  0.00    +0.046 A 
ATOM      6  C   LIG A   1      -9.738   1.254 122.834  0.00  0.00    +0.127 A 
ENDROOT
BRANCH   1   7
ATOM      7  C   LIG A   1      -9.120  -0.092 124.914  0.00  0.00    +0.169 C 
ATOM      8  O   LIG A   1     -10.093  -0.007 125.656  0.00  0.00    -0.292 OA
BRANCH   7   9
ATOM      9  C   LIG A   1      -8.172  -1.293 124.941  0.00  0.00    +0.113 C 
BRANCH   9  10
ATOM     10  C   LIG A   1      -8.873  -2.624 124.581  0.00  0.00    +0.068 C 
ATOM     11  C   LIG A   1      -9.320  -2.669 123.118  0.00  0.00    +0.041 C 
ATOM     12  C   LIG A   1      -7.951  -3.824 124.850  0.00  0.00    +0.041 C 
BRANCH  10  13
ATOM     13  O   LIG A   1     -10.019  -2.805 125.422  0.00  0.00    -0.389 OA
ATOM     14  H   LIG A   1      -9.782  -2.426 126.296  0.00  0.00    +0.210 HD
ENDBRANCH  10  13
ENDBRANCH   9  10
ENDBRANCH   7   9
ENDBRANCH   1   7
BRANCH   3  15
ATOM     15  C   LIG A   1      -6.192   3.669 123.444  0.00  0.00    +0.142 C 
ATOM     16  C   LIG A   1      -5.523   4.057 122.132  0.00  0.00    +0.043 C 
BRANCH  15  17
ATOM     17  O   LIG A   1      -6.519   4.855 124.169  0.00  0.00    -0.388 OA
ATOM     18  H   LIG A   1      -7.124   5.372 123.611  0.00  0.00    +0.210 HD
ENDBRANCH  15  17
ENDBRANCH   3  15
BRANCH   6  19
ATOM     19  O   LIG A   1     -10.833   0.476 122.590  0.00  0.00    -0.506 OA
ATOM     20  H   LIG A   1     -11.400   0.463 123.379  0.00  0.00    +0.292 HD
ENDBRANCH   6  19
TORSDOF 7
ENDMDL
MODEL 5
REMARK VINA RESULT:      -6.2      1.727      5.663
REMARK  Name = NuBBE_2208
REMARK  10 active torsions:
REMARK  status: ('A' for Active; 'I' for Inactive)
REMARK    1  A    between atoms: C_1  and  C_3
REMARK    2  A    between atoms: C_1  and  C_8
REMARK    3  A    between atoms: C_3  and  C_4
REMARK    4  A    between atoms: C_4  and  C_5
REMARK    5  A    between atoms: C_4  and  C_6
REMARK    6  A    between atoms: C_4  and  O_7
REMARK    7  A    between atoms: C_10  and  C_11
REMARK    8  A    between atoms: C_11  and  C_12
REMARK    9  A    between atoms: C_11  and  O_13
REMARK   10  A    between atoms: C_16  and  O_17
REMARK                            x       y       z     vdW  Elec       q    Type
REMARK                         _______ _______ _______ _____ _____    ______ ____
ROOT
ATOM      1  C   LIG A   1      -9.486   6.420 131.089  0.00  0.00    +0.059 A 
ATOM      2  C   LIG A   1      -9.654   7.210 129.936  0.00  0.00    +0.021 A 
ATOM      3  C   LIG A   1     -10.904   7.748 129.591  0.00  0.00    -0.018 A 
ATOM      4  C   LIG A   1     -11.998   7.462 130.420  0.00  0.00    +0.010 A 
ATOM      5  C   LIG A   1     -11.847   6.668 131.559  0.00  0.00    +0.046 A 
ATOM      6  C   LIG A   1     -10.594   6.147 131.893  0.00  0.00    +0.127 A 
ENDROOT
BRANCH   1   7
ATOM      7  C   LIG A   1      -8.119   5.873 131.328  0.00  0.00    +0.169 C 
ATOM      8  O   LIG A   1      -7.992   4.653 131.331  0.00  0.00    -0.292 OA
BRANCH   7   9
ATOM      9  C   LIG A   1      -6.930   6.819 131.508  0.00  0.00    +0.113 C 
BRANCH   9  10
ATOM     10  C   LIG A   1      -5.661   6.344 130.760  0.00  0.00    +0.068 C 
ATOM     11  C   LIG A   1      -4.778   7.513 130.315  0.00  0.00    +0.041 C 
ATOM     12  C   LIG A   1      -4.822   5.403 131.639  0.00  0.00    +0.041 C 
BRANCH  10  13
ATOM     13  O   LIG A   1      -6.041   5.583 129.608  0.00  0.00    -0.389 OA
ATOM     14  H   LIG A   1      -5.232   5.120 129.304  0.00  0.00    +0.210 HD
ENDBRANCH  10  13
ENDBRANCH   9  10
ENDBRANCH   7   9
ENDBRANCH   1   7
BRANCH   3  15
ATOM     15  C   LIG A   1     -11.050   8.584 128.339  0.00  0.00    +0.142 C 
ATOM     16  C   LIG A   1     -10.922   7.747 127.072  0.00  0.00    +0.043 C 
BRANCH  15  17
ATOM     17  O   LIG A   1     -12.319   9.236 128.341  0.00  0.00    -0.388 OA
ATOM     18  H   LIG A   1     -12.222  10.050 127.818  0.00  0.00    +0.210 HD
ENDBRANCH  15  17
ENDBRANCH   3  15
BRANCH   6  19
ATOM     19  O   LIG A   1     -10.487   5.340 132.989  0.00  0.00    -0.506 OA
ATOM     20  H   LIG A   1      -9.896   5.757 133.639  0.00  0.00    +0.292 HD
ENDBRANCH   6  19
TORSDOF 7
ENDMDL
MODEL 6
REMARK VINA RESULT:      -6.2      1.455      1.900
REMARK  Name = NuBBE_2208
REMARK  10 active torsions:
REMARK  status: ('A' for Active; 'I' for Inactive)
REMARK    1  A    between atoms: C_1  and  C_3
REMARK    2  A    between atoms: C_1  and  C_8
REMARK    3  A    between atoms: C_3  and  C_4
REMARK    4  A    between atoms: C_4  and  C_5
REMARK    5  A    between atoms: C_4  and  C_6
REMARK    6  A    between atoms: C_4  and  O_7
REMARK    7  A    between atoms: C_10  and  C_11
REMARK    8  A    between atoms: C_11  and  C_12
REMARK    9  A    between atoms: C_11  and  O_13
REMARK   10  A    between atoms: C_16  and  O_17
REMARK                            x       y       z     vdW  Elec       q    Type
REMARK                         _______ _______ _______ _____ _____    ______ ____
ROOT
ATOM      1  C   LIG A   1     -10.304   6.019 130.799  0.00  0.00    +0.059 A 
ATOM      2  C   LIG A   1      -9.111   6.702 131.104  0.00  0.00    +0.021 A 
ATOM      3  C   LIG A   1      -7.877   6.034 131.161  0.00  0.00    -0.018 A 
ATOM      4  C   LIG A   1      -7.861   4.654 130.924  0.00  0.00    +0.010 A 
ATOM      5  C   LIG A   1      -9.040   3.962 130.634  0.00  0.00    +0.046 A 
ATOM      6  C   LIG A   1     -10.259   4.643 130.573  0.00  0.00    +0.127 A 
ENDROOT
BRANCH   1   7
ATOM      7  C   LIG A   1     -11.556   6.830 130.807  0.00  0.00    +0.169 C 
ATOM      8  O   LIG A   1     -12.405   6.547 131.647  0.00  0.00    -0.292 OA
BRANCH   7   9
ATOM      9  C   LIG A   1     -11.727   7.994 129.830  0.00  0.00    +0.113 C 
BRANCH   9  10
ATOM     10  C   LIG A   1     -12.317   7.558 128.467  0.00  0.00    +0.068 C 
ATOM     11  C   LIG A   1     -13.566   8.358 128.091  0.00  0.00    +0.041 C 
ATOM     12  C   LIG A   1     -11.279   7.710 127.343  0.00  0.00    +0.041 C 
BRANCH  10  13
ATOM     13  O   LIG A   1     -12.653   6.166 128.514  0.00  0.00    -0.389 OA
ATOM     14  H   LIG A   1     -12.252   5.814 129.337  0.00  0.00    +0.210 HD
ENDBRANCH  10  13
ENDBRANCH   9  10
ENDBRANCH   7   9
ENDBRANCH   1   7
BRANCH   3  15
ATOM     15  C   LIG A   1      -6.617   6.799 131.501  0.00  0.00    +0.142 C 
ATOM     16  C   LIG A   1      -5.482   5.876 131.929  0.00  0.00    +0.043 C 
BRANCH  15  17
ATOM     17  O   LIG A   1      -6.197   7.561 130.369  0.00  0.00    -0.388 OA
ATOM     18  H   LIG A   1      -5.290   7.282 130.160  0.00  0.00    +0.210 HD
ENDBRANCH  15  17
ENDBRANCH   3  15
BRANCH   6  19
ATOM     19  O   LIG A   1     -11.398   3.931 130.329  0.00  0.00    -0.506 OA
ATOM     20  H   LIG A   1     -11.191   3.183 129.743  0.00  0.00    +0.292 HD
ENDBRANCH   6  19
TORSDOF 7
ENDMDL
MODEL 7
REMARK VINA RESULT:      -6.0      9.625     11.149
REMARK  Name = NuBBE_2208
REMARK  10 active torsions:
REMARK  status: ('A' for Active; 'I' for Inactive)
REMARK    1  A    between atoms: C_1  and  C_3
REMARK    2  A    between atoms: C_1  and  C_8
REMARK    3  A    between atoms: C_3  and  C_4
REMARK    4  A    between atoms: C_4  and  C_5
REMARK    5  A    between atoms: C_4  and  C_6
REMARK    6  A    between atoms: C_4  and  O_7
REMARK    7  A    between atoms: C_10  and  C_11
REMARK    8  A    between atoms: C_11  and  C_12
REMARK    9  A    between atoms: C_11  and  O_13
REMARK   10  A    between atoms: C_16  and  O_17
REMARK                            x       y       z     vdW  Elec       q    Type
REMARK                         _______ _______ _______ _____ _____    ______ ____
ROOT
ATOM      1  C   LIG A   1      -7.974   0.353 123.553  0.00  0.00    +0.059 A 
ATOM      2  C   LIG A   1      -6.995   1.242 123.069  0.00  0.00    +0.021 A 
ATOM      3  C   LIG A   1      -7.068   2.622 123.320  0.00  0.00    -0.018 A 
ATOM      4  C   LIG A   1      -8.159   3.102 124.057  0.00  0.00    +0.010 A 
ATOM      5  C   LIG A   1      -9.144   2.232 124.531  0.00  0.00    +0.046 A 
ATOM      6  C   LIG A   1      -9.052   0.861 124.279  0.00  0.00    +0.127 A 
ENDROOT
BRANCH   1   7
ATOM      7  C   LIG A   1      -7.808  -1.083 123.187  0.00  0.00    +0.169 C 
ATOM      8  O   LIG A   1      -8.822  -1.772 123.134  0.00  0.00    -0.292 OA
BRANCH   7   9
ATOM      9  C   LIG A   1      -6.423  -1.638 122.847  0.00  0.00    +0.113 C 
BRANCH   9  10
ATOM     10  C   LIG A   1      -5.891  -2.627 123.911  0.00  0.00    +0.068 C 
ATOM     11  C   LIG A   1      -4.602  -3.323 123.465  0.00  0.00    +0.041 C 
ATOM     12  C   LIG A   1      -5.625  -1.911 125.246  0.00  0.00    +0.041 C 
BRANCH  10  13
ATOM     13  O   LIG A   1      -6.886  -3.621 124.183  0.00  0.00    -0.389 OA
ATOM     14  H   LIG A   1      -6.576  -4.112 124.973  0.00  0.00    +0.210 HD
ENDBRANCH  10  13
ENDBRANCH   9  10
ENDBRANCH   7   9
ENDBRANCH   1   7
BRANCH   3  15
ATOM     15  C   LIG A   1      -6.003   3.548 122.776  0.00  0.00    +0.142 C 
ATOM     16  C   LIG A   1      -6.185   3.819 121.287  0.00  0.00    +0.043 C 
BRANCH  15  17
ATOM     17  O   LIG A   1      -6.037   4.788 123.483  0.00  0.00    -0.388 OA
ATOM     18  H   LIG A   1      -5.883   4.584 124.421  0.00  0.00    +0.210 HD
ENDBRANCH  15  17
ENDBRANCH   3  15
BRANCH   6  19
ATOM     19  O   LIG A   1     -10.053   0.043 124.720  0.00  0.00    -0.506 OA
ATOM     20  H   LIG A   1      -9.700  -0.853 124.853  0.00  0.00    +0.292 HD
ENDBRANCH   6  19
TORSDOF 7
ENDMDL
MODEL 8
REMARK VINA RESULT:      -5.8     10.297     11.320
REMARK  Name = NuBBE_2208
REMARK  10 active torsions:
REMARK  status: ('A' for Active; 'I' for Inactive)
REMARK    1  A    between atoms: C_1  and  C_3
REMARK    2  A    between atoms: C_1  and  C_8
REMARK    3  A    between atoms: C_3  and  C_4
REMARK    4  A    between atoms: C_4  and  C_5
REMARK    5  A    between atoms: C_4  and  C_6
REMARK    6  A    between atoms: C_4  and  O_7
REMARK    7  A    between atoms: C_10  and  C_11
REMARK    8  A    between atoms: C_11  and  C_12
REMARK    9  A    between atoms: C_11  and  O_13
REMARK   10  A    between atoms: C_16  and  O_17
REMARK                            x       y       z     vdW  Elec       q    Type
REMARK                         _______ _______ _______ _____ _____    ______ ____
ROOT
ATOM      1  C   LIG A   1      -8.005  -2.147 126.567  0.00  0.00    +0.059 A 
ATOM      2  C   LIG A   1      -7.095  -2.123 127.641  0.00  0.00    +0.021 A 
ATOM      3  C   LIG A   1      -7.242  -2.975 128.747  0.00  0.00    -0.018 A 
ATOM      4  C   LIG A   1      -8.339  -3.847 128.767  0.00  0.00    +0.010 A 
ATOM      5  C   LIG A   1      -9.257  -3.871 127.714  0.00  0.00    +0.046 A 
ATOM      6  C   LIG A   1      -9.090  -3.022 126.616  0.00  0.00    +0.127 A 
ENDROOT
BRANCH   1   7
ATOM      7  C   LIG A   1      -7.763  -1.167 125.468  0.00  0.00    +0.169 C 
ATOM      8  O   LIG A   1      -8.611  -0.297 125.292  0.00  0.00    -0.292 OA
BRANCH   7   9
ATOM      9  C   LIG A   1      -6.478  -1.235 124.641  0.00  0.00    +0.113 C 
BRANCH   9  10
ATOM     10  C   LIG A   1      -6.499  -2.364 123.583  0.00  0.00    +0.068 C 
ATOM     11  C   LIG A   1      -5.933  -1.909 122.236  0.00  0.00    +0.041 C 
ATOM     12  C   LIG A   1      -5.698  -3.586 124.064  0.00  0.00    +0.041 C 
BRANCH  10  13
ATOM     13  O   LIG A   1      -7.844  -2.818 123.393  0.00  0.00    -0.389 OA
ATOM     14  H   LIG A   1      -8.115  -2.511 122.502  0.00  0.00    +0.210 HD
ENDBRANCH  10  13
ENDBRANCH   9  10
ENDBRANCH   7   9
ENDBRANCH   1   7
BRANCH   3  15
ATOM     15  C   LIG A   1      -6.251  -2.915 129.888  0.00  0.00    +0.142 C 
ATOM     16  C   LIG A   1      -5.943  -4.295 130.455  0.00  0.00    +0.043 C 
BRANCH  15  17
ATOM     17  O   LIG A   1      -5.037  -2.314 129.438  0.00  0.00    -0.388 OA
ATOM     18  H   LIG A   1      -4.307  -2.868 129.763  0.00  0.00    +0.210 HD
ENDBRANCH  15  17
ENDBRANCH   3  15
BRANCH   6  19
ATOM     19  O   LIG A   1     -10.027  -3.039 125.623  0.00  0.00    -0.506 OA
ATOM     20  H   LIG A   1      -9.581  -3.091 124.761  0.00  0.00    +0.292 HD
ENDBRANCH   6  19
TORSDOF 7
ENDMDL
MODEL 9
REMARK VINA RESULT:      -5.7      2.092      3.029
REMARK  Name = NuBBE_2208
REMARK  10 active torsions:
REMARK  status: ('A' for Active; 'I' for Inactive)
REMARK    1  A    between atoms: C_1  and  C_3
REMARK    2  A    between atoms: C_1  and  C_8
REMARK    3  A    between atoms: C_3  and  C_4
REMARK    4  A    between atoms: C_4  and  C_5
REMARK    5  A    between atoms: C_4  and  C_6
REMARK    6  A    between atoms: C_4  and  O_7
REMARK    7  A    between atoms: C_10  and  C_11
REMARK    8  A    between atoms: C_11  and  C_12
REMARK    9  A    between atoms: C_11  and  O_13
REMARK   10  A    between atoms: C_16  and  O_17
REMARK                            x       y       z     vdW  Elec       q    Type
REMARK                         _______ _______ _______ _____ _____    ______ ____
ROOT
ATOM      1  C   LIG A   1      -9.263   5.573 129.653  0.00  0.00    +0.059 A 
ATOM      2  C   LIG A   1      -9.434   5.673 131.047  0.00  0.00    +0.021 A 
ATOM      3  C   LIG A   1      -8.856   4.742 131.925  0.00  0.00    -0.018 A 
ATOM      4  C   LIG A   1      -8.112   3.689 131.377  0.00  0.00    +0.010 A 
ATOM      5  C   LIG A   1      -7.947   3.571 129.994  0.00  0.00    +0.046 A 
ATOM      6  C   LIG A   1      -8.522   4.511 129.134  0.00  0.00    +0.127 A 
ENDROOT
BRANCH   1   7
ATOM      7  C   LIG A   1      -9.958   6.599 128.822  0.00  0.00    +0.169 C 
ATOM      8  O   LIG A   1      -9.870   6.491 127.603  0.00  0.00    -0.292 OA
BRANCH   7   9
ATOM      9  C   LIG A   1     -10.784   7.702 129.488  0.00  0.00    +0.113 C 
BRANCH   9  10
ATOM     10  C   LIG A   1     -12.304   7.416 129.465  0.00  0.00    +0.068 C 
ATOM     11  C   LIG A   1     -12.907   7.358 130.871  0.00  0.00    +0.041 C 
ATOM     12  C   LIG A   1     -13.054   8.486 128.654  0.00  0.00    +0.041 C 
BRANCH  10  13
ATOM     13  O   LIG A   1     -12.548   6.170 128.803  0.00  0.00    -0.389 OA
ATOM     14  H   LIG A   1     -13.518   6.031 128.824  0.00  0.00    +0.210 HD
ENDBRANCH  10  13
ENDBRANCH   9  10
ENDBRANCH   7   9
ENDBRANCH   1   7
BRANCH   3  15
ATOM     15  C   LIG A   1      -9.069   4.875 133.417  0.00  0.00    +0.142 C 
ATOM     16  C   LIG A   1      -7.861   4.399 134.215  0.00  0.00    +0.043 C 
BRANCH  15  17
ATOM     17  O   LIG A   1      -9.336   6.239 133.745  0.00  0.00    -0.388 OA
ATOM     18  H   LIG A   1      -9.664   6.667 132.936  0.00  0.00    +0.210 HD
ENDBRANCH  15  17
ENDBRANCH   3  15
BRANCH   6  19
ATOM     19  O   LIG A   1      -8.378   4.344 127.787  0.00  0.00    -0.506 OA
ATOM     20  H   LIG A   1      -7.997   5.152 127.402  0.00  0.00    +0.292 HD
ENDBRANCH   6  19
TORSDOF 7
ENDMDL
