MODEL 1
REMARK VINA RESULT:      -9.1      0.000      0.000
REMARK  Name = NuBBE_1672
REMARK  6 active torsions:
REMARK  status: ('A' for Active; 'I' for Inactive)
REMARK    1  A    between atoms: O_1  and  C_2
REMARK    2  A    between atoms: O_1  and  C_3
REMARK    3  A    between atoms: C_6  and  C_20
REMARK    4  A    between atoms: C_8  and  C_11
REMARK    5  A    between atoms: C_22  and  C_24
REMARK    6  A    between atoms: C_25  and  C_26
REMARK                            x       y       z     vdW  Elec       q    Type
REMARK                         _______ _______ _______ _____ _____    ______ ____
ROOT
ATOM      1  C   LIG A   1      -5.839   0.677 125.613  0.00  0.00    +0.162 A 
ATOM      2  C   LIG A   1      -6.761   1.143 124.693  0.00  0.00    +0.166 A 
ATOM      3  C   LIG A   1      -7.335   0.300 123.746  0.00  0.00    +0.005 A 
ATOM      4  C   LIG A   1      -8.322   1.056 122.927  0.00  0.00    +0.065 C 
ATOM      5  C   LIG A   1      -7.941   2.499 123.342  0.00  0.00    +0.211 C 
ATOM      6  O   LIG A   1      -7.222   2.434 124.599  0.00  0.00    -0.480 OA
ATOM      7  C   LIG A   1      -9.755   0.703 123.313  0.00  0.00    +0.016 C 
ATOM      8  C   LIG A   1      -6.981  -1.041 123.666  0.00  0.00    +0.015 A 
ATOM      9  C   LIG A   1      -6.022  -1.537 124.556  0.00  0.00    -0.021 A 
ATOM     10  C   LIG A   1      -5.481  -0.675 125.532  0.00  0.00    +0.057 A 
ENDROOT
BRANCH   5  11
ATOM     11  C   LIG A   1      -7.086   3.286 122.353  0.00  0.00    -0.003 A 
ATOM     12  C   LIG A   1      -7.606   3.581 121.076  0.00  0.00    +0.056 A 
ATOM     13  C   LIG A   1      -6.829   4.316 120.204  0.00  0.00    +0.167 A 
ATOM     14  C   LIG A   1      -5.577   4.766 120.550  0.00  0.00    +0.166 A 
ATOM     15  C   LIG A   1      -5.034   4.511 121.786  0.00  0.00    +0.050 A 
ATOM     16  C   LIG A   1      -5.802   3.777 122.695  0.00  0.00    +0.011 A 
ATOM     17  O   LIG A   1      -4.981   5.473 119.554  0.00  0.00    -0.453 OA
ATOM     18  C   LIG A   1      -6.010   5.438 118.546  0.00  0.00    +0.466 C 
ATOM     19  O   LIG A   1      -7.180   4.689 118.943  0.00  0.00    -0.453 OA
ENDBRANCH   5  11
BRANCH   9  20
ATOM     20  C   LIG A   1      -5.631  -2.952 124.486  0.00  0.00    +0.003 C 
ATOM     21  C   LIG A   1      -4.712  -3.417 123.627  0.00  0.00    -0.030 C 
ATOM     22  C   LIG A   1      -4.285  -4.845 123.525  0.00  0.00    +0.035 C 
ENDBRANCH   9  20
BRANCH   1  23
ATOM     23  O   LIG A   1      -5.203   1.361 126.607  0.00  0.00    -0.491 OA
ATOM     24  C   LIG A   1      -4.398   2.463 126.218  0.00  0.00    +0.277 C 
ENDBRANCH   1  23
TORSDOF 3
ENDMDL
MODEL 2
REMARK VINA RESULT:      -7.9      7.393      9.227
REMARK  Name = NuBBE_1672
REMARK  6 active torsions:
REMARK  status: ('A' for Active; 'I' for Inactive)
REMARK    1  A    between atoms: O_1  and  C_2
REMARK    2  A    between atoms: O_1  and  C_3
REMARK    3  A    between atoms: C_6  and  C_20
REMARK    4  A    between atoms: C_8  and  C_11
REMARK    5  A    between atoms: C_22  and  C_24
REMARK    6  A    between atoms: C_25  and  C_26
REMARK                            x       y       z     vdW  Elec       q    Type
REMARK                         _______ _______ _______ _____ _____    ______ ____
ROOT
ATOM      1  C   LIG A   1      -6.985   3.144 130.343  0.00  0.00    +0.162 A 
ATOM      2  C   LIG A   1      -7.682   3.870 131.291  0.00  0.00    +0.166 A 
ATOM      3  C   LIG A   1      -8.581   3.258 132.161  0.00  0.00    +0.005 A 
ATOM      4  C   LIG A   1      -9.144   4.267 133.100  0.00  0.00    +0.065 C 
ATOM      5  C   LIG A   1      -8.682   5.561 132.386  0.00  0.00    +0.211 C 
ATOM      6  O   LIG A   1      -7.583   5.224 131.503  0.00  0.00    -0.480 OA
ATOM      7  C   LIG A   1      -8.541   4.130 134.495  0.00  0.00    +0.016 C 
ATOM      8  C   LIG A   1      -8.836   1.895 132.090  0.00  0.00    +0.015 A 
ATOM      9  C   LIG A   1      -8.177   1.137 131.117  0.00  0.00    -0.021 A 
ATOM     10  C   LIG A   1      -7.242   1.769 130.271  0.00  0.00    +0.057 A 
ENDROOT
BRANCH   5  11
ATOM     11  C   LIG A   1      -9.737   6.296 131.563  0.00  0.00    -0.003 A 
ATOM     12  C   LIG A   1      -9.355   6.927 130.362  0.00  0.00    +0.056 A 
ATOM     13  C   LIG A   1     -10.327   7.563 129.616  0.00  0.00    +0.167 A 
ATOM     14  C   LIG A   1     -11.643   7.592 130.013  0.00  0.00    +0.166 A 
ATOM     15  C   LIG A   1     -12.062   6.981 131.171  0.00  0.00    +0.050 A 
ATOM     16  C   LIG A   1     -11.101   6.319 131.941  0.00  0.00    +0.011 A 
ATOM     17  O   LIG A   1     -12.438   8.263 129.139  0.00  0.00    -0.453 OA
ATOM     18  C   LIG A   1     -11.477   8.638 128.133  0.00  0.00    +0.466 C 
ATOM     19  O   LIG A   1     -10.130   8.214 128.438  0.00  0.00    -0.453 OA
ENDBRANCH   5  11
BRANCH   9  20
ATOM     20  C   LIG A   1      -8.435  -0.307 131.023  0.00  0.00    +0.003 C 
ATOM     21  C   LIG A   1      -7.705  -1.135 130.262  0.00  0.00    -0.030 C 
ATOM     22  C   LIG A   1      -7.934  -2.606 130.139  0.00  0.00    +0.035 C 
ENDBRANCH   9  20
BRANCH   1  23
ATOM     23  O   LIG A   1      -6.064   3.584 129.438  0.00  0.00    -0.491 OA
ATOM     24  C   LIG A   1      -6.540   3.905 128.139  0.00  0.00    +0.277 C 
ENDBRANCH   1  23
TORSDOF 3
ENDMDL
MODEL 3
REMARK VINA RESULT:      -7.8      3.400      4.797
REMARK  Name = NuBBE_1672
REMARK  6 active torsions:
REMARK  status: ('A' for Active; 'I' for Inactive)
REMARK    1  A    between atoms: O_1  and  C_2
REMARK    2  A    between atoms: O_1  and  C_3
REMARK    3  A    between atoms: C_6  and  C_20
REMARK    4  A    between atoms: C_8  and  C_11
REMARK    5  A    between atoms: C_22  and  C_24
REMARK    6  A    between atoms: C_25  and  C_26
REMARK                            x       y       z     vdW  Elec       q    Type
REMARK                         _______ _______ _______ _____ _____    ______ ____
ROOT
ATOM      1  C   LIG A   1      -7.116  -0.966 126.882  0.00  0.00    +0.162 A 
ATOM      2  C   LIG A   1      -7.047   0.220 126.174  0.00  0.00    +0.166 A 
ATOM      3  C   LIG A   1      -6.666   0.247 124.835  0.00  0.00    +0.005 A 
ATOM      4  C   LIG A   1      -6.729   1.643 124.319  0.00  0.00    +0.065 C 
ATOM      5  C   LIG A   1      -6.864   2.402 125.662  0.00  0.00    +0.211 C 
ATOM      6  O   LIG A   1      -7.340   1.470 126.664  0.00  0.00    -0.480 OA
ATOM      7  C   LIG A   1      -7.941   1.849 123.414  0.00  0.00    +0.016 C 
ATOM      8  C   LIG A   1      -6.308  -0.915 124.165  0.00  0.00    +0.015 A 
ATOM      9  C   LIG A   1      -6.330  -2.127 124.862  0.00  0.00    -0.021 A 
ATOM     10  C   LIG A   1      -6.755  -2.138 126.207  0.00  0.00    +0.057 A 
ENDROOT
BRANCH   5  11
ATOM     11  C   LIG A   1      -5.596   3.061 126.199  0.00  0.00    -0.003 A 
ATOM     12  C   LIG A   1      -5.644   4.407 126.615  0.00  0.00    +0.056 A 
ATOM     13  C   LIG A   1      -4.495   4.979 127.122  0.00  0.00    +0.167 A 
ATOM     14  C   LIG A   1      -3.321   4.273 127.233  0.00  0.00    +0.166 A 
ATOM     15  C   LIG A   1      -3.231   2.956 126.850  0.00  0.00    +0.050 A 
ATOM     16  C   LIG A   1      -4.382   2.346 126.342  0.00  0.00    +0.011 A 
ATOM     17  O   LIG A   1      -2.312   5.014 127.760  0.00  0.00    -0.453 OA
ATOM     18  C   LIG A   1      -2.988   6.266 127.990  0.00  0.00    +0.466 C 
ATOM     19  O   LIG A   1      -4.370   6.258 127.569  0.00  0.00    -0.453 OA
ENDBRANCH   5  11
BRANCH   9  20
ATOM     20  C   LIG A   1      -5.952  -3.369 124.171  0.00  0.00    +0.003 C 
ATOM     21  C   LIG A   1      -4.681  -3.770 124.028  0.00  0.00    -0.030 C 
ATOM     22  C   LIG A   1      -4.255  -5.023 123.335  0.00  0.00    +0.035 C 
ENDBRANCH   9  20
BRANCH   1  23
ATOM     23  O   LIG A   1      -7.485  -1.165 128.181  0.00  0.00    -0.491 OA
ATOM     24  C   LIG A   1      -7.038  -2.360 128.802  0.00  0.00    +0.277 C 
ENDBRANCH   1  23
TORSDOF 3
ENDMDL
MODEL 4
REMARK VINA RESULT:      -7.8      9.147     11.227
REMARK  Name = NuBBE_1672
REMARK  6 active torsions:
REMARK  status: ('A' for Active; 'I' for Inactive)
REMARK    1  A    between atoms: O_1  and  C_2
REMARK    2  A    between atoms: O_1  and  C_3
REMARK    3  A    between atoms: C_6  and  C_20
REMARK    4  A    between atoms: C_8  and  C_11
REMARK    5  A    between atoms: C_22  and  C_24
REMARK    6  A    between atoms: C_25  and  C_26
REMARK                            x       y       z     vdW  Elec       q    Type
REMARK                         _______ _______ _______ _____ _____    ______ ____
ROOT
ATOM      1  C   LIG A   1      -8.312   3.534 133.130  0.00  0.00    +0.162 A 
ATOM      2  C   LIG A   1      -8.149   4.543 132.198  0.00  0.00    +0.166 A 
ATOM      3  C   LIG A   1      -7.718   5.814 132.568  0.00  0.00    +0.005 A 
ATOM      4  C   LIG A   1      -7.585   6.676 131.360  0.00  0.00    +0.065 C 
ATOM      5  C   LIG A   1      -8.336   5.790 130.335  0.00  0.00    +0.211 C 
ATOM      6  O   LIG A   1      -8.368   4.433 130.846  0.00  0.00    -0.480 OA
ATOM      7  C   LIG A   1      -6.122   6.884 130.982  0.00  0.00    +0.016 C 
ATOM      8  C   LIG A   1      -7.464   6.130 133.896  0.00  0.00    +0.015 A 
ATOM      9  C   LIG A   1      -7.656   5.144 134.870  0.00  0.00    -0.021 A 
ATOM     10  C   LIG A   1      -8.056   3.852 134.470  0.00  0.00    +0.057 A 
ENDROOT
BRANCH   5  11
ATOM     11  C   LIG A   1      -9.769   6.200 130.005  0.00  0.00    -0.003 A 
ATOM     12  C   LIG A   1     -10.013   7.487 129.487  0.00  0.00    +0.056 A 
ATOM     13  C   LIG A   1     -11.312   7.832 129.169  0.00  0.00    +0.167 A 
ATOM     14  C   LIG A   1     -12.358   6.957 129.341  0.00  0.00    +0.166 A 
ATOM     15  C   LIG A   1     -12.164   5.689 129.834  0.00  0.00    +0.050 A 
ATOM     16  C   LIG A   1     -10.858   5.307 130.154  0.00  0.00    +0.011 A 
ATOM     17  O   LIG A   1     -13.551   7.486 128.964  0.00  0.00    -0.453 OA
ATOM     18  C   LIG A   1     -13.136   8.791 128.514  0.00  0.00    +0.466 C 
ATOM     19  O   LIG A   1     -11.718   9.026 128.658  0.00  0.00    -0.453 OA
ENDBRANCH   5  11
BRANCH   9  20
ATOM     20  C   LIG A   1      -7.395   5.459 136.282  0.00  0.00    +0.003 C 
ATOM     21  C   LIG A   1      -7.945   6.506 136.913  0.00  0.00    -0.030 C 
ATOM     22  C   LIG A   1      -7.708   6.860 138.345  0.00  0.00    +0.035 C 
ENDBRANCH   9  20
BRANCH   1  23
ATOM     23  O   LIG A   1      -8.704   2.243 132.931  0.00  0.00    -0.491 OA
ATOM     24  C   LIG A   1      -7.691   1.305 132.603  0.00  0.00    +0.277 C 
ENDBRANCH   1  23
TORSDOF 3
ENDMDL
MODEL 5
REMARK VINA RESULT:      -7.6      6.408      9.054
REMARK  Name = NuBBE_1672
REMARK  6 active torsions:
REMARK  status: ('A' for Active; 'I' for Inactive)
REMARK    1  A    between atoms: O_1  and  C_2
REMARK    2  A    between atoms: O_1  and  C_3
REMARK    3  A    between atoms: C_6  and  C_20
REMARK    4  A    between atoms: C_8  and  C_11
REMARK    5  A    between atoms: C_22  and  C_24
REMARK    6  A    between atoms: C_25  and  C_26
REMARK                            x       y       z     vdW  Elec       q    Type
REMARK                         _______ _______ _______ _____ _____    ______ ____
ROOT
ATOM      1  C   LIG A   1      -4.353  -3.235 131.145  0.00  0.00    +0.162 A 
ATOM      2  C   LIG A   1      -5.509  -2.546 130.825  0.00  0.00    +0.166 A 
ATOM      3  C   LIG A   1      -6.685  -2.725 131.547  0.00  0.00    +0.005 A 
ATOM      4  C   LIG A   1      -7.747  -1.824 131.017  0.00  0.00    +0.065 C 
ATOM      5  C   LIG A   1      -7.072  -1.393 129.691  0.00  0.00    +0.211 C 
ATOM      6  O   LIG A   1      -5.646  -1.630 129.811  0.00  0.00    -0.480 OA
ATOM      7  C   LIG A   1      -7.994  -0.643 131.950  0.00  0.00    +0.016 C 
ATOM      8  C   LIG A   1      -6.755  -3.627 132.601  0.00  0.00    +0.015 A 
ATOM      9  C   LIG A   1      -5.615  -4.368 132.926  0.00  0.00    -0.021 A 
ATOM     10  C   LIG A   1      -4.422  -4.145 132.207  0.00  0.00    +0.057 A 
ENDROOT
BRANCH   5  11
ATOM     11  C   LIG A   1      -7.558  -2.089 128.424  0.00  0.00    -0.003 A 
ATOM     12  C   LIG A   1      -7.044  -1.685 127.176  0.00  0.00    +0.056 A 
ATOM     13  C   LIG A   1      -7.475  -2.344 126.042  0.00  0.00    +0.167 A 
ATOM     14  C   LIG A   1      -8.381  -3.375 126.103  0.00  0.00    +0.166 A 
ATOM     15  C   LIG A   1      -8.901  -3.810 127.299  0.00  0.00    +0.050 A 
ATOM     16  C   LIG A   1      -8.474  -3.169 128.465  0.00  0.00    +0.011 A 
ATOM     17  O   LIG A   1      -8.670  -3.891 124.880  0.00  0.00    -0.453 OA
ATOM     18  C   LIG A   1      -7.826  -3.081 124.039  0.00  0.00    +0.466 C 
ATOM     19  O   LIG A   1      -7.078  -2.082 124.767  0.00  0.00    -0.453 OA
ENDBRANCH   5  11
BRANCH   9  20
ATOM     20  C   LIG A   1      -5.667  -5.331 134.036  0.00  0.00    +0.003 C 
ATOM     21  C   LIG A   1      -6.733  -5.467 134.838  0.00  0.00    -0.030 C 
ATOM     22  C   LIG A   1      -6.827  -6.432 135.975  0.00  0.00    +0.035 C 
ENDBRANCH   9  20
BRANCH   1  23
ATOM     23  O   LIG A   1      -3.125  -3.162 130.556  0.00  0.00    -0.491 OA
ATOM     24  C   LIG A   1      -3.010  -3.679 129.239  0.00  0.00    +0.277 C 
ENDBRANCH   1  23
TORSDOF 3
ENDMDL
MODEL 6
REMARK VINA RESULT:      -7.5      3.726      7.205
REMARK  Name = NuBBE_1672
REMARK  6 active torsions:
REMARK  status: ('A' for Active; 'I' for Inactive)
REMARK    1  A    between atoms: O_1  and  C_2
REMARK    2  A    between atoms: O_1  and  C_3
REMARK    3  A    between atoms: C_6  and  C_20
REMARK    4  A    between atoms: C_8  and  C_11
REMARK    5  A    between atoms: C_22  and  C_24
REMARK    6  A    between atoms: C_25  and  C_26
REMARK                            x       y       z     vdW  Elec       q    Type
REMARK                         _______ _______ _______ _____ _____    ______ ____
ROOT
ATOM      1  C   LIG A   1      -8.400  -0.169 124.418  0.00  0.00    +0.162 A 
ATOM      2  C   LIG A   1      -7.651   0.576 125.310  0.00  0.00    +0.166 A 
ATOM      3  C   LIG A   1      -6.322   0.265 125.582  0.00  0.00    +0.005 A 
ATOM      4  C   LIG A   1      -5.754   1.260 126.535  0.00  0.00    +0.065 C 
ATOM      5  C   LIG A   1      -7.065   1.941 126.999  0.00  0.00    +0.211 C 
ATOM      6  O   LIG A   1      -8.089   1.676 126.007  0.00  0.00    -0.480 OA
ATOM      7  C   LIG A   1      -4.814   2.234 125.831  0.00  0.00    +0.016 C 
ATOM      8  C   LIG A   1      -5.702  -0.828 124.991  0.00  0.00    +0.015 A 
ATOM      9  C   LIG A   1      -6.442  -1.626 124.113  0.00  0.00    -0.021 A 
ATOM     10  C   LIG A   1      -7.775  -1.272 123.821  0.00  0.00    +0.057 A 
ENDROOT
BRANCH   5  11
ATOM     11  C   LIG A   1      -7.608   1.512 128.359  0.00  0.00    -0.003 A 
ATOM     12  C   LIG A   1      -8.402   2.412 129.097  0.00  0.00    +0.056 A 
ATOM     13  C   LIG A   1      -8.907   1.998 130.314  0.00  0.00    +0.167 A 
ATOM     14  C   LIG A   1      -8.658   0.742 130.813  0.00  0.00    +0.166 A 
ATOM     15  C   LIG A   1      -7.897  -0.171 130.123  0.00  0.00    +0.050 A 
ATOM     16  C   LIG A   1      -7.382   0.216 128.883  0.00  0.00    +0.011 A 
ATOM     17  O   LIG A   1      -9.248   0.532 132.019  0.00  0.00    -0.453 OA
ATOM     18  C   LIG A   1      -9.917   1.793 132.215  0.00  0.00    +0.466 C 
ATOM     19  O   LIG A   1      -9.690   2.737 131.146  0.00  0.00    -0.453 OA
ENDBRANCH   5  11
BRANCH   9  20
ATOM     20  C   LIG A   1      -5.805  -2.789 123.478  0.00  0.00    +0.003 C 
ATOM     21  C   LIG A   1      -4.899  -3.558 124.098  0.00  0.00    -0.030 C 
ATOM     22  C   LIG A   1      -4.230  -4.748 123.491  0.00  0.00    +0.035 C 
ENDBRANCH   9  20
BRANCH   1  23
ATOM     23  O   LIG A   1      -9.695   0.012 124.030  0.00  0.00    -0.491 OA
ATOM     24  C   LIG A   1      -9.918   0.817 122.882  0.00  0.00    +0.277 C 
ENDBRANCH   1  23
TORSDOF 3
ENDMDL
MODEL 7
REMARK VINA RESULT:      -7.5      3.860      7.630
REMARK  Name = NuBBE_1672
REMARK  6 active torsions:
REMARK  status: ('A' for Active; 'I' for Inactive)
REMARK    1  A    between atoms: O_1  and  C_2
REMARK    2  A    between atoms: O_1  and  C_3
REMARK    3  A    between atoms: C_6  and  C_20
REMARK    4  A    between atoms: C_8  and  C_11
REMARK    5  A    between atoms: C_22  and  C_24
REMARK    6  A    between atoms: C_25  and  C_26
REMARK                            x       y       z     vdW  Elec       q    Type
REMARK                         _______ _______ _______ _____ _____    ______ ____
ROOT
ATOM      1  C   LIG A   1      -4.143   3.261 130.090  0.00  0.00    +0.162 A 
ATOM      2  C   LIG A   1      -3.804   3.071 128.762  0.00  0.00    +0.166 A 
ATOM      3  C   LIG A   1      -2.989   3.974 128.083  0.00  0.00    +0.005 A 
ATOM      4  C   LIG A   1      -2.752   3.494 126.693  0.00  0.00    +0.065 C 
ATOM      5  C   LIG A   1      -3.834   2.388 126.620  0.00  0.00    +0.211 C 
ATOM      6  O   LIG A   1      -4.194   2.016 127.974  0.00  0.00    -0.480 OA
ATOM      7  C   LIG A   1      -1.342   2.934 126.529  0.00  0.00    +0.016 C 
ATOM      8  C   LIG A   1      -2.509   5.119 128.704  0.00  0.00    +0.015 A 
ATOM      9  C   LIG A   1      -2.864   5.362 130.035  0.00  0.00    -0.021 A 
ATOM     10  C   LIG A   1      -3.658   4.416 130.716  0.00  0.00    +0.057 A 
ENDROOT
BRANCH   5  11
ATOM     11  C   LIG A   1      -5.117   2.743 125.874  0.00  0.00    -0.003 A 
ATOM     12  C   LIG A   1      -6.104   1.753 125.693  0.00  0.00    +0.056 A 
ATOM     13  C   LIG A   1      -7.270   2.099 125.039  0.00  0.00    +0.167 A 
ATOM     14  C   LIG A   1      -7.488   3.372 124.570  0.00  0.00    +0.166 A 
ATOM     15  C   LIG A   1      -6.559   4.371 124.733  0.00  0.00    +0.050 A 
ATOM     16  C   LIG A   1      -5.373   4.054 125.402  0.00  0.00    +0.011 A 
ATOM     17  O   LIG A   1      -8.696   3.506 123.963  0.00  0.00    -0.453 OA
ATOM     18  C   LIG A   1      -9.226   2.175 124.120  0.00  0.00    +0.466 C 
ATOM     19  O   LIG A   1      -8.318   1.270 124.786  0.00  0.00    -0.453 OA
ENDBRANCH   5  11
BRANCH   9  20
ATOM     20  C   LIG A   1      -2.369   6.570 130.709  0.00  0.00    +0.003 C 
ATOM     21  C   LIG A   1      -3.105   7.280 131.576  0.00  0.00    -0.030 C 
ATOM     22  C   LIG A   1      -2.640   8.511 132.283  0.00  0.00    +0.035 C 
ENDBRANCH   9  20
BRANCH   1  23
ATOM     23  O   LIG A   1      -4.907   2.471 130.897  0.00  0.00    -0.491 OA
ATOM     24  C   LIG A   1      -6.218   2.928 131.192  0.00  0.00    +0.277 C 
ENDBRANCH   1  23
TORSDOF 3
ENDMDL
MODEL 8
REMARK VINA RESULT:      -7.4      7.549      9.680
REMARK  Name = NuBBE_1672
REMARK  6 active torsions:
REMARK  status: ('A' for Active; 'I' for Inactive)
REMARK    1  A    between atoms: O_1  and  C_2
REMARK    2  A    between atoms: O_1  and  C_3
REMARK    3  A    between atoms: C_6  and  C_20
REMARK    4  A    between atoms: C_8  and  C_11
REMARK    5  A    between atoms: C_22  and  C_24
REMARK    6  A    between atoms: C_25  and  C_26
REMARK                            x       y       z     vdW  Elec       q    Type
REMARK                         _______ _______ _______ _____ _____    ______ ____
ROOT
ATOM      1  C   LIG A   1      -4.636   6.236 131.133  0.00  0.00    +0.162 A 
ATOM      2  C   LIG A   1      -5.756   5.646 131.690  0.00  0.00    +0.166 A 
ATOM      3  C   LIG A   1      -6.120   4.339 131.379  0.00  0.00    +0.005 A 
ATOM      4  C   LIG A   1      -7.330   3.951 132.158  0.00  0.00    +0.065 C 
ATOM      5  C   LIG A   1      -7.760   5.350 132.666  0.00  0.00    +0.211 C 
ATOM      6  O   LIG A   1      -6.613   6.233 132.589  0.00  0.00    -0.480 OA
ATOM      7  C   LIG A   1      -6.978   3.004 133.301  0.00  0.00    +0.016 C 
ATOM      8  C   LIG A   1      -5.390   3.584 130.471  0.00  0.00    +0.015 A 
ATOM      9  C   LIG A   1      -4.274   4.163 129.859  0.00  0.00    -0.021 A 
ATOM     10  C   LIG A   1      -3.899   5.475 130.217  0.00  0.00    +0.057 A 
ENDROOT
BRANCH   5  11
ATOM     11  C   LIG A   1      -8.916   6.015 131.925  0.00  0.00    -0.003 A 
ATOM     12  C   LIG A   1      -8.657   6.697 130.719  0.00  0.00    +0.056 A 
ATOM     13  C   LIG A   1      -9.719   7.271 130.048  0.00  0.00    +0.167 A 
ATOM     14  C   LIG A   1     -11.006   7.189 130.522  0.00  0.00    +0.166 A 
ATOM     15  C   LIG A   1     -11.306   6.526 131.687  0.00  0.00    +0.050 A 
ATOM     16  C   LIG A   1     -10.253   5.925 132.383  0.00  0.00    +0.011 A 
ATOM     17  O   LIG A   1     -11.902   7.813 129.713  0.00  0.00    -0.453 OA
ATOM     18  C   LIG A   1     -11.035   8.282 128.661  0.00  0.00    +0.466 C 
ATOM     19  O   LIG A   1      -9.644   7.958 128.876  0.00  0.00    -0.453 OA
ENDBRANCH   5  11
BRANCH   9  20
ATOM     20  C   LIG A   1      -3.489   3.382 128.893  0.00  0.00    +0.003 C 
ATOM     21  C   LIG A   1      -2.782   3.941 127.900  0.00  0.00    -0.030 C 
ATOM     22  C   LIG A   1      -1.971   3.185 126.899  0.00  0.00    +0.035 C 
ENDBRANCH   9  20
BRANCH   1  23
ATOM     23  O   LIG A   1      -4.136   7.487 131.344  0.00  0.00    -0.491 OA
ATOM     24  C   LIG A   1      -2.739   7.592 131.575  0.00  0.00    +0.277 C 
ENDBRANCH   1  23
TORSDOF 3
ENDMDL
MODEL 9
REMARK VINA RESULT:      -7.3      2.562      3.051
REMARK  Name = NuBBE_1672
REMARK  6 active torsions:
REMARK  status: ('A' for Active; 'I' for Inactive)
REMARK    1  A    between atoms: O_1  and  C_2
REMARK    2  A    between atoms: O_1  and  C_3
REMARK    3  A    between atoms: C_6  and  C_20
REMARK    4  A    between atoms: C_8  and  C_11
REMARK    5  A    between atoms: C_22  and  C_24
REMARK    6  A    between atoms: C_25  and  C_26
REMARK                            x       y       z     vdW  Elec       q    Type
REMARK                         _______ _______ _______ _____ _____    ______ ____
ROOT
ATOM      1  C   LIG A   1      -8.496   1.522 127.314  0.00  0.00    +0.162 A 
ATOM      2  C   LIG A   1      -8.510   1.355 125.941  0.00  0.00    +0.166 A 
ATOM      3  C   LIG A   1      -8.018   0.197 125.345  0.00  0.00    +0.005 A 
ATOM      4  C   LIG A   1      -8.204   0.270 123.868  0.00  0.00    +0.065 C 
ATOM      5  C   LIG A   1      -8.548   1.774 123.732  0.00  0.00    +0.211 C 
ATOM      6  O   LIG A   1      -8.995   2.256 125.024  0.00  0.00    -0.480 OA
ATOM      7  C   LIG A   1      -9.347  -0.629 123.406  0.00  0.00    +0.016 C 
ATOM      8  C   LIG A   1      -7.464  -0.825 126.104  0.00  0.00    +0.015 A 
ATOM      9  C   LIG A   1      -7.399  -0.672 127.492  0.00  0.00    -0.021 A 
ATOM     10  C   LIG A   1      -7.938   0.492 128.080  0.00  0.00    +0.057 A 
ENDROOT
BRANCH   5  11
ATOM     11  C   LIG A   1      -7.423   2.687 123.254  0.00  0.00    -0.003 A 
ATOM     12  C   LIG A   1      -7.359   3.045 121.893  0.00  0.00    +0.056 A 
ATOM     13  C   LIG A   1      -6.350   3.893 121.483  0.00  0.00    +0.167 A 
ATOM     14  C   LIG A   1      -5.420   4.393 122.363  0.00  0.00    +0.166 A 
ATOM     15  C   LIG A   1      -5.450   4.078 123.700  0.00  0.00    +0.050 A 
ATOM     16  C   LIG A   1      -6.467   3.230 124.147  0.00  0.00    +0.011 A 
ATOM     17  O   LIG A   1      -4.517   5.211 121.762  0.00  0.00    -0.453 OA
ATOM     18  C   LIG A   1      -4.996   5.188 120.403  0.00  0.00    +0.466 C 
ATOM     19  O   LIG A   1      -6.149   4.339 120.213  0.00  0.00    -0.453 OA
ENDBRANCH   5  11
BRANCH   9  20
ATOM     20  C   LIG A   1      -6.814  -1.740 128.314  0.00  0.00    +0.003 C 
ATOM     21  C   LIG A   1      -7.546  -2.696 128.904  0.00  0.00    -0.030 C 
ATOM     22  C   LIG A   1      -6.992  -3.800 129.745  0.00  0.00    +0.035 C 
ENDBRANCH   9  20
BRANCH   1  23
ATOM     23  O   LIG A   1      -8.952   2.577 128.050  0.00  0.00    -0.491 OA
ATOM     24  C   LIG A   1      -7.983   3.337 128.756  0.00  0.00    +0.277 C 
ENDBRANCH   1  23
TORSDOF 3
ENDMDL
