MODEL 1
REMARK VINA RESULT:      -7.5      0.000      0.000
REMARK  Name = NuBBE_828
REMARK  12 active torsions:
REMARK  status: ('A' for Active; 'I' for Inactive)
REMARK    1  A    between atoms: C_1  and  C_2
REMARK    2  A    between atoms: C_8  and  O_24
REMARK    3  A    between atoms: C_10  and  O_20
REMARK    4  A    between atoms: C_12  and  C_13
REMARK    5  A    between atoms: C_13  and  O_14
REMARK    6  A    between atoms: O_14  and  C_15
REMARK    7  A    between atoms: O_20  and  C_21
REMARK    8  A    between atoms: C_21  and  C_22
REMARK    9  A    between atoms: O_24  and  C_25
REMARK   10  A    between atoms: C_25  and  C_26
REMARK   11  A    between atoms: C_26  and  C_27
REMARK   12  A    between atoms: C_28  and  C_31
REMARK                            x       y       z     vdW  Elec       q    Type
REMARK                         _______ _______ _______ _____ _____    ______ ____
ROOT
ATOM      1  C   LIG A   1      -6.703   4.179 133.947  0.00  0.00    +0.038 C 
ATOM      2  C   LIG A   1      -7.922   3.903 133.090  0.00  0.00    -0.073 C 
ATOM      3  C   LIG A   1      -7.797   3.152 131.966  0.00  0.00    +0.017 C 
ATOM      4  C   LIG A   1      -8.815   2.689 130.938  0.00  0.00    +0.211 C 
ATOM      5  C   LIG A   1      -8.806   3.151 129.445  0.00  0.00    +0.115 C 
ATOM      6  C   LIG A   1      -8.181   4.501 129.012  0.00  0.00    +0.233 C 
ATOM      7  C   LIG A   1      -9.033   5.795 129.292  0.00  0.00    +0.254 C 
ATOM      8  C   LIG A   1      -9.800   5.761 130.609  0.00  0.00    +0.076 C 
ATOM      9  C   LIG A   1      -9.132   6.180 131.707  0.00  0.00    -0.012 C 
ATOM     10  C   LIG A   1      -9.434   5.981 133.164  0.00  0.00    +0.032 C 
ATOM     11  C   LIG A   1      -9.208   4.526 133.618  0.00  0.00    +0.034 C 
ATOM     12  C   LIG A   1      -8.237   1.955 128.748  0.00  0.00    +0.040 C 
ATOM     13  C   LIG A   1      -7.909   1.805 127.450  0.00  0.00    +0.020 C 
ATOM     14  O   LIG A   1      -8.657   1.245 130.884  0.00  0.00    -0.453 OA
ATOM     15  C   LIG A   1      -8.189   0.813 129.688  0.00  0.00    +0.336 C 
ATOM     16  O   LIG A   1      -7.855  -0.306 129.428  0.00  0.00    -0.245 OA
ENDROOT
BRANCH   8  17
ATOM     17  C   LIG A   1     -11.157   5.132 130.695  0.00  0.00    +0.338 C 
ATOM     18  O   LIG A   1     -11.505   4.131 130.090  0.00  0.00    -0.245 OA
BRANCH  17  19
ATOM     19  O   LIG A   1     -11.977   5.888 131.465  0.00  0.00    -0.465 OA
ATOM     20  C   LIG A   1     -12.641   6.977 130.818  0.00  0.00    +0.280 C 
ENDBRANCH  17  19
ENDBRANCH   8  17
BRANCH   7  21
ATOM     21  O   LIG A   1      -9.898   6.152 128.190  0.00  0.00    -0.453 OA
BRANCH  21  22
ATOM     22  C   LIG A   1     -10.273   7.459 128.133  0.00  0.00    +0.305 C 
ATOM     23  C   LIG A   1     -11.465   7.660 127.244  0.00  0.00    +0.136 C 
ATOM     24  O   LIG A   1      -9.733   8.366 128.753  0.00  0.00    -0.251 OA
ENDBRANCH  21  22
ENDBRANCH   7  21
BRANCH   6  25
ATOM     25  O   LIG A   1      -6.898   4.677 129.663  0.00  0.00    -0.454 OA
BRANCH  25  26
ATOM     26  C   LIG A   1      -5.763   4.739 128.910  0.00  0.00    +0.342 C 
ATOM     27  O   LIG A   1      -5.708   4.848 127.693  0.00  0.00    -0.247 OA
BRANCH  26  28
ATOM     28  C   LIG A   1      -4.564   4.781 129.801  0.00  0.00    +0.189 C 
ATOM     29  C   LIG A   1      -4.121   3.470 130.403  0.00  0.00    +0.056 C 
ATOM     30  C   LIG A   1      -3.986   6.055 130.417  0.00  0.00    +0.159 C 
ATOM     31  O   LIG A   1      -3.464   5.502 129.206  0.00  0.00    -0.353 OA
ATOM     32  C   LIG A   1      -4.505   7.439 130.255  0.00  0.00    +0.041 C 
ENDBRANCH  26  28
ENDBRANCH  25  26
ENDBRANCH   6  25
TORSDOF 7
ENDMDL
MODEL 2
REMARK VINA RESULT:      -7.3      2.073      5.862
REMARK  Name = NuBBE_828
REMARK  12 active torsions:
REMARK  status: ('A' for Active; 'I' for Inactive)
REMARK    1  A    between atoms: C_1  and  C_2
REMARK    2  A    between atoms: C_8  and  O_24
REMARK    3  A    between atoms: C_10  and  O_20
REMARK    4  A    between atoms: C_12  and  C_13
REMARK    5  A    between atoms: C_13  and  O_14
REMARK    6  A    between atoms: O_14  and  C_15
REMARK    7  A    between atoms: O_20  and  C_21
REMARK    8  A    between atoms: C_21  and  C_22
REMARK    9  A    between atoms: O_24  and  C_25
REMARK   10  A    between atoms: C_25  and  C_26
REMARK   11  A    between atoms: C_26  and  C_27
REMARK   12  A    between atoms: C_28  and  C_31
REMARK                            x       y       z     vdW  Elec       q    Type
REMARK                         _______ _______ _______ _____ _____    ______ ____
ROOT
ATOM      1  C   LIG A   1      -6.571   1.215 132.976  0.00  0.00    +0.038 C 
ATOM      2  C   LIG A   1      -6.271   2.693 133.132  0.00  0.00    -0.073 C 
ATOM      3  C   LIG A   1      -7.174   3.609 132.698  0.00  0.00    +0.017 C 
ATOM      4  C   LIG A   1      -7.174   5.128 132.738  0.00  0.00    +0.211 C 
ATOM      5  C   LIG A   1      -7.125   6.025 131.459  0.00  0.00    +0.115 C 
ATOM      6  C   LIG A   1      -6.502   5.522 130.131  0.00  0.00    +0.233 C 
ATOM      7  C   LIG A   1      -4.929   5.511 130.051  0.00  0.00    +0.254 C 
ATOM      8  C   LIG A   1      -4.243   5.111 131.351  0.00  0.00    +0.076 C 
ATOM      9  C   LIG A   1      -4.063   3.787 131.555  0.00  0.00    -0.012 C 
ATOM     10  C   LIG A   1      -3.743   3.031 132.812  0.00  0.00    +0.032 C 
ATOM     11  C   LIG A   1      -4.931   2.990 133.792  0.00  0.00    +0.034 C 
ATOM     12  C   LIG A   1      -8.545   6.483 131.340  0.00  0.00    +0.040 C 
ATOM     13  C   LIG A   1      -9.122   7.213 130.366  0.00  0.00    +0.020 C 
ATOM     14  O   LIG A   1      -8.421   5.482 133.395  0.00  0.00    -0.453 OA
ATOM     15  C   LIG A   1      -9.282   6.130 132.574  0.00  0.00    +0.336 C 
ATOM     16  O   LIG A   1     -10.414   6.417 132.829  0.00  0.00    -0.245 OA
ENDROOT
BRANCH   8  17
ATOM     17  C   LIG A   1      -3.948   6.127 132.412  0.00  0.00    +0.338 C 
ATOM     18  O   LIG A   1      -4.696   6.418 133.331  0.00  0.00    -0.245 OA
BRANCH  17  19
ATOM     19  O   LIG A   1      -2.773   6.750 132.152  0.00  0.00    -0.465 OA
ATOM     20  C   LIG A   1      -2.703   8.143 132.462  0.00  0.00    +0.280 C 
ENDBRANCH  17  19
ENDBRANCH   8  17
BRANCH   7  21
ATOM     21  O   LIG A   1      -4.382   6.742 129.526  0.00  0.00    -0.453 OA
BRANCH  21  22
ATOM     22  C   LIG A   1      -3.687   6.629 128.361  0.00  0.00    +0.305 C 
ATOM     23  C   LIG A   1      -2.205   6.615 128.594  0.00  0.00    +0.136 C 
ATOM     24  O   LIG A   1      -4.197   6.518 127.254  0.00  0.00    -0.251 OA
ENDBRANCH  21  22
ENDBRANCH   7  21
BRANCH   6  25
ATOM     25  O   LIG A   1      -6.960   4.175 129.857  0.00  0.00    -0.454 OA
BRANCH  25  26
ATOM     26  C   LIG A   1      -7.983   3.977 128.978  0.00  0.00    +0.342 C 
ATOM     27  O   LIG A   1      -8.162   4.579 127.930  0.00  0.00    -0.247 OA
BRANCH  26  28
ATOM     28  C   LIG A   1      -8.811   2.812 129.417  0.00  0.00    +0.189 C 
ATOM     29  C   LIG A   1      -9.978   3.115 130.324  0.00  0.00    +0.056 C 
ATOM     30  C   LIG A   1      -8.373   1.351 129.316  0.00  0.00    +0.159 C 
ATOM     31  O   LIG A   1      -9.190   1.962 128.313  0.00  0.00    -0.353 OA
ATOM     32  C   LIG A   1      -7.079   0.842 128.790  0.00  0.00    +0.041 C 
ENDBRANCH  26  28
ENDBRANCH  25  26
ENDBRANCH   6  25
TORSDOF 7
ENDMDL
MODEL 3
REMARK VINA RESULT:      -7.1      1.636      2.372
REMARK  Name = NuBBE_828
REMARK  12 active torsions:
REMARK  status: ('A' for Active; 'I' for Inactive)
REMARK    1  A    between atoms: C_1  and  C_2
REMARK    2  A    between atoms: C_8  and  O_24
REMARK    3  A    between atoms: C_10  and  O_20
REMARK    4  A    between atoms: C_12  and  C_13
REMARK    5  A    between atoms: C_13  and  O_14
REMARK    6  A    between atoms: O_14  and  C_15
REMARK    7  A    between atoms: O_20  and  C_21
REMARK    8  A    between atoms: C_21  and  C_22
REMARK    9  A    between atoms: O_24  and  C_25
REMARK   10  A    between atoms: C_25  and  C_26
REMARK   11  A    between atoms: C_26  and  C_27
REMARK   12  A    between atoms: C_28  and  C_31
REMARK                            x       y       z     vdW  Elec       q    Type
REMARK                         _______ _______ _______ _____ _____    ______ ____
ROOT
ATOM      1  C   LIG A   1      -4.283   4.376 132.010  0.00  0.00    +0.038 C 
ATOM      2  C   LIG A   1      -5.763   4.052 131.964  0.00  0.00    -0.073 C 
ATOM      3  C   LIG A   1      -6.235   3.205 131.015  0.00  0.00    +0.017 C 
ATOM      4  C   LIG A   1      -7.632   2.676 130.734  0.00  0.00    +0.211 C 
ATOM      5  C   LIG A   1      -8.435   3.008 129.435  0.00  0.00    +0.115 C 
ATOM      6  C   LIG A   1      -8.178   4.304 128.623  0.00  0.00    +0.233 C 
ATOM      7  C   LIG A   1      -8.786   5.634 129.208  0.00  0.00    +0.254 C 
ATOM      8  C   LIG A   1      -8.729   5.728 130.727  0.00  0.00    +0.076 C 
ATOM      9  C   LIG A   1      -7.590   6.226 131.259  0.00  0.00    -0.012 C 
ATOM     10  C   LIG A   1      -7.061   6.159 132.662  0.00  0.00    +0.032 C 
ATOM     11  C   LIG A   1      -6.585   4.744 133.045  0.00  0.00    +0.034 C 
ATOM     12  C   LIG A   1      -8.292   1.745 128.644  0.00  0.00    +0.040 C 
ATOM     13  C   LIG A   1      -8.705   1.478 127.390  0.00  0.00    +0.020 C 
ATOM     14  O   LIG A   1      -7.486   1.230 130.724  0.00  0.00    -0.453 OA
ATOM     15  C   LIG A   1      -7.716   0.688 129.503  0.00  0.00    +0.336 C 
ATOM     16  O   LIG A   1      -7.541  -0.456 129.199  0.00  0.00    -0.245 OA
ENDROOT
BRANCH   8  17
ATOM     17  C   LIG A   1      -9.811   5.136 131.578  0.00  0.00    +0.338 C 
ATOM     18  O   LIG A   1     -10.132   3.959 131.585  0.00  0.00    -0.245 OA
BRANCH  17  19
ATOM     19  O   LIG A   1     -10.452   6.111 132.267  0.00  0.00    -0.465 OA
ATOM     20  C   LIG A   1     -11.684   6.582 131.717  0.00  0.00    +0.280 C 
ENDBRANCH  17  19
ENDBRANCH   8  17
BRANCH   7  21
ATOM     21  O   LIG A   1     -10.116   5.912 128.714  0.00  0.00    -0.453 OA
BRANCH  21  22
ATOM     22  C   LIG A   1     -10.191   6.812 127.695  0.00  0.00    +0.305 C 
ATOM     23  C   LIG A   1     -10.541   8.185 128.188  0.00  0.00    +0.136 C 
ATOM     24  O   LIG A   1      -9.968   6.553 126.520  0.00  0.00    -0.251 OA
ENDBRANCH  21  22
ENDBRANCH   7  21
BRANCH   6  25
ATOM     25  O   LIG A   1      -6.751   4.509 128.470  0.00  0.00    -0.454 OA
BRANCH  25  26
ATOM     26  C   LIG A   1      -6.184   4.401 127.236  0.00  0.00    +0.342 C 
ATOM     27  O   LIG A   1      -6.637   4.846 126.191  0.00  0.00    -0.247 OA
BRANCH  26  28
ATOM     28  C   LIG A   1      -4.839   3.759 127.349  0.00  0.00    +0.189 C 
ATOM     29  C   LIG A   1      -3.695   4.652 127.760  0.00  0.00    +0.056 C 
ATOM     30  C   LIG A   1      -4.477   2.397 126.756  0.00  0.00    +0.159 C 
ATOM     31  O   LIG A   1      -4.878   2.539 128.121  0.00  0.00    -0.353 OA
ATOM     32  C   LIG A   1      -5.367   1.499 125.973  0.00  0.00    +0.041 C 
ENDBRANCH  26  28
ENDBRANCH  25  26
ENDBRANCH   6  25
TORSDOF 7
ENDMDL
MODEL 4
REMARK VINA RESULT:      -7.1      3.090      7.059
REMARK  Name = NuBBE_828
REMARK  12 active torsions:
REMARK  status: ('A' for Active; 'I' for Inactive)
REMARK    1  A    between atoms: C_1  and  C_2
REMARK    2  A    between atoms: C_8  and  O_24
REMARK    3  A    between atoms: C_10  and  O_20
REMARK    4  A    between atoms: C_12  and  C_13
REMARK    5  A    between atoms: C_13  and  O_14
REMARK    6  A    between atoms: O_14  and  C_15
REMARK    7  A    between atoms: O_20  and  C_21
REMARK    8  A    between atoms: C_21  and  C_22
REMARK    9  A    between atoms: O_24  and  C_25
REMARK   10  A    between atoms: C_25  and  C_26
REMARK   11  A    between atoms: C_26  and  C_27
REMARK   12  A    between atoms: C_28  and  C_31
REMARK                            x       y       z     vdW  Elec       q    Type
REMARK                         _______ _______ _______ _____ _____    ______ ____
ROOT
ATOM      1  C   LIG A   1      -5.473   4.441 123.743  0.00  0.00    +0.038 C 
ATOM      2  C   LIG A   1      -6.677   3.804 124.407  0.00  0.00    -0.073 C 
ATOM      3  C   LIG A   1      -6.899   4.009 125.730  0.00  0.00    +0.017 C 
ATOM      4  C   LIG A   1      -8.009   3.539 126.656  0.00  0.00    +0.211 C 
ATOM      5  C   LIG A   1      -7.777   2.562 127.854  0.00  0.00    +0.115 C 
ATOM      6  C   LIG A   1      -6.600   1.553 127.870  0.00  0.00    +0.233 C 
ATOM      7  C   LIG A   1      -6.769   0.259 126.989  0.00  0.00    +0.254 C 
ATOM      8  C   LIG A   1      -7.476   0.499 125.661  0.00  0.00    +0.076 C 
ATOM      9  C   LIG A   1      -6.700   0.886 124.625  0.00  0.00    -0.012 C 
ATOM     10  C   LIG A   1      -7.071   1.512 123.311  0.00  0.00    +0.032 C 
ATOM     11  C   LIG A   1      -7.540   2.971 123.467  0.00  0.00    +0.034 C 
ATOM     12  C   LIG A   1      -7.813   3.488 129.029  0.00  0.00    +0.040 C 
ATOM     13  C   LIG A   1      -7.580   3.220 130.328  0.00  0.00    +0.020 C 
ATOM     14  O   LIG A   1      -8.528   4.754 127.260  0.00  0.00    -0.453 OA
ATOM     15  C   LIG A   1      -8.300   4.816 128.594  0.00  0.00    +0.336 C 
ATOM     16  O   LIG A   1      -8.513   5.758 129.300  0.00  0.00    -0.245 OA
ENDROOT
BRANCH   8  17
ATOM     17  C   LIG A   1      -8.972   0.473 125.568  0.00  0.00    +0.338 C 
ATOM     18  O   LIG A   1      -9.689   1.459 125.532  0.00  0.00    -0.245 OA
BRANCH  17  19
ATOM     19  O   LIG A   1      -9.424  -0.803 125.630  0.00  0.00    -0.465 OA
ATOM     20  C   LIG A   1      -8.928  -1.709 124.641  0.00  0.00    +0.280 C 
ENDBRANCH  17  19
ENDBRANCH   8  17
BRANCH   7  21
ATOM     21  O   LIG A   1      -7.366  -0.842 127.711  0.00  0.00    -0.453 OA
BRANCH  21  22
ATOM     22  C   LIG A   1      -6.644  -1.996 127.730  0.00  0.00    +0.305 C 
ATOM     23  C   LIG A   1      -7.178  -2.972 128.738  0.00  0.00    +0.136 C 
ATOM     24  O   LIG A   1      -5.695  -2.236 126.995  0.00  0.00    -0.251 OA
ENDBRANCH  21  22
ENDBRANCH   7  21
BRANCH   6  25
ATOM     25  O   LIG A   1      -5.384   2.215 127.441  0.00  0.00    -0.454 OA
BRANCH  25  26
ATOM     26  C   LIG A   1      -4.427   2.527 128.359  0.00  0.00    +0.342 C 
ATOM     27  O   LIG A   1      -4.034   1.808 129.266  0.00  0.00    -0.247 OA
BRANCH  26  28
ATOM     28  C   LIG A   1      -3.819   3.852 128.029  0.00  0.00    +0.189 C 
ATOM     29  C   LIG A   1      -4.691   5.066 128.229  0.00  0.00    +0.056 C 
ATOM     30  C   LIG A   1      -2.552   4.039 127.194  0.00  0.00    +0.159 C 
ATOM     31  O   LIG A   1      -2.514   4.019 128.623  0.00  0.00    -0.353 OA
ATOM     32  C   LIG A   1      -1.729   2.970 126.569  0.00  0.00    +0.041 C 
ENDBRANCH  26  28
ENDBRANCH  25  26
ENDBRANCH   6  25
TORSDOF 7
ENDMDL
MODEL 5
REMARK VINA RESULT:      -7.1      2.130      3.698
REMARK  Name = NuBBE_828
REMARK  12 active torsions:
REMARK  status: ('A' for Active; 'I' for Inactive)
REMARK    1  A    between atoms: C_1  and  C_2
REMARK    2  A    between atoms: C_8  and  O_24
REMARK    3  A    between atoms: C_10  and  O_20
REMARK    4  A    between atoms: C_12  and  C_13
REMARK    5  A    between atoms: C_13  and  O_14
REMARK    6  A    between atoms: O_14  and  C_15
REMARK    7  A    between atoms: O_20  and  C_21
REMARK    8  A    between atoms: C_21  and  C_22
REMARK    9  A    between atoms: O_24  and  C_25
REMARK   10  A    between atoms: C_25  and  C_26
REMARK   11  A    between atoms: C_26  and  C_27
REMARK   12  A    between atoms: C_28  and  C_31
REMARK                            x       y       z     vdW  Elec       q    Type
REMARK                         _______ _______ _______ _____ _____    ______ ____
ROOT
ATOM      1  C   LIG A   1      -8.220  -0.264 131.830  0.00  0.00    +0.038 C 
ATOM      2  C   LIG A   1      -8.794   0.962 131.148  0.00  0.00    -0.073 C 
ATOM      3  C   LIG A   1      -8.325   1.333 129.930  0.00  0.00    +0.017 C 
ATOM      4  C   LIG A   1      -8.709   2.472 129.000  0.00  0.00    +0.211 C 
ATOM      5  C   LIG A   1      -7.748   3.650 128.636  0.00  0.00    +0.115 C 
ATOM      6  C   LIG A   1      -6.600   4.090 129.580  0.00  0.00    +0.233 C 
ATOM      7  C   LIG A   1      -7.009   4.956 130.831  0.00  0.00    +0.254 C 
ATOM      8  C   LIG A   1      -8.330   4.542 131.468  0.00  0.00    +0.076 C 
ATOM      9  C   LIG A   1      -8.271   3.558 132.392  0.00  0.00    -0.012 C 
ATOM     10  C   LIG A   1      -9.358   2.693 132.963  0.00  0.00    +0.032 C 
ATOM     11  C   LIG A   1      -9.886   1.664 131.945  0.00  0.00    +0.034 C 
ATOM     12  C   LIG A   1      -7.305   3.280 127.255  0.00  0.00    +0.040 C 
ATOM     13  C   LIG A   1      -6.394   3.883 126.466  0.00  0.00    +0.020 C 
ATOM     14  O   LIG A   1      -9.011   1.830 127.732  0.00  0.00    -0.453 OA
ATOM     15  C   LIG A   1      -8.135   2.163 126.753  0.00  0.00    +0.336 C 
ATOM     16  O   LIG A   1      -8.087   1.679 125.660  0.00  0.00    -0.245 OA
ENDROOT
BRANCH   8  17
ATOM     17  C   LIG A   1      -9.633   5.081 130.962  0.00  0.00    +0.338 C 
ATOM     18  O   LIG A   1     -10.214   4.689 129.964  0.00  0.00    -0.245 OA
BRANCH  17  19
ATOM     19  O   LIG A   1     -10.028   6.137 131.715  0.00  0.00    -0.465 OA
ATOM     20  C   LIG A   1     -11.434   6.384 131.788  0.00  0.00    +0.280 C 
ENDBRANCH  17  19
ENDBRANCH   8  17
BRANCH   7  21
ATOM     21  O   LIG A   1      -6.975   6.377 130.570  0.00  0.00    -0.453 OA
BRANCH  21  22
ATOM     22  C   LIG A   1      -5.781   6.990 130.797  0.00  0.00    +0.305 C 
ATOM     23  C   LIG A   1      -5.115   6.472 132.038  0.00  0.00    +0.136 C 
ATOM     24  O   LIG A   1      -5.284   7.838 130.068  0.00  0.00    -0.251 OA
ENDBRANCH  21  22
ENDBRANCH   7  21
BRANCH   6  25
ATOM     25  O   LIG A   1      -5.897   2.922 130.071  0.00  0.00    -0.454 OA
BRANCH  25  26
ATOM     26  C   LIG A   1      -4.539   2.950 130.180  0.00  0.00    +0.342 C 
ATOM     27  O   LIG A   1      -3.764   3.501 129.412  0.00  0.00    -0.247 OA
BRANCH  26  28
ATOM     28  C   LIG A   1      -4.119   2.305 131.461  0.00  0.00    +0.189 C 
ATOM     29  C   LIG A   1      -3.351   3.167 132.433  0.00  0.00    +0.056 C 
ATOM     30  C   LIG A   1      -4.092   0.796 131.704  0.00  0.00    +0.159 C 
ATOM     31  O   LIG A   1      -5.204   1.602 132.103  0.00  0.00    -0.353 OA
ATOM     32  C   LIG A   1      -4.457  -0.270 130.734  0.00  0.00    +0.041 C 
ENDBRANCH  26  28
ENDBRANCH  25  26
ENDBRANCH   6  25
TORSDOF 7
ENDMDL
MODEL 6
REMARK VINA RESULT:      -7.1      1.841      2.577
REMARK  Name = NuBBE_828
REMARK  12 active torsions:
REMARK  status: ('A' for Active; 'I' for Inactive)
REMARK    1  A    between atoms: C_1  and  C_2
REMARK    2  A    between atoms: C_8  and  O_24
REMARK    3  A    between atoms: C_10  and  O_20
REMARK    4  A    between atoms: C_12  and  C_13
REMARK    5  A    between atoms: C_13  and  O_14
REMARK    6  A    between atoms: O_14  and  C_15
REMARK    7  A    between atoms: O_20  and  C_21
REMARK    8  A    between atoms: C_21  and  C_22
REMARK    9  A    between atoms: O_24  and  C_25
REMARK   10  A    between atoms: C_25  and  C_26
REMARK   11  A    between atoms: C_26  and  C_27
REMARK   12  A    between atoms: C_28  and  C_31
REMARK                            x       y       z     vdW  Elec       q    Type
REMARK                         _______ _______ _______ _____ _____    ______ ____
ROOT
ATOM      1  C   LIG A   1      -6.354   5.291 133.899  0.00  0.00    +0.038 C 
ATOM      2  C   LIG A   1      -7.511   4.744 133.086  0.00  0.00    -0.073 C 
ATOM      3  C   LIG A   1      -7.495   3.448 132.684  0.00  0.00    +0.017 C 
ATOM      4  C   LIG A   1      -8.497   2.618 131.899  0.00  0.00    +0.211 C 
ATOM      5  C   LIG A   1      -8.208   2.035 130.477  0.00  0.00    +0.115 C 
ATOM      6  C   LIG A   1      -7.184   2.693 129.517  0.00  0.00    +0.233 C 
ATOM      7  C   LIG A   1      -7.656   3.995 128.767  0.00  0.00    +0.254 C 
ATOM      8  C   LIG A   1      -8.526   4.917 129.612  0.00  0.00    +0.076 C 
ATOM      9  C   LIG A   1      -7.879   5.814 130.389  0.00  0.00    -0.012 C 
ATOM     10  C   LIG A   1      -8.367   6.623 131.555  0.00  0.00    +0.032 C 
ATOM     11  C   LIG A   1      -8.612   5.760 132.808  0.00  0.00    +0.034 C 
ATOM     12  C   LIG A   1      -7.938   0.594 130.775  0.00  0.00    +0.040 C 
ATOM     13  C   LIG A   1      -7.541  -0.385 129.940  0.00  0.00    +0.020 C 
ATOM     14  O   LIG A   1      -8.752   1.457 132.734  0.00  0.00    -0.453 OA
ATOM     15  C   LIG A   1      -8.311   0.303 132.177  0.00  0.00    +0.336 C 
ATOM     16  O   LIG A   1      -8.286  -0.768 132.709  0.00  0.00    -0.245 OA
ENDROOT
BRANCH   8  17
ATOM     17  C   LIG A   1     -10.008   4.713 129.700  0.00  0.00    +0.338 C 
ATOM     18  O   LIG A   1     -10.554   3.687 130.071  0.00  0.00    -0.245 OA
BRANCH  17  19
ATOM     19  O   LIG A   1     -10.661   5.797 129.212  0.00  0.00    -0.465 OA
ATOM     20  C   LIG A   1     -11.784   6.262 129.965  0.00  0.00    +0.280 C 
ENDBRANCH  17  19
ENDBRANCH   8  17
BRANCH   7  21
ATOM     21  O   LIG A   1      -8.270   3.720 127.488  0.00  0.00    -0.453 OA
BRANCH  21  22
ATOM     22  C   LIG A   1      -8.009   4.621 126.502  0.00  0.00    +0.305 C 
ATOM     23  C   LIG A   1      -6.638   4.432 125.921  0.00  0.00    +0.136 C 
ATOM     24  O   LIG A   1      -8.800   5.466 126.104  0.00  0.00    -0.251 OA
ENDBRANCH  21  22
ENDBRANCH   7  21
BRANCH   6  25
ATOM     25  O   LIG A   1      -5.975   3.024 130.244  0.00  0.00    -0.454 OA
BRANCH  25  26
ATOM     26  C   LIG A   1      -4.777   2.536 129.817  0.00  0.00    +0.342 C 
ATOM     27  O   LIG A   1      -4.476   1.357 129.704  0.00  0.00    -0.247 OA
BRANCH  26  28
ATOM     28  C   LIG A   1      -3.898   3.662 129.376  0.00  0.00    +0.189 C 
ATOM     29  C   LIG A   1      -3.527   3.699 127.914  0.00  0.00    +0.056 C 
ATOM     30  C   LIG A   1      -3.081   4.545 130.320  0.00  0.00    +0.159 C 
ATOM     31  O   LIG A   1      -4.371   4.943 129.847  0.00  0.00    -0.353 OA
ATOM     32  C   LIG A   1      -3.007   4.437 131.802  0.00  0.00    +0.041 C 
ENDBRANCH  26  28
ENDBRANCH  25  26
ENDBRANCH   6  25
TORSDOF 7
ENDMDL
MODEL 7
REMARK VINA RESULT:      -7.0      2.678      6.415
REMARK  Name = NuBBE_828
REMARK  12 active torsions:
REMARK  status: ('A' for Active; 'I' for Inactive)
REMARK    1  A    between atoms: C_1  and  C_2
REMARK    2  A    between atoms: C_8  and  O_24
REMARK    3  A    between atoms: C_10  and  O_20
REMARK    4  A    between atoms: C_12  and  C_13
REMARK    5  A    between atoms: C_13  and  O_14
REMARK    6  A    between atoms: O_14  and  C_15
REMARK    7  A    between atoms: O_20  and  C_21
REMARK    8  A    between atoms: C_21  and  C_22
REMARK    9  A    between atoms: O_24  and  C_25
REMARK   10  A    between atoms: C_25  and  C_26
REMARK   11  A    between atoms: C_26  and  C_27
REMARK   12  A    between atoms: C_28  and  C_31
REMARK                            x       y       z     vdW  Elec       q    Type
REMARK                         _______ _______ _______ _____ _____    ______ ____
ROOT
ATOM      1  C   LIG A   1      -3.428   3.514 128.846  0.00  0.00    +0.038 C 
ATOM      2  C   LIG A   1      -4.740   4.023 128.282  0.00  0.00    -0.073 C 
ATOM      3  C   LIG A   1      -5.847   4.038 129.067  0.00  0.00    +0.017 C 
ATOM      4  C   LIG A   1      -7.269   4.504 128.804  0.00  0.00    +0.211 C 
ATOM      5  C   LIG A   1      -8.502   3.543 128.781  0.00  0.00    +0.115 C 
ATOM      6  C   LIG A   1      -8.358   2.037 128.441  0.00  0.00    +0.233 C 
ATOM      7  C   LIG A   1      -8.182   1.671 126.919  0.00  0.00    +0.254 C 
ATOM      8  C   LIG A   1      -7.324   2.658 126.138  0.00  0.00    +0.076 C 
ATOM      9  C   LIG A   1      -5.989   2.444 126.159  0.00  0.00    -0.012 C 
ATOM     10  C   LIG A   1      -4.852   3.357 125.801  0.00  0.00    +0.032 C 
ATOM     11  C   LIG A   1      -4.657   4.485 126.832  0.00  0.00    +0.034 C 
ATOM     12  C   LIG A   1      -9.142   3.818 130.105  0.00  0.00    +0.040 C 
ATOM     13  C   LIG A   1     -10.199   3.212 130.679  0.00  0.00    +0.020 C 
ATOM     14  O   LIG A   1      -7.553   5.450 129.870  0.00  0.00    -0.453 OA
ATOM     15  C   LIG A   1      -8.521   5.015 130.713  0.00  0.00    +0.336 C 
ATOM     16  O   LIG A   1      -8.850   5.543 131.735  0.00  0.00    -0.245 OA
ENDROOT
BRANCH   8  17
ATOM     17  C   LIG A   1      -7.922   3.891 125.531  0.00  0.00    +0.338 C 
ATOM     18  O   LIG A   1      -7.822   5.017 125.989  0.00  0.00    -0.245 OA
BRANCH  17  19
ATOM     19  O   LIG A   1      -8.677   3.564 124.454  0.00  0.00    -0.465 OA
ATOM     20  C   LIG A   1      -7.976   3.125 123.288  0.00  0.00    +0.280 C 
ENDBRANCH  17  19
ENDBRANCH   8  17
BRANCH   7  21
ATOM     21  O   LIG A   1      -9.439   1.424 126.249  0.00  0.00    -0.453 OA
BRANCH  21  22
ATOM     22  C   LIG A   1      -9.462   0.349 125.414  0.00  0.00    +0.305 C 
ATOM     23  C   LIG A   1      -8.738  -0.828 126.000  0.00  0.00    +0.136 C 
ATOM     24  O   LIG A   1     -10.029   0.322 124.330  0.00  0.00    -0.251 OA
ENDBRANCH  21  22
ENDBRANCH   7  21
BRANCH   6  25
ATOM     25  O   LIG A   1      -7.225   1.481 129.154  0.00  0.00    -0.454 OA
BRANCH  25  26
ATOM     26  C   LIG A   1      -7.401   0.394 129.956  0.00  0.00    +0.342 C 
ATOM     27  O   LIG A   1      -8.322   0.217 130.742  0.00  0.00    -0.247 OA
BRANCH  26  28
ATOM     28  C   LIG A   1      -6.361  -0.635 129.653  0.00  0.00    +0.189 C 
ATOM     29  C   LIG A   1      -4.973  -0.127 129.352  0.00  0.00    +0.056 C 
ATOM     30  C   LIG A   1      -6.661  -2.088 129.284  0.00  0.00    +0.159 C 
ATOM     31  O   LIG A   1      -6.347  -1.703 130.625  0.00  0.00    -0.353 OA
ATOM     32  C   LIG A   1      -8.002  -2.717 129.152  0.00  0.00    +0.041 C 
ENDBRANCH  26  28
ENDBRANCH  25  26
ENDBRANCH   6  25
TORSDOF 7
ENDMDL
MODEL 8
REMARK VINA RESULT:      -7.0      2.144      3.331
REMARK  Name = NuBBE_828
REMARK  12 active torsions:
REMARK  status: ('A' for Active; 'I' for Inactive)
REMARK    1  A    between atoms: C_1  and  C_2
REMARK    2  A    between atoms: C_8  and  O_24
REMARK    3  A    between atoms: C_10  and  O_20
REMARK    4  A    between atoms: C_12  and  C_13
REMARK    5  A    between atoms: C_13  and  O_14
REMARK    6  A    between atoms: O_14  and  C_15
REMARK    7  A    between atoms: O_20  and  C_21
REMARK    8  A    between atoms: C_21  and  C_22
REMARK    9  A    between atoms: O_24  and  C_25
REMARK   10  A    between atoms: C_25  and  C_26
REMARK   11  A    between atoms: C_26  and  C_27
REMARK   12  A    between atoms: C_28  and  C_31
REMARK                            x       y       z     vdW  Elec       q    Type
REMARK                         _______ _______ _______ _____ _____    ______ ____
ROOT
ATOM      1  C   LIG A   1      -7.444  -0.759 131.030  0.00  0.00    +0.038 C 
ATOM      2  C   LIG A   1      -8.270   0.425 130.567  0.00  0.00    -0.073 C 
ATOM      3  C   LIG A   1      -8.022   0.984 129.356  0.00  0.00    +0.017 C 
ATOM      4  C   LIG A   1      -8.683   2.136 128.617  0.00  0.00    +0.211 C 
ATOM      5  C   LIG A   1      -7.954   3.478 128.286  0.00  0.00    +0.115 C 
ATOM      6  C   LIG A   1      -6.766   3.996 129.137  0.00  0.00    +0.233 C 
ATOM      7  C   LIG A   1      -7.125   4.659 130.520  0.00  0.00    +0.254 C 
ATOM      8  C   LIG A   1      -8.279   3.984 131.251  0.00  0.00    +0.076 C 
ATOM      9  C   LIG A   1      -7.961   2.934 132.041  0.00  0.00    -0.012 C 
ATOM     10  C   LIG A   1      -8.829   1.859 132.627  0.00  0.00    +0.032 C 
ATOM     11  C   LIG A   1      -9.336   0.867 131.562  0.00  0.00    +0.034 C 
ATOM     12  C   LIG A   1      -7.648   3.321 126.829  0.00  0.00    +0.040 C 
ATOM     13  C   LIG A   1      -6.944   4.133 126.017  0.00  0.00    +0.020 C 
ATOM     14  O   LIG A   1      -9.056   1.584 127.325  0.00  0.00    -0.453 OA
ATOM     15  C   LIG A   1      -8.372   2.144 126.299  0.00  0.00    +0.336 C 
ATOM     16  O   LIG A   1      -8.400   1.785 125.158  0.00  0.00    -0.245 OA
ENDROOT
BRANCH   8  17
ATOM     17  C   LIG A   1      -9.700   4.363 130.966  0.00  0.00    +0.338 C 
ATOM     18  O   LIG A   1     -10.340   4.002 129.992  0.00  0.00    -0.245 OA
BRANCH  17  19
ATOM     19  O   LIG A   1     -10.146   5.245 131.893  0.00  0.00    -0.465 OA
ATOM     20  C   LIG A   1     -10.919   6.347 131.411  0.00  0.00    +0.280 C 
ENDBRANCH  17  19
ENDBRANCH   8  17
BRANCH   7  21
ATOM     21  O   LIG A   1      -7.327   6.087 130.426  0.00  0.00    -0.453 OA
BRANCH  21  22
ATOM     22  C   LIG A   1      -6.295   6.859 130.865  0.00  0.00    +0.305 C 
ATOM     23  C   LIG A   1      -5.752   6.371 132.176  0.00  0.00    +0.136 C 
ATOM     24  O   LIG A   1      -5.834   7.816 130.257  0.00  0.00    -0.251 OA
ENDBRANCH  21  22
ENDBRANCH   7  21
BRANCH   6  25
ATOM     25  O   LIG A   1      -5.846   2.908 129.403  0.00  0.00    -0.454 OA
BRANCH  25  26
ATOM     26  C   LIG A   1      -4.603   2.924 128.844  0.00  0.00    +0.342 C 
ATOM     27  O   LIG A   1      -4.241   2.280 127.870  0.00  0.00    -0.247 OA
BRANCH  26  28
ATOM     28  C   LIG A   1      -3.756   3.952 129.520  0.00  0.00    +0.189 C 
ATOM     29  C   LIG A   1      -3.467   3.735 130.985  0.00  0.00    +0.056 C 
ATOM     30  C   LIG A   1      -3.465   5.344 128.956  0.00  0.00    +0.159 C 
ATOM     31  O   LIG A   1      -2.558   4.254 128.772  0.00  0.00    -0.353 OA
ATOM     32  C   LIG A   1      -3.969   5.911 127.678  0.00  0.00    +0.041 C 
ENDBRANCH  26  28
ENDBRANCH  25  26
ENDBRANCH   6  25
TORSDOF 7
ENDMDL
MODEL 9
REMARK VINA RESULT:      -7.0      2.164      5.716
REMARK  Name = NuBBE_828
REMARK  12 active torsions:
REMARK  status: ('A' for Active; 'I' for Inactive)
REMARK    1  A    between atoms: C_1  and  C_2
REMARK    2  A    between atoms: C_8  and  O_24
REMARK    3  A    between atoms: C_10  and  O_20
REMARK    4  A    between atoms: C_12  and  C_13
REMARK    5  A    between atoms: C_13  and  O_14
REMARK    6  A    between atoms: O_14  and  C_15
REMARK    7  A    between atoms: O_20  and  C_21
REMARK    8  A    between atoms: C_21  and  C_22
REMARK    9  A    between atoms: O_24  and  C_25
REMARK   10  A    between atoms: C_25  and  C_26
REMARK   11  A    between atoms: C_26  and  C_27
REMARK   12  A    between atoms: C_28  and  C_31
REMARK                            x       y       z     vdW  Elec       q    Type
REMARK                         _______ _______ _______ _____ _____    ______ ____
ROOT
ATOM      1  C   LIG A   1      -9.087   0.183 131.890  0.00  0.00    +0.038 C 
ATOM      2  C   LIG A   1      -7.877   0.805 131.221  0.00  0.00    -0.073 C 
ATOM      3  C   LIG A   1      -7.502   2.066 131.554  0.00  0.00    +0.017 C 
ATOM      4  C   LIG A   1      -6.345   2.935 131.090  0.00  0.00    +0.211 C 
ATOM      5  C   LIG A   1      -6.531   4.260 130.282  0.00  0.00    +0.115 C 
ATOM      6  C   LIG A   1      -7.780   4.510 129.397  0.00  0.00    +0.233 C 
ATOM      7  C   LIG A   1      -7.811   3.782 128.001  0.00  0.00    +0.254 C 
ATOM      8  C   LIG A   1      -7.228   2.375 128.020  0.00  0.00    +0.076 C 
ATOM      9  C   LIG A   1      -8.074   1.376 128.358  0.00  0.00    -0.012 C 
ATOM     10  C   LIG A   1      -7.791  -0.033 128.792  0.00  0.00    +0.032 C 
ATOM     11  C   LIG A   1      -7.189  -0.102 130.209  0.00  0.00    +0.034 C 
ATOM     12  C   LIG A   1      -6.296   5.304 131.328  0.00  0.00    +0.040 C 
ATOM     13  C   LIG A   1      -6.414   6.642 131.233  0.00  0.00    +0.020 C 
ATOM     14  O   LIG A   1      -5.666   3.334 132.311  0.00  0.00    -0.453 OA
ATOM     15  C   LIG A   1      -5.749   4.666 132.546  0.00  0.00    +0.336 C 
ATOM     16  O   LIG A   1      -5.386   5.227 133.538  0.00  0.00    -0.245 OA
ENDROOT
BRANCH   8  17
ATOM     17  C   LIG A   1      -5.758   2.146 127.842  0.00  0.00    +0.338 C 
ATOM     18  O   LIG A   1      -4.924   2.226 128.729  0.00  0.00    -0.245 OA
BRANCH  17  19
ATOM     19  O   LIG A   1      -5.470   1.936 126.535  0.00  0.00    -0.465 OA
ATOM     20  C   LIG A   1      -5.165   0.593 126.152  0.00  0.00    +0.280 C 
ENDBRANCH  17  19
ENDBRANCH   8  17
BRANCH   7  21
ATOM     21  O   LIG A   1      -7.236   4.575 126.938  0.00  0.00    -0.453 OA
BRANCH  21  22
ATOM     22  C   LIG A   1      -8.041   4.795 125.863  0.00  0.00    +0.305 C 
ATOM     23  C   LIG A   1      -7.704   3.885 124.718  0.00  0.00    +0.136 C 
ATOM     24  O   LIG A   1      -8.955   5.608 125.833  0.00  0.00    -0.251 OA
ENDBRANCH  21  22
ENDBRANCH   7  21
BRANCH   6  25
ATOM     25  O   LIG A   1      -8.974   4.118 130.118  0.00  0.00    -0.454 OA
BRANCH  25  26
ATOM     26  C   LIG A   1     -10.024   4.984 130.203  0.00  0.00    +0.342 C 
ATOM     27  O   LIG A   1     -10.778   5.295 129.292  0.00  0.00    -0.247 OA
BRANCH  26  28
ATOM     28  C   LIG A   1     -10.212   5.418 131.620  0.00  0.00    +0.189 C 
ATOM     29  C   LIG A   1      -9.528   4.588 132.678  0.00  0.00    +0.056 C 
ATOM     30  C   LIG A   1     -11.295   6.388 132.093  0.00  0.00    +0.159 C 
ATOM     31  O   LIG A   1      -9.967   6.830 131.798  0.00  0.00    -0.353 OA
ATOM     32  C   LIG A   1     -12.333   7.044 131.255  0.00  0.00    +0.041 C 
ENDBRANCH  26  28
ENDBRANCH  25  26
ENDBRANCH   6  25
TORSDOF 7
ENDMDL
