MODEL 1
REMARK VINA RESULT:      -8.5      0.000      0.000
REMARK  Name = NuBBE_1786
REMARK  2 active torsions:
REMARK  status: ('A' for Active; 'I' for Inactive)
REMARK    1  A    between atoms: C_1  and  C_3
REMARK    2  A    between atoms: C_24  and  O_31
REMARK                            x       y       z     vdW  Elec       q    Type
REMARK                         _______ _______ _______ _____ _____    ______ ____
ROOT
ATOM      1  C   LIG A   1      -8.715  -2.200 124.063  0.00  0.00    +0.217 C 
ATOM      2  O   LIG A   1      -9.742  -2.870 123.921  0.00  0.00    -0.276 OA
ATOM      3  C   LIG A   1      -7.715  -2.142 122.935  0.00  0.00    +0.110 C 
ATOM      4  N   LIG A   1      -8.388  -1.547 125.239  0.00  0.00    -0.267 N 
ATOM      5  C   LIG A   1      -7.335  -0.541 125.487  0.00  0.00    +0.102 C 
ATOM      6  C   LIG A   1      -7.503  -0.171 127.031  0.00  0.00    +0.034 C 
ATOM      7  C   LIG A   1      -7.857  -1.523 127.534  0.00  0.00    -0.017 A 
ATOM      8  C   LIG A   1      -8.522  -2.230 126.505  0.00  0.00    +0.040 A 
ATOM      9  C   LIG A   1      -9.089  -3.465 126.764  0.00  0.00    +0.024 A 
ATOM     10  C   LIG A   1      -8.977  -3.990 128.058  0.00  0.00    +0.002 A 
ATOM     11  C   LIG A   1      -8.301  -3.288 129.069  0.00  0.00    +0.000 A 
ATOM     12  C   LIG A   1      -7.738  -2.037 128.814  0.00  0.00    +0.006 A 
ATOM     13  C   LIG A   1      -6.302   0.704 127.318  0.00  0.00    +0.070 C 
ATOM     14  N   LIG A   1      -6.501   1.895 128.166  0.00  0.00    -0.295 NA
ATOM     15  C   LIG A   1      -7.971   1.851 128.432  0.00  0.00    +0.086 C 
ATOM     16  C   LIG A   1      -8.656   0.804 127.487  0.00  0.00    +0.030 C 
ATOM     17  C   LIG A   1      -6.034   3.097 127.354  0.00  0.00    +0.115 C 
ATOM     18  C   LIG A   1      -6.117   2.944 125.781  0.00  0.00    -0.054 C 
ATOM     19  C   LIG A   1      -6.755   3.887 125.059  0.00  0.00    +0.002 C 
ATOM     20  C   LIG A   1      -7.233   3.806 123.637  0.00  0.00    +0.190 C 
ATOM     21  O   LIG A   1      -7.271   2.493 123.091  0.00  0.00    -0.347 OA
ATOM     22  C   LIG A   1      -7.938   1.539 123.912  0.00  0.00    +0.253 C 
ATOM     23  C   LIG A   1      -6.855   0.646 124.514  0.00  0.00    +0.074 C 
ATOM     24  C   LIG A   1      -5.646   1.552 125.166  0.00  0.00    +0.027 C 
ATOM     25  C   LIG A   1      -5.084   0.732 126.371  0.00  0.00    +0.028 C 
ENDROOT
BRANCH  22  26
ATOM     26  O   LIG A   1      -8.784   0.774 123.079  0.00  0.00    -0.367 OA
ATOM     27  H   LIG A   1      -8.302   0.661 122.244  0.00  0.00    +0.212 HD
ENDBRANCH  22  26
TORSDOF 1
ENDMDL
MODEL 2
REMARK VINA RESULT:      -8.4      2.180      6.245
REMARK  Name = NuBBE_1786
REMARK  2 active torsions:
REMARK  status: ('A' for Active; 'I' for Inactive)
REMARK    1  A    between atoms: C_1  and  C_3
REMARK    2  A    between atoms: C_24  and  O_31
REMARK                            x       y       z     vdW  Elec       q    Type
REMARK                         _______ _______ _______ _____ _____    ______ ____
ROOT
ATOM      1  C   LIG A   1      -5.836   1.977 127.376  0.00  0.00    +0.217 C 
ATOM      2  O   LIG A   1      -6.039   3.088 127.872  0.00  0.00    -0.276 OA
ATOM      3  C   LIG A   1      -4.889   1.026 128.067  0.00  0.00    +0.110 C 
ATOM      4  N   LIG A   1      -6.376   1.573 126.167  0.00  0.00    -0.267 N 
ATOM      5  C   LIG A   1      -6.411   0.224 125.565  0.00  0.00    +0.102 C 
ATOM      6  C   LIG A   1      -7.196   0.430 124.189  0.00  0.00    +0.034 C 
ATOM      7  C   LIG A   1      -6.651   1.767 123.835  0.00  0.00    -0.017 A 
ATOM      8  C   LIG A   1      -6.344   2.461 125.029  0.00  0.00    +0.040 A 
ATOM      9  C   LIG A   1      -5.958   3.789 124.980  0.00  0.00    +0.024 A 
ATOM     10  C   LIG A   1      -5.873   4.412 123.729  0.00  0.00    +0.002 A 
ATOM     11  C   LIG A   1      -6.166   3.709 122.548  0.00  0.00    +0.000 A 
ATOM     12  C   LIG A   1      -6.566   2.374 122.594  0.00  0.00    +0.006 A 
ATOM     13  C   LIG A   1      -7.052  -0.907 123.496  0.00  0.00    +0.070 C 
ATOM     14  N   LIG A   1      -8.228  -1.449 122.788  0.00  0.00    -0.295 NA
ATOM     15  C   LIG A   1      -9.270  -0.415 123.070  0.00  0.00    +0.086 C 
ATOM     16  C   LIG A   1      -8.767   0.562 124.189  0.00  0.00    +0.030 C 
ATOM     17  C   LIG A   1      -8.510  -2.821 123.387  0.00  0.00    +0.115 C 
ATOM     18  C   LIG A   1      -8.037  -3.033 124.883  0.00  0.00    -0.054 C 
ATOM     19  C   LIG A   1      -8.918  -3.490 125.795  0.00  0.00    +0.002 C 
ATOM     20  C   LIG A   1      -8.804  -3.466 127.293  0.00  0.00    +0.190 C 
ATOM     21  O   LIG A   1      -7.788  -2.613 127.803  0.00  0.00    -0.347 OA
ATOM     22  C   LIG A   1      -7.814  -1.292 127.270  0.00  0.00    +0.253 C 
ATOM     23  C   LIG A   1      -6.631  -1.184 126.309  0.00  0.00    +0.074 C 
ATOM     24  C   LIG A   1      -6.602  -2.462 125.273  0.00  0.00    +0.027 C 
ATOM     25  C   LIG A   1      -5.987  -1.932 123.939  0.00  0.00    +0.028 C 
ENDROOT
BRANCH  22  26
ATOM     26  O   LIG A   1      -7.642  -0.392 128.345  0.00  0.00    -0.367 OA
ATOM     27  H   LIG A   1      -7.486  -0.943 129.129  0.00  0.00    +0.212 HD
ENDBRANCH  22  26
TORSDOF 1
ENDMDL
MODEL 3
REMARK VINA RESULT:      -7.9      2.365      4.904
REMARK  Name = NuBBE_1786
REMARK  2 active torsions:
REMARK  status: ('A' for Active; 'I' for Inactive)
REMARK    1  A    between atoms: C_1  and  C_3
REMARK    2  A    between atoms: C_24  and  O_31
REMARK                            x       y       z     vdW  Elec       q    Type
REMARK                         _______ _______ _______ _____ _____    ______ ____
ROOT
ATOM      1  C   LIG A   1      -7.091   1.669 128.660  0.00  0.00    +0.217 C 
ATOM      2  O   LIG A   1      -6.298   2.494 129.122  0.00  0.00    -0.276 OA
ATOM      3  C   LIG A   1      -8.571   1.880 128.866  0.00  0.00    +0.110 C 
ATOM      4  N   LIG A   1      -6.695   0.509 128.016  0.00  0.00    -0.267 N 
ATOM      5  C   LIG A   1      -7.503  -0.441 127.224  0.00  0.00    +0.102 C 
ATOM      6  C   LIG A   1      -6.450  -1.539 126.738  0.00  0.00    +0.034 C 
ATOM      7  C   LIG A   1      -5.610  -1.581 127.963  0.00  0.00    -0.017 A 
ATOM      8  C   LIG A   1      -5.651  -0.311 128.585  0.00  0.00    +0.040 A 
ATOM      9  C   LIG A   1      -4.833  -0.040 129.667  0.00  0.00    +0.024 A 
ATOM     10  C   LIG A   1      -3.982  -1.053 130.128  0.00  0.00    +0.002 A 
ATOM     11  C   LIG A   1      -3.960  -2.316 129.514  0.00  0.00    +0.000 A 
ATOM     12  C   LIG A   1      -4.775  -2.589 128.415  0.00  0.00    +0.006 A 
ATOM     13  C   LIG A   1      -7.317  -2.603 126.102  0.00  0.00    +0.070 C 
ATOM     14  N   LIG A   1      -6.845  -3.220 124.847  0.00  0.00    -0.295 NA
ATOM     15  C   LIG A   1      -5.577  -2.474 124.586  0.00  0.00    +0.086 C 
ATOM     16  C   LIG A   1      -5.484  -1.226 125.532  0.00  0.00    +0.030 C 
ATOM     17  C   LIG A   1      -7.940  -3.004 123.810  0.00  0.00    +0.115 C 
ATOM     18  C   LIG A   1      -8.866  -1.739 124.035  0.00  0.00    -0.054 C 
ATOM     19  C   LIG A   1      -9.037  -0.859 123.028  0.00  0.00    +0.002 C 
ATOM     20  C   LIG A   1      -9.586   0.538 123.097  0.00  0.00    +0.190 C 
ATOM     21  O   LIG A   1      -9.665   1.087 124.406  0.00  0.00    -0.347 OA
ATOM     22  C   LIG A   1      -8.463   0.972 125.161  0.00  0.00    +0.253 C 
ATOM     23  C   LIG A   1      -8.709  -0.108 126.213  0.00  0.00    +0.074 C 
ATOM     24  C   LIG A   1      -9.351  -1.458 125.526  0.00  0.00    +0.027 C 
ATOM     25  C   LIG A   1      -8.836  -2.668 126.368  0.00  0.00    +0.028 C 
ENDROOT
BRANCH  22  26
ATOM     26  O   LIG A   1      -8.232   2.214 125.793  0.00  0.00    -0.367 OA
ATOM     27  H   LIG A   1      -7.302   2.430 125.619  0.00  0.00    +0.212 HD
ENDBRANCH  22  26
TORSDOF 1
ENDMDL
MODEL 4
REMARK VINA RESULT:      -7.8      2.363      4.033
REMARK  Name = NuBBE_1786
REMARK  2 active torsions:
REMARK  status: ('A' for Active; 'I' for Inactive)
REMARK    1  A    between atoms: C_1  and  C_3
REMARK    2  A    between atoms: C_24  and  O_31
REMARK                            x       y       z     vdW  Elec       q    Type
REMARK                         _______ _______ _______ _____ _____    ______ ____
ROOT
ATOM      1  C   LIG A   1      -7.186   0.362 129.531  0.00  0.00    +0.217 C 
ATOM      2  O   LIG A   1      -6.588  -0.294 130.388  0.00  0.00    -0.276 OA
ATOM      3  C   LIG A   1      -7.805   1.683 129.916  0.00  0.00    +0.110 C 
ATOM      4  N   LIG A   1      -7.386  -0.083 128.235  0.00  0.00    -0.267 N 
ATOM      5  C   LIG A   1      -7.870   0.665 127.056  0.00  0.00    +0.102 C 
ATOM      6  C   LIG A   1      -7.847  -0.409 125.875  0.00  0.00    +0.034 C 
ATOM      7  C   LIG A   1      -8.273  -1.596 126.662  0.00  0.00    -0.017 A 
ATOM      8  C   LIG A   1      -7.834  -1.435 127.997  0.00  0.00    +0.040 A 
ATOM      9  C   LIG A   1      -7.974  -2.471 128.904  0.00  0.00    +0.024 A 
ATOM     10  C   LIG A   1      -8.566  -3.662 128.466  0.00  0.00    +0.002 A 
ATOM     11  C   LIG A   1      -9.012  -3.806 127.143  0.00  0.00    +0.000 A 
ATOM     12  C   LIG A   1      -8.862  -2.769 126.222  0.00  0.00    +0.006 A 
ATOM     13  C   LIG A   1      -8.527   0.309 124.730  0.00  0.00    +0.070 C 
ATOM     14  N   LIG A   1      -7.959   0.147 123.378  0.00  0.00    -0.295 NA
ATOM     15  C   LIG A   1      -6.764  -0.711 123.638  0.00  0.00    +0.086 C 
ATOM     16  C   LIG A   1      -6.483  -0.787 125.179  0.00  0.00    +0.030 C 
ATOM     17  C   LIG A   1      -7.642   1.546 122.862  0.00  0.00    +0.115 C 
ATOM     18  C   LIG A   1      -7.340   2.638 123.967  0.00  0.00    -0.054 C 
ATOM     19  C   LIG A   1      -6.210   3.368 123.882  0.00  0.00    +0.002 C 
ATOM     20  C   LIG A   1      -5.563   4.209 124.946  0.00  0.00    +0.190 C 
ATOM     21  O   LIG A   1      -6.042   3.980 126.265  0.00  0.00    -0.347 OA
ATOM     22  C   LIG A   1      -6.072   2.607 126.645  0.00  0.00    +0.253 C 
ATOM     23  C   LIG A   1      -7.540   2.185 126.648  0.00  0.00    +0.074 C 
ATOM     24  C   LIG A   1      -8.282   2.643 125.252  0.00  0.00    +0.027 C 
ATOM     25  C   LIG A   1      -9.382   1.571 124.968  0.00  0.00    +0.028 C 
ENDROOT
BRANCH  22  26
ATOM     26  O   LIG A   1      -5.542   2.511 127.951  0.00  0.00    -0.367 OA
ATOM     27  H   LIG A   1      -5.894   3.275 128.435  0.00  0.00    +0.212 HD
ENDBRANCH  22  26
TORSDOF 1
ENDMDL
MODEL 5
REMARK VINA RESULT:      -7.7      2.472      4.952
REMARK  Name = NuBBE_1786
REMARK  2 active torsions:
REMARK  status: ('A' for Active; 'I' for Inactive)
REMARK    1  A    between atoms: C_1  and  C_3
REMARK    2  A    between atoms: C_24  and  O_31
REMARK                            x       y       z     vdW  Elec       q    Type
REMARK                         _______ _______ _______ _____ _____    ______ ____
ROOT
ATOM      1  C   LIG A   1      -7.131   1.792 124.997  0.00  0.00    +0.217 C 
ATOM      2  O   LIG A   1      -7.707   2.084 123.945  0.00  0.00    -0.276 OA
ATOM      3  C   LIG A   1      -6.359   2.861 125.731  0.00  0.00    +0.110 C 
ATOM      4  N   LIG A   1      -7.092   0.508 125.513  0.00  0.00    -0.267 N 
ATOM      5  C   LIG A   1      -6.649   0.051 126.847  0.00  0.00    +0.102 C 
ATOM      6  C   LIG A   1      -6.880  -1.529 126.815  0.00  0.00    +0.034 C 
ATOM      7  C   LIG A   1      -6.497  -1.769 125.400  0.00  0.00    -0.017 A 
ATOM      8  C   LIG A   1      -6.796  -0.609 124.647  0.00  0.00    +0.040 A 
ATOM      9  C   LIG A   1      -6.671  -0.624 123.269  0.00  0.00    +0.024 A 
ATOM     10  C   LIG A   1      -6.235  -1.804 122.653  0.00  0.00    +0.002 A 
ATOM     11  C   LIG A   1      -5.927  -2.946 123.411  0.00  0.00    +0.000 A 
ATOM     12  C   LIG A   1      -6.063  -2.938 124.799  0.00  0.00    +0.006 A 
ATOM     13  C   LIG A   1      -6.243  -2.005 128.102  0.00  0.00    +0.070 C 
ATOM     14  N   LIG A   1      -6.945  -3.047 128.877  0.00  0.00    -0.295 NA
ATOM     15  C   LIG A   1      -8.186  -3.257 128.072  0.00  0.00    +0.086 C 
ATOM     16  C   LIG A   1      -8.331  -2.117 127.003  0.00  0.00    +0.030 C 
ATOM     17  C   LIG A   1      -7.174  -2.480 130.272  0.00  0.00    +0.115 C 
ATOM     18  C   LIG A   1      -7.271  -0.903 130.371  0.00  0.00    -0.054 C 
ATOM     19  C   LIG A   1      -8.331  -0.344 130.988  0.00  0.00    +0.002 C 
ATOM     20  C   LIG A   1      -8.797   1.083 130.927  0.00  0.00    +0.190 C 
ATOM     21  O   LIG A   1      -8.224   1.857 129.882  0.00  0.00    -0.347 OA
ATOM     22  C   LIG A   1      -8.288   1.243 128.598  0.00  0.00    +0.253 C 
ATOM     23  C   LIG A   1      -6.871   0.779 128.263  0.00  0.00    +0.074 C 
ATOM     24  C   LIG A   1      -6.220  -0.062 129.518  0.00  0.00    +0.027 C 
ATOM     25  C   LIG A   1      -5.255  -1.116 128.887  0.00  0.00    +0.028 C 
ENDROOT
BRANCH  22  26
ATOM     26  O   LIG A   1      -8.703   2.225 127.672  0.00  0.00    -0.367 OA
ATOM     27  H   LIG A   1      -7.955   2.351 127.067  0.00  0.00    +0.212 HD
ENDBRANCH  22  26
TORSDOF 1
ENDMDL
MODEL 6
REMARK VINA RESULT:      -7.6      2.005      3.331
REMARK  Name = NuBBE_1786
REMARK  2 active torsions:
REMARK  status: ('A' for Active; 'I' for Inactive)
REMARK    1  A    between atoms: C_1  and  C_3
REMARK    2  A    between atoms: C_24  and  O_31
REMARK                            x       y       z     vdW  Elec       q    Type
REMARK                         _______ _______ _______ _____ _____    ______ ____
ROOT
ATOM      1  C   LIG A   1      -8.972   1.695 123.064  0.00  0.00    +0.217 C 
ATOM      2  O   LIG A   1     -10.064   1.487 122.528  0.00  0.00    -0.276 OA
ATOM      3  C   LIG A   1      -8.104   2.817 122.550  0.00  0.00    +0.110 C 
ATOM      4  N   LIG A   1      -8.459   0.903 124.077  0.00  0.00    -0.267 N 
ATOM      5  C   LIG A   1      -7.299   1.151 124.958  0.00  0.00    +0.102 C 
ATOM      6  C   LIG A   1      -7.259  -0.124 125.920  0.00  0.00    +0.034 C 
ATOM      7  C   LIG A   1      -7.673  -1.149 124.927  0.00  0.00    -0.017 A 
ATOM      8  C   LIG A   1      -8.510  -0.536 123.965  0.00  0.00    +0.040 A 
ATOM      9  C   LIG A   1      -9.152  -1.306 123.011  0.00  0.00    +0.024 A 
ATOM     10  C   LIG A   1      -8.942  -2.691 123.022  0.00  0.00    +0.002 A 
ATOM     11  C   LIG A   1      -8.097  -3.288 123.972  0.00  0.00    +0.000 A 
ATOM     12  C   LIG A   1      -7.457  -2.517 124.943  0.00  0.00    +0.006 A 
ATOM     13  C   LIG A   1      -5.960   0.045 126.677  0.00  0.00    +0.070 C 
ATOM     14  N   LIG A   1      -5.956  -0.266 128.120  0.00  0.00    -0.295 NA
ATOM     15  C   LIG A   1      -7.385  -0.627 128.369  0.00  0.00    +0.086 C 
ATOM     16  C   LIG A   1      -8.262  -0.229 127.132  0.00  0.00    +0.030 C 
ATOM     17  C   LIG A   1      -5.478   0.988 128.841  0.00  0.00    +0.115 C 
ATOM     18  C   LIG A   1      -5.751   2.359 128.098  0.00  0.00    -0.054 C 
ATOM     19  C   LIG A   1      -6.379   3.353 128.757  0.00  0.00    +0.002 C 
ATOM     20  C   LIG A   1      -7.019   4.588 128.189  0.00  0.00    +0.190 C 
ATOM     21  O   LIG A   1      -7.235   4.559 126.784  0.00  0.00    -0.347 OA
ATOM     22  C   LIG A   1      -7.888   3.382 126.318  0.00  0.00    +0.253 C 
ATOM     23  C   LIG A   1      -6.828   2.547 125.601  0.00  0.00    +0.074 C 
ATOM     24  C   LIG A   1      -5.477   2.396 126.529  0.00  0.00    +0.027 C 
ATOM     25  C   LIG A   1      -4.859   1.005 126.180  0.00  0.00    +0.028 C 
ENDROOT
BRANCH  22  26
ATOM     26  O   LIG A   1      -8.886   3.779 125.402  0.00  0.00    -0.367 OA
ATOM     27  H   LIG A   1      -8.742   3.244 124.604  0.00  0.00    +0.212 HD
ENDBRANCH  22  26
TORSDOF 1
ENDMDL
MODEL 7
REMARK VINA RESULT:      -7.6      3.482      6.286
REMARK  Name = NuBBE_1786
REMARK  2 active torsions:
REMARK  status: ('A' for Active; 'I' for Inactive)
REMARK    1  A    between atoms: C_1  and  C_3
REMARK    2  A    between atoms: C_24  and  O_31
REMARK                            x       y       z     vdW  Elec       q    Type
REMARK                         _______ _______ _______ _____ _____    ______ ____
ROOT
ATOM      1  C   LIG A   1      -7.397   1.239 127.552  0.00  0.00    +0.217 C 
ATOM      2  O   LIG A   1      -7.238   2.439 127.314  0.00  0.00    -0.276 OA
ATOM      3  C   LIG A   1      -7.578   0.281 126.400  0.00  0.00    +0.110 C 
ATOM      4  N   LIG A   1      -7.493   0.722 128.833  0.00  0.00    -0.267 N 
ATOM      5  C   LIG A   1      -7.455  -0.687 129.276  0.00  0.00    +0.102 C 
ATOM      6  C   LIG A   1      -7.586  -0.600 130.865  0.00  0.00    +0.034 C 
ATOM      7  C   LIG A   1      -8.538   0.538 130.936  0.00  0.00    -0.017 A 
ATOM      8  C   LIG A   1      -8.330   1.373 129.813  0.00  0.00    +0.040 A 
ATOM      9  C   LIG A   1      -8.990   2.586 129.717  0.00  0.00    +0.024 A 
ATOM     10  C   LIG A   1      -9.866   2.950 130.747  0.00  0.00    +0.002 A 
ATOM     11  C   LIG A   1     -10.077   2.107 131.851  0.00  0.00    +0.000 A 
ATOM     12  C   LIG A   1      -9.405   0.889 131.957  0.00  0.00    +0.006 A 
ATOM     13  C   LIG A   1      -7.745  -2.045 131.286  0.00  0.00    +0.070 C 
ATOM     14  N   LIG A   1      -7.025  -2.497 132.492  0.00  0.00    -0.295 NA
ATOM     15  C   LIG A   1      -6.276  -1.268 132.892  0.00  0.00    +0.086 C 
ATOM     16  C   LIG A   1      -6.334  -0.205 131.739  0.00  0.00    +0.030 C 
ATOM     17  C   LIG A   1      -6.151  -3.671 132.071  0.00  0.00    +0.115 C 
ATOM     18  C   LIG A   1      -5.701  -3.688 130.553  0.00  0.00    -0.054 C 
ATOM     19  C   LIG A   1      -4.393  -3.817 130.254  0.00  0.00    +0.002 C 
ATOM     20  C   LIG A   1      -3.706  -3.545 128.945  0.00  0.00    +0.190 C 
ATOM     21  O   LIG A   1      -4.474  -2.799 128.009  0.00  0.00    -0.347 OA
ATOM     22  C   LIG A   1      -5.050  -1.611 128.543  0.00  0.00    +0.253 C 
ATOM     23  C   LIG A   1      -6.546  -1.880 128.696  0.00  0.00    +0.074 C 
ATOM     24  C   LIG A   1      -6.806  -3.309 129.470  0.00  0.00    +0.027 C 
ATOM     25  C   LIG A   1      -8.136  -3.140 130.271  0.00  0.00    +0.028 C 
ENDROOT
BRANCH  22  26
ATOM     26  O   LIG A   1      -4.843  -0.575 127.605  0.00  0.00    -0.367 OA
ATOM     27  H   LIG A   1      -4.417   0.146 128.097  0.00  0.00    +0.212 HD
ENDBRANCH  22  26
TORSDOF 1
ENDMDL
MODEL 8
REMARK VINA RESULT:      -7.5      2.281      4.197
REMARK  Name = NuBBE_1786
REMARK  2 active torsions:
REMARK  status: ('A' for Active; 'I' for Inactive)
REMARK    1  A    between atoms: C_1  and  C_3
REMARK    2  A    between atoms: C_24  and  O_31
REMARK                            x       y       z     vdW  Elec       q    Type
REMARK                         _______ _______ _______ _____ _____    ______ ____
ROOT
ATOM      1  C   LIG A   1      -7.892   1.720 129.869  0.00  0.00    +0.217 C 
ATOM      2  O   LIG A   1      -7.329   1.710 130.967  0.00  0.00    -0.276 OA
ATOM      3  C   LIG A   1      -8.968   2.746 129.605  0.00  0.00    +0.110 C 
ATOM      4  N   LIG A   1      -7.643   0.788 128.876  0.00  0.00    -0.267 N 
ATOM      5  C   LIG A   1      -8.057   0.801 127.458  0.00  0.00    +0.102 C 
ATOM      6  C   LIG A   1      -7.428  -0.536 126.854  0.00  0.00    +0.034 C 
ATOM      7  C   LIG A   1      -7.624  -1.413 128.038  0.00  0.00    -0.017 A 
ATOM      8  C   LIG A   1      -7.574  -0.616 129.205  0.00  0.00    +0.040 A 
ATOM      9  C   LIG A   1      -7.582  -1.212 130.454  0.00  0.00    +0.024 A 
ATOM     10  C   LIG A   1      -7.651  -2.609 130.524  0.00  0.00    +0.002 A 
ATOM     11  C   LIG A   1      -7.716  -3.391 129.359  0.00  0.00    +0.000 A 
ATOM     12  C   LIG A   1      -7.696  -2.795 128.098  0.00  0.00    +0.006 A 
ATOM     13  C   LIG A   1      -8.021  -0.611 125.464  0.00  0.00    +0.070 C 
ATOM     14  N   LIG A   1      -7.140  -1.030 124.358  0.00  0.00    -0.295 NA
ATOM     15  C   LIG A   1      -5.827  -1.206 125.049  0.00  0.00    +0.086 C 
ATOM     16  C   LIG A   1      -5.894  -0.593 126.492  0.00  0.00    +0.030 C 
ATOM     17  C   LIG A   1      -7.173   0.084 123.320  0.00  0.00    +0.115 C 
ATOM     18  C   LIG A   1      -7.491   1.534 123.872  0.00  0.00    -0.054 C 
ATOM     19  C   LIG A   1      -6.661   2.552 123.569  0.00  0.00    +0.002 C 
ATOM     20  C   LIG A   1      -6.572   3.904 124.218  0.00  0.00    +0.190 C 
ATOM     21  O   LIG A   1      -7.241   4.015 125.468  0.00  0.00    -0.347 OA
ATOM     22  C   LIG A   1      -6.921   2.981 126.394  0.00  0.00    +0.253 C 
ATOM     23  C   LIG A   1      -8.141   2.064 126.466  0.00  0.00    +0.074 C 
ATOM     24  C   LIG A   1      -8.652   1.653 124.957  0.00  0.00    +0.027 C 
ATOM     25  C   LIG A   1      -9.262   0.220 125.075  0.00  0.00    +0.028 C 
ENDROOT
BRANCH  22  26
ATOM     26  O   LIG A   1      -6.699   3.584 127.652  0.00  0.00    -0.367 OA
ATOM     27  H   LIG A   1      -5.736   3.608 127.767  0.00  0.00    +0.212 HD
ENDBRANCH  22  26
TORSDOF 1
ENDMDL
MODEL 9
REMARK VINA RESULT:      -7.4      2.592      6.234
REMARK  Name = NuBBE_1786
REMARK  2 active torsions:
REMARK  status: ('A' for Active; 'I' for Inactive)
REMARK    1  A    between atoms: C_1  and  C_3
REMARK    2  A    between atoms: C_24  and  O_31
REMARK                            x       y       z     vdW  Elec       q    Type
REMARK                         _______ _______ _______ _____ _____    ______ ____
ROOT
ATOM      1  C   LIG A   1      -4.863   3.182 127.352  0.00  0.00    +0.217 C 
ATOM      2  O   LIG A   1      -5.004   4.408 127.380  0.00  0.00    -0.276 OA
ATOM      3  C   LIG A   1      -3.689   2.562 128.068  0.00  0.00    +0.110 C 
ATOM      4  N   LIG A   1      -5.691   2.338 126.632  0.00  0.00    -0.267 N 
ATOM      5  C   LIG A   1      -5.790   0.864 126.680  0.00  0.00    +0.102 C 
ATOM      6  C   LIG A   1      -6.946   0.516 125.634  0.00  0.00    +0.034 C 
ATOM      7  C   LIG A   1      -6.629   1.553 124.618  0.00  0.00    -0.017 A 
ATOM      8  C   LIG A   1      -6.051   2.667 125.272  0.00  0.00    +0.040 A 
ATOM      9  C   LIG A   1      -5.800   3.832 124.569  0.00  0.00    +0.024 A 
ATOM     10  C   LIG A   1      -6.121   3.869 123.207  0.00  0.00    +0.002 A 
ATOM     11  C   LIG A   1      -6.680   2.753 122.563  0.00  0.00    +0.000 A 
ATOM     12  C   LIG A   1      -6.946   1.581 123.271  0.00  0.00    +0.006 A 
ATOM     13  C   LIG A   1      -6.900  -0.994 125.547  0.00  0.00    +0.070 C 
ATOM     14  N   LIG A   1      -8.183  -1.722 125.501  0.00  0.00    -0.295 NA
ATOM     15  C   LIG A   1      -9.179  -0.615 125.618  0.00  0.00    +0.086 C 
ATOM     16  C   LIG A   1      -8.458   0.714 126.035  0.00  0.00    +0.030 C 
ATOM     17  C   LIG A   1      -8.176  -2.703 126.667  0.00  0.00    +0.115 C 
ATOM     18  C   LIG A   1      -7.284  -2.293 127.910  0.00  0.00    -0.054 C 
ATOM     19  C   LIG A   1      -7.833  -2.283 129.141  0.00  0.00    +0.002 C 
ATOM     20  C   LIG A   1      -7.302  -1.641 130.391  0.00  0.00    +0.190 C 
ATOM     21  O   LIG A   1      -6.252  -0.704 130.185  0.00  0.00    -0.347 OA
ATOM     22  C   LIG A   1      -6.530   0.272 129.185  0.00  0.00    +0.253 C 
ATOM     23  C   LIG A   1      -5.680  -0.091 127.969  0.00  0.00    +0.074 C 
ATOM     24  C   LIG A   1      -5.846  -1.684 127.595  0.00  0.00    +0.027 C 
ATOM     25  C   LIG A   1      -5.677  -1.792 126.046  0.00  0.00    +0.028 C 
ENDROOT
BRANCH  22  26
ATOM     26  O   LIG A   1      -6.132   1.530 129.691  0.00  0.00    -0.367 OA
ATOM     27  H   LIG A   1      -5.776   1.357 130.578  0.00  0.00    +0.212 HD
ENDBRANCH  22  26
TORSDOF 1
ENDMDL
