MODEL 1
REMARK VINA RESULT:      -6.4      0.000      0.000
REMARK  Name = NuBBE_187
REMARK  22 active torsions:
REMARK  status: ('A' for Active; 'I' for Inactive)
REMARK    1  A    between atoms: O_1  and  C_2
REMARK    2  A    between atoms: C_2  and  C_3
REMARK    3  A    between atoms: C_3  and  C_4
REMARK    4  A    between atoms: C_4  and  C_5
REMARK    5  A    between atoms: C_5  and  C_6
REMARK    6  A    between atoms: C_6  and  C_7
REMARK    7  A    between atoms: C_7  and  C_8
REMARK    8  A    between atoms: C_8  and  C_9
REMARK    9  A    between atoms: C_9  and  C_10
REMARK   10  A    between atoms: C_10  and  C_11
REMARK   11  A    between atoms: C_11  and  C_12
REMARK   12  A    between atoms: C_12  and  C_13
REMARK   13  A    between atoms: C_13  and  C_14
REMARK   14  A    between atoms: C_14  and  C_15
REMARK   15  A    between atoms: C_15  and  C_16
REMARK   16  A    between atoms: C_16  and  C_17
REMARK   17  A    between atoms: C_17  and  C_18
REMARK   18  A    between atoms: C_18  and  C_19
REMARK   19  A    between atoms: C_19  and  C_20
REMARK   20  A    between atoms: C_20  and  C_21
REMARK   21  A    between atoms: C_21  and  C_22
REMARK   22  A    between atoms: C_22  and  C_23
REMARK                            x       y       z     vdW  Elec       q    Type
REMARK                         _______ _______ _______ _____ _____    ______ ____
ROOT
ATOM      1  C   LIG A   1      -6.565  -0.890 127.361  0.00  0.00    -0.000 C 
ENDROOT
BRANCH   1   2
ATOM      2  C   LIG A   1      -6.923  -2.198 126.670  0.00  0.00    -0.000 C 
BRANCH   2   3
ATOM      3  C   LIG A   1      -8.173  -2.880 127.230  0.00  0.00    -0.000 C 
BRANCH   3   4
ATOM      4  C   LIG A   1      -9.144  -3.201 126.093  0.00  0.00    -0.000 C 
BRANCH   4   5
ATOM      5  C   LIG A   1      -8.442  -3.389 124.748  0.00  0.00    +0.000 C 
BRANCH   5   6
ATOM      6  C   LIG A   1      -9.319  -2.950 123.576  0.00  0.00    +0.000 C 
BRANCH   6   7
ATOM      7  C   LIG A   1      -8.528  -2.119 122.565  0.00  0.00    +0.005 C 
BRANCH   7   8
ATOM      8  C   LIG A   1      -7.431  -1.235 123.177  0.00  0.00    +0.035 C 
BRANCH   8   9
ATOM      9  C   LIG A   1      -7.770   0.140 123.712  0.00  0.00    -0.044 A 
ATOM     10  C   LIG A   1      -6.843   1.057 124.191  0.00  0.00    +0.053 A 
ATOM     11  C   LIG A   1      -7.357   2.265 124.628  0.00  0.00    +0.167 A 
ATOM     12  O   LIG A   1      -6.683   3.370 124.915  0.00  0.00    -0.453 OA
ATOM     13  C   LIG A   1      -7.665   4.250 125.513  0.00  0.00    +0.466 C 
ATOM     14  O   LIG A   1      -8.970   3.786 125.267  0.00  0.00    -0.453 OA
ATOM     15  C   LIG A   1      -8.679   2.578 124.723  0.00  0.00    +0.166 A 
ATOM     16  C   LIG A   1      -9.601   1.725 124.256  0.00  0.00    +0.050 A 
ATOM     17  C   LIG A   1      -9.146   0.511 123.742  0.00  0.00    +0.007 A 
ENDBRANCH   8   9
ENDBRANCH   7   8
ENDBRANCH   6   7
ENDBRANCH   5   6
ENDBRANCH   4   5
ENDBRANCH   3   4
ENDBRANCH   2   3
ENDBRANCH   1   2
BRANCH   1  18
ATOM     18  C   LIG A   1      -7.855  -0.065 127.576  0.00  0.00    -0.000 C 
BRANCH  18  19
ATOM     19  C   LIG A   1      -7.588   1.311 128.135  0.00  0.00    -0.000 C 
BRANCH  19  20
ATOM     20  C   LIG A   1      -8.711   2.193 128.613  0.00  0.00    -0.000 C 
BRANCH  20  21
ATOM     21  C   LIG A   1      -8.227   3.506 129.277  0.00  0.00    -0.000 C 
BRANCH  21  22
ATOM     22  C   LIG A   1      -9.128   4.726 129.603  0.00  0.00    -0.000 C 
BRANCH  22  23
ATOM     23  C   LIG A   1      -8.682   5.845 130.563  0.00  0.00    -0.000 C 
BRANCH  23  24
ATOM     24  C   LIG A   1      -9.167   5.999 132.011  0.00  0.00    -0.000 C 
BRANCH  24  25
ATOM     25  C   LIG A   1     -10.656   6.380 132.291  0.00  0.00    -0.000 C 
BRANCH  25  26
ATOM     26  C   LIG A   1     -11.866   6.152 131.304  0.00  0.00    +0.000 C 
BRANCH  26  27
ATOM     27  C   LIG A   1     -12.305   7.154 130.229  0.00  0.00    +0.000 C 
BRANCH  27  28
ATOM     28  C   LIG A   1     -12.764   6.552 128.902  0.00  0.00    +0.011 C 
BRANCH  28  29
ATOM     29  C   LIG A   1     -12.859   7.677 127.892  0.00  0.00    +0.120 C 
BRANCH  29  30
ATOM     30  C   LIG A   1     -11.772   7.541 127.054  0.00  0.00    +0.305 C 
ATOM     31  O   LIG A   1     -10.776   8.374 127.008  0.00  0.00    -0.251 OA
BRANCH  30  32
ATOM     32  O   LIG A   1     -12.004   6.541 126.184  0.00  0.00    -0.481 OA
ATOM     33  H   LIG A   1     -11.590   6.894 125.318  0.00  0.00    +0.295 HD
ENDBRANCH  30  32
ENDBRANCH  29  30
ENDBRANCH  28  29
ENDBRANCH  27  28
ENDBRANCH  26  27
ENDBRANCH  25  26
ENDBRANCH  24  25
ENDBRANCH  23  24
ENDBRANCH  22  23
ENDBRANCH  21  22
ENDBRANCH  20  21
ENDBRANCH  19  20
ENDBRANCH  18  19
ENDBRANCH   1  18
TORSDOF 22
ENDMDL
MODEL 2
REMARK VINA RESULT:      -6.3      3.478      6.342
REMARK  Name = NuBBE_187
REMARK  22 active torsions:
REMARK  status: ('A' for Active; 'I' for Inactive)
REMARK    1  A    between atoms: O_1  and  C_2
REMARK    2  A    between atoms: C_2  and  C_3
REMARK    3  A    between atoms: C_3  and  C_4
REMARK    4  A    between atoms: C_4  and  C_5
REMARK    5  A    between atoms: C_5  and  C_6
REMARK    6  A    between atoms: C_6  and  C_7
REMARK    7  A    between atoms: C_7  and  C_8
REMARK    8  A    between atoms: C_8  and  C_9
REMARK    9  A    between atoms: C_9  and  C_10
REMARK   10  A    between atoms: C_10  and  C_11
REMARK   11  A    between atoms: C_11  and  C_12
REMARK   12  A    between atoms: C_12  and  C_13
REMARK   13  A    between atoms: C_13  and  C_14
REMARK   14  A    between atoms: C_14  and  C_15
REMARK   15  A    between atoms: C_15  and  C_16
REMARK   16  A    between atoms: C_16  and  C_17
REMARK   17  A    between atoms: C_17  and  C_18
REMARK   18  A    between atoms: C_18  and  C_19
REMARK   19  A    between atoms: C_19  and  C_20
REMARK   20  A    between atoms: C_20  and  C_21
REMARK   21  A    between atoms: C_21  and  C_22
REMARK   22  A    between atoms: C_22  and  C_23
REMARK                            x       y       z     vdW  Elec       q    Type
REMARK                         _______ _______ _______ _____ _____    ______ ____
ROOT
ATOM      1  C   LIG A   1      -7.148   3.663 129.590  0.00  0.00    -0.000 C 
ENDROOT
BRANCH   1   2
ATOM      2  C   LIG A   1      -5.726   3.598 130.129  0.00  0.00    -0.000 C 
BRANCH   2   3
ATOM      3  C   LIG A   1      -5.403   4.671 131.171  0.00  0.00    -0.000 C 
BRANCH   3   4
ATOM      4  C   LIG A   1      -5.789   6.050 130.634  0.00  0.00    -0.000 C 
BRANCH   4   5
ATOM      5  C   LIG A   1      -4.967   7.180 131.252  0.00  0.00    +0.000 C 
BRANCH   5   6
ATOM      6  C   LIG A   1      -3.526   7.186 130.744  0.00  0.00    +0.000 C 
BRANCH   6   7
ATOM      7  C   LIG A   1      -3.461   7.504 129.249  0.00  0.00    +0.005 C 
BRANCH   7   8
ATOM      8  C   LIG A   1      -2.576   6.556 128.428  0.00  0.00    +0.035 C 
BRANCH   8   9
ATOM      9  C   LIG A   1      -3.184   5.360 127.726  0.00  0.00    -0.044 A 
ATOM     10  C   LIG A   1      -4.482   5.302 127.235  0.00  0.00    +0.053 A 
ATOM     11  C   LIG A   1      -4.841   4.117 126.616  0.00  0.00    +0.167 A 
ATOM     12  O   LIG A   1      -5.921   3.888 125.882  0.00  0.00    -0.453 OA
ATOM     13  C   LIG A   1      -5.913   2.458 125.659  0.00  0.00    +0.466 C 
ATOM     14  O   LIG A   1      -4.658   1.908 125.977  0.00  0.00    -0.453 OA
ATOM     15  C   LIG A   1      -4.076   2.993 126.548  0.00  0.00    +0.166 A 
ATOM     16  C   LIG A   1      -2.814   3.017 126.996  0.00  0.00    +0.050 A 
ATOM     17  C   LIG A   1      -2.365   4.203 127.576  0.00  0.00    +0.007 A 
ENDBRANCH   8   9
ENDBRANCH   7   8
ENDBRANCH   6   7
ENDBRANCH   5   6
ENDBRANCH   4   5
ENDBRANCH   3   4
ENDBRANCH   2   3
ENDBRANCH   1   2
BRANCH   1  18
ATOM     18  C   LIG A   1      -7.952   2.465 130.146  0.00  0.00    -0.000 C 
BRANCH  18  19
ATOM     19  C   LIG A   1      -9.354   2.838 130.562  0.00  0.00    -0.000 C 
BRANCH  19  20
ATOM     20  C   LIG A   1      -9.884   2.491 131.928  0.00  0.00    -0.000 C 
BRANCH  20  21
ATOM     21  C   LIG A   1      -9.110   3.173 133.083  0.00  0.00    -0.000 C 
BRANCH  21  22
ATOM     22  C   LIG A   1      -8.531   4.612 133.043  0.00  0.00    -0.000 C 
BRANCH  22  23
ATOM     23  C   LIG A   1      -9.382   5.829 132.633  0.00  0.00    -0.000 C 
BRANCH  23  24
ATOM     24  C   LIG A   1      -9.456   6.404 131.211  0.00  0.00    -0.000 C 
BRANCH  24  25
ATOM     25  C   LIG A   1     -10.798   6.327 130.416  0.00  0.00    -0.000 C 
BRANCH  25  26
ATOM     26  C   LIG A   1     -11.990   7.356 130.517  0.00  0.00    +0.000 C 
BRANCH  26  27
ATOM     27  C   LIG A   1     -12.200   8.531 129.554  0.00  0.00    +0.000 C 
BRANCH  27  28
ATOM     28  C   LIG A   1     -12.352   8.166 128.079  0.00  0.00    +0.011 C 
BRANCH  28  29
ATOM     29  C   LIG A   1     -10.976   8.214 127.446  0.00  0.00    +0.120 C 
BRANCH  29  30
ATOM     30  C   LIG A   1     -10.868   7.084 126.662  0.00  0.00    +0.305 C 
ATOM     31  O   LIG A   1      -9.748   6.482 126.398  0.00  0.00    -0.251 OA
BRANCH  30  32
ATOM     32  O   LIG A   1     -12.054   6.835 126.077  0.00  0.00    -0.481 OA
ATOM     33  H   LIG A   1     -11.899   7.139 125.114  0.00  0.00    +0.295 HD
ENDBRANCH  30  32
ENDBRANCH  29  30
ENDBRANCH  28  29
ENDBRANCH  27  28
ENDBRANCH  26  27
ENDBRANCH  25  26
ENDBRANCH  24  25
ENDBRANCH  23  24
ENDBRANCH  22  23
ENDBRANCH  21  22
ENDBRANCH  20  21
ENDBRANCH  19  20
ENDBRANCH  18  19
ENDBRANCH   1  18
TORSDOF 22
ENDMDL
MODEL 3
REMARK VINA RESULT:      -6.3      3.292      6.348
REMARK  Name = NuBBE_187
REMARK  22 active torsions:
REMARK  status: ('A' for Active; 'I' for Inactive)
REMARK    1  A    between atoms: O_1  and  C_2
REMARK    2  A    between atoms: C_2  and  C_3
REMARK    3  A    between atoms: C_3  and  C_4
REMARK    4  A    between atoms: C_4  and  C_5
REMARK    5  A    between atoms: C_5  and  C_6
REMARK    6  A    between atoms: C_6  and  C_7
REMARK    7  A    between atoms: C_7  and  C_8
REMARK    8  A    between atoms: C_8  and  C_9
REMARK    9  A    between atoms: C_9  and  C_10
REMARK   10  A    between atoms: C_10  and  C_11
REMARK   11  A    between atoms: C_11  and  C_12
REMARK   12  A    between atoms: C_12  and  C_13
REMARK   13  A    between atoms: C_13  and  C_14
REMARK   14  A    between atoms: C_14  and  C_15
REMARK   15  A    between atoms: C_15  and  C_16
REMARK   16  A    between atoms: C_16  and  C_17
REMARK   17  A    between atoms: C_17  and  C_18
REMARK   18  A    between atoms: C_18  and  C_19
REMARK   19  A    between atoms: C_19  and  C_20
REMARK   20  A    between atoms: C_20  and  C_21
REMARK   21  A    between atoms: C_21  and  C_22
REMARK   22  A    between atoms: C_22  and  C_23
REMARK                            x       y       z     vdW  Elec       q    Type
REMARK                         _______ _______ _______ _____ _____    ______ ____
ROOT
ATOM      1  C   LIG A   1      -7.928  -3.207 123.762  0.00  0.00    -0.000 C 
ENDROOT
BRANCH   1   2
ATOM      2  C   LIG A   1      -9.399  -3.231 124.153  0.00  0.00    -0.000 C 
BRANCH   2   3
ATOM      3  C   LIG A   1      -9.649  -3.088 125.655  0.00  0.00    -0.000 C 
BRANCH   3   4
ATOM      4  C   LIG A   1      -8.362  -3.384 126.427  0.00  0.00    -0.000 C 
BRANCH   4   5
ATOM      5  C   LIG A   1      -8.570  -3.413 127.940  0.00  0.00    +0.000 C 
BRANCH   5   6
ATOM      6  C   LIG A   1      -7.450  -2.692 128.688  0.00  0.00    +0.000 C 
BRANCH   6   7
ATOM      7  C   LIG A   1      -7.967  -2.025 129.964  0.00  0.00    +0.005 C 
BRANCH   7   8
ATOM      8  C   LIG A   1      -6.979  -1.057 130.630  0.00  0.00    +0.035 C 
BRANCH   8   9
ATOM      9  C   LIG A   1      -7.105   0.435 130.409  0.00  0.00    -0.044 A 
ATOM     10  C   LIG A   1      -6.037   1.311 130.262  0.00  0.00    +0.053 A 
ATOM     11  C   LIG A   1      -6.367   2.639 130.058  0.00  0.00    +0.167 A 
ATOM     12  O   LIG A   1      -5.561   3.619 129.674  0.00  0.00    -0.453 OA
ATOM     13  C   LIG A   1      -6.355   4.821 129.819  0.00  0.00    +0.466 C 
ATOM     14  O   LIG A   1      -7.719   4.507 129.964  0.00  0.00    -0.453 OA
ATOM     15  C   LIG A   1      -7.625   3.160 130.096  0.00  0.00    +0.166 A 
ATOM     16  C   LIG A   1      -8.681   2.344 130.220  0.00  0.00    +0.050 A 
ATOM     17  C   LIG A   1      -8.421   0.982 130.366  0.00  0.00    +0.007 A 
ENDBRANCH   8   9
ENDBRANCH   7   8
ENDBRANCH   6   7
ENDBRANCH   5   6
ENDBRANCH   4   5
ENDBRANCH   3   4
ENDBRANCH   2   3
ENDBRANCH   1   2
BRANCH   1  18
ATOM     18  C   LIG A   1      -7.637  -1.909 122.977  0.00  0.00    -0.000 C 
BRANCH  18  19
ATOM     19  C   LIG A   1      -6.443  -1.153 123.510  0.00  0.00    -0.000 C 
BRANCH  19  20
ATOM     20  C   LIG A   1      -5.607  -1.704 124.634  0.00  0.00    -0.000 C 
BRANCH  20  21
ATOM     21  C   LIG A   1      -5.544  -0.774 125.871  0.00  0.00    -0.000 C 
BRANCH  21  22
ATOM     22  C   LIG A   1      -5.913   0.733 125.875  0.00  0.00    -0.000 C 
BRANCH  22  23
ATOM     23  C   LIG A   1      -7.105   1.285 126.680  0.00  0.00    -0.000 C 
BRANCH  23  24
ATOM     24  C   LIG A   1      -8.476   0.603 126.790  0.00  0.00    -0.000 C 
BRANCH  24  25
ATOM     25  C   LIG A   1      -9.268   0.245 125.492  0.00  0.00    -0.000 C 
BRANCH  25  26
ATOM     26  C   LIG A   1      -9.924   1.281 124.498  0.00  0.00    +0.000 C 
BRANCH  26  27
ATOM     27  C   LIG A   1      -9.570   1.394 123.010  0.00  0.00    +0.000 C 
BRANCH  27  28
ATOM     28  C   LIG A   1      -8.779   2.636 122.605  0.00  0.00    +0.011 C 
BRANCH  28  29
ATOM     29  C   LIG A   1      -7.342   2.431 123.039  0.00  0.00    +0.120 C 
BRANCH  29  30
ATOM     30  C   LIG A   1      -6.910   3.642 123.538  0.00  0.00    +0.305 C 
ATOM     31  O   LIG A   1      -5.680   4.056 123.488  0.00  0.00    -0.251 OA
BRANCH  30  32
ATOM     32  O   LIG A   1      -7.907   4.216 124.237  0.00  0.00    -0.481 OA
ATOM     33  H   LIG A   1      -8.742   3.905 123.736  0.00  0.00    +0.295 HD
ENDBRANCH  30  32
ENDBRANCH  29  30
ENDBRANCH  28  29
ENDBRANCH  27  28
ENDBRANCH  26  27
ENDBRANCH  25  26
ENDBRANCH  24  25
ENDBRANCH  23  24
ENDBRANCH  22  23
ENDBRANCH  21  22
ENDBRANCH  20  21
ENDBRANCH  19  20
ENDBRANCH  18  19
ENDBRANCH   1  18
TORSDOF 22
ENDMDL
MODEL 4
REMARK VINA RESULT:      -6.3      2.920      6.672
REMARK  Name = NuBBE_187
REMARK  22 active torsions:
REMARK  status: ('A' for Active; 'I' for Inactive)
REMARK    1  A    between atoms: O_1  and  C_2
REMARK    2  A    between atoms: C_2  and  C_3
REMARK    3  A    between atoms: C_3  and  C_4
REMARK    4  A    between atoms: C_4  and  C_5
REMARK    5  A    between atoms: C_5  and  C_6
REMARK    6  A    between atoms: C_6  and  C_7
REMARK    7  A    between atoms: C_7  and  C_8
REMARK    8  A    between atoms: C_8  and  C_9
REMARK    9  A    between atoms: C_9  and  C_10
REMARK   10  A    between atoms: C_10  and  C_11
REMARK   11  A    between atoms: C_11  and  C_12
REMARK   12  A    between atoms: C_12  and  C_13
REMARK   13  A    between atoms: C_13  and  C_14
REMARK   14  A    between atoms: C_14  and  C_15
REMARK   15  A    between atoms: C_15  and  C_16
REMARK   16  A    between atoms: C_16  and  C_17
REMARK   17  A    between atoms: C_17  and  C_18
REMARK   18  A    between atoms: C_18  and  C_19
REMARK   19  A    between atoms: C_19  and  C_20
REMARK   20  A    between atoms: C_20  and  C_21
REMARK   21  A    between atoms: C_21  and  C_22
REMARK   22  A    between atoms: C_22  and  C_23
REMARK                            x       y       z     vdW  Elec       q    Type
REMARK                         _______ _______ _______ _____ _____    ______ ____
ROOT
ATOM      1  C   LIG A   1      -7.656  -3.834 124.372  0.00  0.00    -0.000 C 
ENDROOT
BRANCH   1   2
ATOM      2  C   LIG A   1      -9.057  -3.243 124.429  0.00  0.00    -0.000 C 
BRANCH   2   3
ATOM      3  C   LIG A   1      -9.532  -2.896 125.842  0.00  0.00    -0.000 C 
BRANCH   3   4
ATOM      4  C   LIG A   1      -8.408  -3.156 126.846  0.00  0.00    -0.000 C 
BRANCH   4   5
ATOM      5  C   LIG A   1      -8.908  -3.789 128.145  0.00  0.00    +0.000 C 
BRANCH   5   6
ATOM      6  C   LIG A   1      -8.242  -3.175 129.376  0.00  0.00    +0.000 C 
BRANCH   6   7
ATOM      7  C   LIG A   1      -7.084  -2.255 128.986  0.00  0.00    +0.005 C 
BRANCH   7   8
ATOM      8  C   LIG A   1      -6.726  -1.192 130.035  0.00  0.00    +0.035 C 
BRANCH   8   9
ATOM      9  C   LIG A   1      -7.691  -0.067 130.342  0.00  0.00    -0.044 A 
ATOM     10  C   LIG A   1      -7.859   1.071 129.564  0.00  0.00    +0.053 A 
ATOM     11  C   LIG A   1      -8.802   1.978 130.014  0.00  0.00    +0.167 A 
ATOM     12  O   LIG A   1      -9.304   3.013 129.354  0.00  0.00    -0.453 OA
ATOM     13  C   LIG A   1     -10.076   3.735 130.342  0.00  0.00    +0.466 C 
ATOM     14  O   LIG A   1     -10.296   2.943 131.484  0.00  0.00    -0.453 OA
ATOM     15  C   LIG A   1      -9.486   1.896 131.189  0.00  0.00    +0.166 A 
ATOM     16  C   LIG A   1      -9.362   0.805 131.958  0.00  0.00    +0.050 A 
ATOM     17  C   LIG A   1      -8.473  -0.180 131.529  0.00  0.00    +0.007 A 
ENDBRANCH   8   9
ENDBRANCH   7   8
ENDBRANCH   6   7
ENDBRANCH   5   6
ENDBRANCH   4   5
ENDBRANCH   3   4
ENDBRANCH   2   3
ENDBRANCH   1   2
BRANCH   1  18
ATOM     18  C   LIG A   1      -6.717  -2.836 123.658  0.00  0.00    -0.000 C 
BRANCH  18  19
ATOM     19  C   LIG A   1      -5.458  -2.548 124.440  0.00  0.00    -0.000 C 
BRANCH  19  20
ATOM     20  C   LIG A   1      -5.388  -1.403 125.415  0.00  0.00    -0.000 C 
BRANCH  20  21
ATOM     21  C   LIG A   1      -6.530  -0.372 125.243  0.00  0.00    -0.000 C 
BRANCH  21  22
ATOM     22  C   LIG A   1      -6.895   0.736 126.266  0.00  0.00    -0.000 C 
BRANCH  22  23
ATOM     23  C   LIG A   1      -5.943   1.904 126.587  0.00  0.00    -0.000 C 
BRANCH  23  24
ATOM     24  C   LIG A   1      -5.277   2.803 125.537  0.00  0.00    -0.000 C 
BRANCH  24  25
ATOM     25  C   LIG A   1      -6.154   3.773 124.682  0.00  0.00    -0.000 C 
BRANCH  25  26
ATOM     26  C   LIG A   1      -6.236   3.793 123.106  0.00  0.00    +0.000 C 
BRANCH  26  27
ATOM     27  C   LIG A   1      -7.288   3.034 122.287  0.00  0.00    +0.000 C 
BRANCH  27  28
ATOM     28  C   LIG A   1      -7.904   1.810 122.962  0.00  0.00    +0.011 C 
BRANCH  28  29
ATOM     29  C   LIG A   1      -9.303   2.183 123.409  0.00  0.00    +0.120 C 
BRANCH  29  30
ATOM     30  C   LIG A   1     -10.019   1.005 123.470  0.00  0.00    +0.305 C 
ATOM     31  O   LIG A   1     -10.669   0.492 122.468  0.00  0.00    -0.251 OA
BRANCH  30  32
ATOM     32  O   LIG A   1     -10.089   0.593 124.749  0.00  0.00    -0.481 OA
ATOM     33  H   LIG A   1      -9.762  -0.374 124.693  0.00  0.00    +0.295 HD
ENDBRANCH  30  32
ENDBRANCH  29  30
ENDBRANCH  28  29
ENDBRANCH  27  28
ENDBRANCH  26  27
ENDBRANCH  25  26
ENDBRANCH  24  25
ENDBRANCH  23  24
ENDBRANCH  22  23
ENDBRANCH  21  22
ENDBRANCH  20  21
ENDBRANCH  19  20
ENDBRANCH  18  19
ENDBRANCH   1  18
TORSDOF 22
ENDMDL
MODEL 5
REMARK VINA RESULT:      -6.2      2.028      8.635
REMARK  Name = NuBBE_187
REMARK  22 active torsions:
REMARK  status: ('A' for Active; 'I' for Inactive)
REMARK    1  A    between atoms: O_1  and  C_2
REMARK    2  A    between atoms: C_2  and  C_3
REMARK    3  A    between atoms: C_3  and  C_4
REMARK    4  A    between atoms: C_4  and  C_5
REMARK    5  A    between atoms: C_5  and  C_6
REMARK    6  A    between atoms: C_6  and  C_7
REMARK    7  A    between atoms: C_7  and  C_8
REMARK    8  A    between atoms: C_8  and  C_9
REMARK    9  A    between atoms: C_9  and  C_10
REMARK   10  A    between atoms: C_10  and  C_11
REMARK   11  A    between atoms: C_11  and  C_12
REMARK   12  A    between atoms: C_12  and  C_13
REMARK   13  A    between atoms: C_13  and  C_14
REMARK   14  A    between atoms: C_14  and  C_15
REMARK   15  A    between atoms: C_15  and  C_16
REMARK   16  A    between atoms: C_16  and  C_17
REMARK   17  A    between atoms: C_17  and  C_18
REMARK   18  A    between atoms: C_18  and  C_19
REMARK   19  A    between atoms: C_19  and  C_20
REMARK   20  A    between atoms: C_20  and  C_21
REMARK   21  A    between atoms: C_21  and  C_22
REMARK   22  A    between atoms: C_22  and  C_23
REMARK                            x       y       z     vdW  Elec       q    Type
REMARK                         _______ _______ _______ _____ _____    ______ ____
ROOT
ATOM      1  C   LIG A   1      -7.911  -1.795 130.577  0.00  0.00    -0.000 C 
ENDROOT
BRANCH   1   2
ATOM      2  C   LIG A   1      -7.994  -0.275 130.585  0.00  0.00    -0.000 C 
BRANCH   2   3
ATOM      3  C   LIG A   1      -8.595   0.312 131.864  0.00  0.00    -0.000 C 
BRANCH   3   4
ATOM      4  C   LIG A   1      -9.354   1.599 131.538  0.00  0.00    -0.000 C 
BRANCH   4   5
ATOM      5  C   LIG A   1      -9.653   2.442 132.777  0.00  0.00    +0.000 C 
BRANCH   5   6
ATOM      6  C   LIG A   1      -8.377   2.927 133.464  0.00  0.00    +0.000 C 
BRANCH   6   7
ATOM      7  C   LIG A   1      -8.528   4.358 133.980  0.00  0.00    +0.005 C 
BRANCH   7   8
ATOM      8  C   LIG A   1      -8.065   5.447 133.002  0.00  0.00    +0.035 C 
BRANCH   8   9
ATOM      9  C   LIG A   1      -9.045   6.068 132.030  0.00  0.00    -0.044 A 
ATOM     10  C   LIG A   1      -8.692   6.758 130.877  0.00  0.00    +0.053 A 
ATOM     11  C   LIG A   1      -9.743   7.241 130.116  0.00  0.00    +0.167 A 
ATOM     12  O   LIG A   1      -9.687   7.727 128.884  0.00  0.00    -0.453 OA
ATOM     13  C   LIG A   1     -11.007   8.272 128.648  0.00  0.00    +0.466 C 
ATOM     14  O   LIG A   1     -11.921   7.807 129.610  0.00  0.00    -0.453 OA
ATOM     15  C   LIG A   1     -11.060   7.188 130.456  0.00  0.00    +0.166 A 
ATOM     16  C   LIG A   1     -11.439   6.517 131.552  0.00  0.00    +0.050 A 
ATOM     17  C   LIG A   1     -10.433   5.949 132.333  0.00  0.00    +0.007 A 
ENDBRANCH   8   9
ENDBRANCH   7   8
ENDBRANCH   6   7
ENDBRANCH   5   6
ENDBRANCH   4   5
ENDBRANCH   3   4
ENDBRANCH   2   3
ENDBRANCH   1   2
BRANCH   1  18
ATOM     18  C   LIG A   1      -7.277  -2.258 129.246  0.00  0.00    -0.000 C 
BRANCH  18  19
ATOM     19  C   LIG A   1      -8.153  -3.218 128.479  0.00  0.00    -0.000 C 
BRANCH  19  20
ATOM     20  C   LIG A   1      -8.615  -2.907 127.080  0.00  0.00    -0.000 C 
BRANCH  20  21
ATOM     21  C   LIG A   1      -8.173  -1.511 126.578  0.00  0.00    -0.000 C 
BRANCH  21  22
ATOM     22  C   LIG A   1      -6.735  -1.136 126.131  0.00  0.00    -0.000 C 
BRANCH  22  23
ATOM     23  C   LIG A   1      -5.786  -2.158 125.475  0.00  0.00    -0.000 C 
BRANCH  23  24
ATOM     24  C   LIG A   1      -6.026  -2.824 124.113  0.00  0.00    -0.000 C 
BRANCH  24  25
ATOM     25  C   LIG A   1      -6.783  -2.042 122.993  0.00  0.00    -0.000 C 
BRANCH  25  26
ATOM     26  C   LIG A   1      -8.337  -2.093 122.724  0.00  0.00    +0.000 C 
BRANCH  26  27
ATOM     27  C   LIG A   1      -9.284  -0.899 122.899  0.00  0.00    +0.000 C 
BRANCH  27  28
ATOM     28  C   LIG A   1      -8.634   0.406 123.357  0.00  0.00    +0.011 C 
BRANCH  28  29
ATOM     29  C   LIG A   1      -9.742   1.357 123.760  0.00  0.00    +0.120 C 
BRANCH  29  30
ATOM     30  C   LIG A   1      -9.141   2.372 124.477  0.00  0.00    +0.305 C 
ATOM     31  O   LIG A   1      -8.556   3.399 123.939  0.00  0.00    -0.251 OA
BRANCH  30  32
ATOM     32  O   LIG A   1      -9.094   2.029 125.778  0.00  0.00    -0.481 OA
ATOM     33  H   LIG A   1      -9.624   1.155 125.800  0.00  0.00    +0.295 HD
ENDBRANCH  30  32
ENDBRANCH  29  30
ENDBRANCH  28  29
ENDBRANCH  27  28
ENDBRANCH  26  27
ENDBRANCH  25  26
ENDBRANCH  24  25
ENDBRANCH  23  24
ENDBRANCH  22  23
ENDBRANCH  21  22
ENDBRANCH  20  21
ENDBRANCH  19  20
ENDBRANCH  18  19
ENDBRANCH   1  18
TORSDOF 22
ENDMDL
MODEL 6
REMARK VINA RESULT:      -6.1      5.054      8.619
REMARK  Name = NuBBE_187
REMARK  22 active torsions:
REMARK  status: ('A' for Active; 'I' for Inactive)
REMARK    1  A    between atoms: O_1  and  C_2
REMARK    2  A    between atoms: C_2  and  C_3
REMARK    3  A    between atoms: C_3  and  C_4
REMARK    4  A    between atoms: C_4  and  C_5
REMARK    5  A    between atoms: C_5  and  C_6
REMARK    6  A    between atoms: C_6  and  C_7
REMARK    7  A    between atoms: C_7  and  C_8
REMARK    8  A    between atoms: C_8  and  C_9
REMARK    9  A    between atoms: C_9  and  C_10
REMARK   10  A    between atoms: C_10  and  C_11
REMARK   11  A    between atoms: C_11  and  C_12
REMARK   12  A    between atoms: C_12  and  C_13
REMARK   13  A    between atoms: C_13  and  C_14
REMARK   14  A    between atoms: C_14  and  C_15
REMARK   15  A    between atoms: C_15  and  C_16
REMARK   16  A    between atoms: C_16  and  C_17
REMARK   17  A    between atoms: C_17  and  C_18
REMARK   18  A    between atoms: C_18  and  C_19
REMARK   19  A    between atoms: C_19  and  C_20
REMARK   20  A    between atoms: C_20  and  C_21
REMARK   21  A    between atoms: C_21  and  C_22
REMARK   22  A    between atoms: C_22  and  C_23
REMARK                            x       y       z     vdW  Elec       q    Type
REMARK                         _______ _______ _______ _____ _____    ______ ____
ROOT
ATOM      1  C   LIG A   1      -7.410  -1.959 123.006  0.00  0.00    -0.000 C 
ENDROOT
BRANCH   1   2
ATOM      2  C   LIG A   1      -8.015  -2.904 124.034  0.00  0.00    -0.000 C 
BRANCH   2   3
ATOM      3  C   LIG A   1      -9.413  -2.499 124.508  0.00  0.00    -0.000 C 
BRANCH   3   4
ATOM      4  C   LIG A   1      -9.795  -3.307 125.749  0.00  0.00    -0.000 C 
BRANCH   4   5
ATOM      5  C   LIG A   1      -8.604  -3.588 126.665  0.00  0.00    +0.000 C 
BRANCH   5   6
ATOM      6  C   LIG A   1      -8.226  -2.369 127.504  0.00  0.00    +0.000 C 
BRANCH   6   7
ATOM      7  C   LIG A   1      -7.180  -2.720 128.563  0.00  0.00    +0.005 C 
BRANCH   7   8
ATOM      8  C   LIG A   1      -7.720  -2.806 129.998  0.00  0.00    +0.035 C 
BRANCH   8   9
ATOM      9  C   LIG A   1      -6.880  -3.426 131.093  0.00  0.00    -0.044 A 
ATOM     10  C   LIG A   1      -6.893  -3.033 132.426  0.00  0.00    +0.053 A 
ATOM     11  C   LIG A   1      -6.056  -3.736 133.273  0.00  0.00    +0.167 A 
ATOM     12  O   LIG A   1      -6.045  -3.711 134.598  0.00  0.00    -0.453 OA
ATOM     13  C   LIG A   1      -4.859  -4.453 134.967  0.00  0.00    +0.466 C 
ATOM     14  O   LIG A   1      -4.368  -5.190 133.875  0.00  0.00    -0.453 OA
ATOM     15  C   LIG A   1      -5.161  -4.690 132.894  0.00  0.00    +0.166 A 
ATOM     16  C   LIG A   1      -5.130  -5.107 131.621  0.00  0.00    +0.050 A 
ATOM     17  C   LIG A   1      -5.996  -4.482 130.723  0.00  0.00    +0.007 A 
ENDBRANCH   8   9
ENDBRANCH   7   8
ENDBRANCH   6   7
ENDBRANCH   5   6
ENDBRANCH   4   5
ENDBRANCH   3   4
ENDBRANCH   2   3
ENDBRANCH   1   2
BRANCH   1  18
ATOM     18  C   LIG A   1      -6.091  -1.383 123.567  0.00  0.00    -0.000 C 
BRANCH  18  19
ATOM     19  C   LIG A   1      -6.281  -0.072 124.291  0.00  0.00    -0.000 C 
BRANCH  19  20
ATOM     20  C   LIG A   1      -6.845  -0.024 125.687  0.00  0.00    -0.000 C 
BRANCH  20  21
ATOM     21  C   LIG A   1      -7.876   1.112 125.899  0.00  0.00    -0.000 C 
BRANCH  21  22
ATOM     22  C   LIG A   1      -9.408   0.976 125.694  0.00  0.00    -0.000 C 
BRANCH  22  23
ATOM     23  C   LIG A   1     -10.114   1.477 124.420  0.00  0.00    -0.000 C 
BRANCH  23  24
ATOM     24  C   LIG A   1      -9.530   1.385 123.003  0.00  0.00    -0.000 C 
BRANCH  24  25
ATOM     25  C   LIG A   1      -8.868   2.644 122.357  0.00  0.00    -0.000 C 
BRANCH  25  26
ATOM     26  C   LIG A   1      -7.413   3.177 122.658  0.00  0.00    +0.000 C 
BRANCH  26  27
ATOM     27  C   LIG A   1      -6.150   2.692 121.935  0.00  0.00    +0.000 C 
BRANCH  27  28
ATOM     28  C   LIG A   1      -5.299   3.778 121.278  0.00  0.00    +0.011 C 
BRANCH  28  29
ATOM     29  C   LIG A   1      -6.055   4.291 120.070  0.00  0.00    +0.120 C 
BRANCH  29  30
ATOM     30  C   LIG A   1      -5.399   5.433 119.657  0.00  0.00    +0.305 C 
ATOM     31  O   LIG A   1      -4.720   6.211 120.445  0.00  0.00    -0.251 OA
BRANCH  30  32
ATOM     32  O   LIG A   1      -5.735   5.702 118.382  0.00  0.00    -0.481 OA
ATOM     33  H   LIG A   1      -5.521   4.824 117.903  0.00  0.00    +0.295 HD
ENDBRANCH  30  32
ENDBRANCH  29  30
ENDBRANCH  28  29
ENDBRANCH  27  28
ENDBRANCH  26  27
ENDBRANCH  25  26
ENDBRANCH  24  25
ENDBRANCH  23  24
ENDBRANCH  22  23
ENDBRANCH  21  22
ENDBRANCH  20  21
ENDBRANCH  19  20
ENDBRANCH  18  19
ENDBRANCH   1  18
TORSDOF 22
ENDMDL
MODEL 7
REMARK VINA RESULT:      -6.1      1.896      8.317
REMARK  Name = NuBBE_187
REMARK  22 active torsions:
REMARK  status: ('A' for Active; 'I' for Inactive)
REMARK    1  A    between atoms: O_1  and  C_2
REMARK    2  A    between atoms: C_2  and  C_3
REMARK    3  A    between atoms: C_3  and  C_4
REMARK    4  A    between atoms: C_4  and  C_5
REMARK    5  A    between atoms: C_5  and  C_6
REMARK    6  A    between atoms: C_6  and  C_7
REMARK    7  A    between atoms: C_7  and  C_8
REMARK    8  A    between atoms: C_8  and  C_9
REMARK    9  A    between atoms: C_9  and  C_10
REMARK   10  A    between atoms: C_10  and  C_11
REMARK   11  A    between atoms: C_11  and  C_12
REMARK   12  A    between atoms: C_12  and  C_13
REMARK   13  A    between atoms: C_13  and  C_14
REMARK   14  A    between atoms: C_14  and  C_15
REMARK   15  A    between atoms: C_15  and  C_16
REMARK   16  A    between atoms: C_16  and  C_17
REMARK   17  A    between atoms: C_17  and  C_18
REMARK   18  A    between atoms: C_18  and  C_19
REMARK   19  A    between atoms: C_19  and  C_20
REMARK   20  A    between atoms: C_20  and  C_21
REMARK   21  A    between atoms: C_21  and  C_22
REMARK   22  A    between atoms: C_22  and  C_23
REMARK                            x       y       z     vdW  Elec       q    Type
REMARK                         _______ _______ _______ _____ _____    ______ ____
ROOT
ATOM      1  C   LIG A   1      -9.002   2.761 130.062  0.00  0.00    -0.000 C 
ENDROOT
BRANCH   1   2
ATOM      2  C   LIG A   1      -9.933   2.861 131.262  0.00  0.00    -0.000 C 
BRANCH   2   3
ATOM      3  C   LIG A   1      -9.336   2.320 132.563  0.00  0.00    -0.000 C 
BRANCH   3   4
ATOM      4  C   LIG A   1      -9.313   3.422 133.623  0.00  0.00    -0.000 C 
BRANCH   4   5
ATOM      5  C   LIG A   1      -7.904   3.736 134.123  0.00  0.00    +0.000 C 
BRANCH   5   6
ATOM      6  C   LIG A   1      -7.299   4.947 133.414  0.00  0.00    +0.000 C 
BRANCH   6   7
ATOM      7  C   LIG A   1      -8.371   5.971 133.041  0.00  0.00    +0.005 C 
BRANCH   7   8
ATOM      8  C   LIG A   1      -8.422   6.336 131.551  0.00  0.00    +0.035 C 
BRANCH   8   9
ATOM      9  C   LIG A   1      -9.754   6.491 130.848  0.00  0.00    -0.044 A 
ATOM     10  C   LIG A   1      -9.916   6.642 129.476  0.00  0.00    +0.053 A 
ATOM     11  C   LIG A   1     -11.221   6.759 129.031  0.00  0.00    +0.167 A 
ATOM     12  O   LIG A   1     -11.654   6.689 127.780  0.00  0.00    -0.453 OA
ATOM     13  C   LIG A   1     -13.046   7.079 127.854  0.00  0.00    +0.466 C 
ATOM     14  O   LIG A   1     -13.505   7.049 129.183  0.00  0.00    -0.453 OA
ATOM     15  C   LIG A   1     -12.326   6.843 129.822  0.00  0.00    +0.166 A 
ATOM     16  C   LIG A   1     -12.210   6.685 131.148  0.00  0.00    +0.050 A 
ATOM     17  C   LIG A   1     -10.926   6.499 131.659  0.00  0.00    +0.007 A 
ENDBRANCH   8   9
ENDBRANCH   7   8
ENDBRANCH   6   7
ENDBRANCH   5   6
ENDBRANCH   4   5
ENDBRANCH   3   4
ENDBRANCH   2   3
ENDBRANCH   1   2
BRANCH   1  18
ATOM     18  C   LIG A   1      -7.556   2.547 130.563  0.00  0.00    -0.000 C 
BRANCH  18  19
ATOM     19  C   LIG A   1      -7.000   1.192 130.196  0.00  0.00    -0.000 C 
BRANCH  19  20
ATOM     20  C   LIG A   1      -7.897   0.083 129.716  0.00  0.00    -0.000 C 
BRANCH  20  21
ATOM     21  C   LIG A   1      -7.126  -1.126 129.128  0.00  0.00    -0.000 C 
BRANCH  21  22
ATOM     22  C   LIG A   1      -7.780  -2.351 128.438  0.00  0.00    -0.000 C 
BRANCH  22  23
ATOM     23  C   LIG A   1      -8.281  -2.304 126.981  0.00  0.00    -0.000 C 
BRANCH  23  24
ATOM     24  C   LIG A   1      -7.710  -1.387 125.890  0.00  0.00    -0.000 C 
BRANCH  24  25
ATOM     25  C   LIG A   1      -6.162  -1.244 125.733  0.00  0.00    -0.000 C 
BRANCH  25  26
ATOM     26  C   LIG A   1      -5.315   0.040 126.089  0.00  0.00    +0.000 C 
BRANCH  26  27
ATOM     27  C   LIG A   1      -5.912   1.344 126.631  0.00  0.00    +0.000 C 
BRANCH  27  28
ATOM     28  C   LIG A   1      -6.749   2.156 125.645  0.00  0.00    +0.011 C 
BRANCH  28  29
ATOM     29  C   LIG A   1      -7.809   2.896 126.436  0.00  0.00    +0.120 C 
BRANCH  29  30
ATOM     30  C   LIG A   1      -7.787   4.201 125.989  0.00  0.00    +0.305 C 
ATOM     31  O   LIG A   1      -6.791   5.016 126.163  0.00  0.00    -0.251 OA
BRANCH  30  32
ATOM     32  O   LIG A   1      -9.008   4.534 125.532  0.00  0.00    -0.481 OA
ATOM     33  H   LIG A   1      -9.002   4.162 124.580  0.00  0.00    +0.295 HD
ENDBRANCH  30  32
ENDBRANCH  29  30
ENDBRANCH  28  29
ENDBRANCH  27  28
ENDBRANCH  26  27
ENDBRANCH  25  26
ENDBRANCH  24  25
ENDBRANCH  23  24
ENDBRANCH  22  23
ENDBRANCH  21  22
ENDBRANCH  20  21
ENDBRANCH  19  20
ENDBRANCH  18  19
ENDBRANCH   1  18
TORSDOF 22
ENDMDL
MODEL 8
REMARK VINA RESULT:      -6.1      2.642      9.182
REMARK  Name = NuBBE_187
REMARK  22 active torsions:
REMARK  status: ('A' for Active; 'I' for Inactive)
REMARK    1  A    between atoms: O_1  and  C_2
REMARK    2  A    between atoms: C_2  and  C_3
REMARK    3  A    between atoms: C_3  and  C_4
REMARK    4  A    between atoms: C_4  and  C_5
REMARK    5  A    between atoms: C_5  and  C_6
REMARK    6  A    between atoms: C_6  and  C_7
REMARK    7  A    between atoms: C_7  and  C_8
REMARK    8  A    between atoms: C_8  and  C_9
REMARK    9  A    between atoms: C_9  and  C_10
REMARK   10  A    between atoms: C_10  and  C_11
REMARK   11  A    between atoms: C_11  and  C_12
REMARK   12  A    between atoms: C_12  and  C_13
REMARK   13  A    between atoms: C_13  and  C_14
REMARK   14  A    between atoms: C_14  and  C_15
REMARK   15  A    between atoms: C_15  and  C_16
REMARK   16  A    between atoms: C_16  and  C_17
REMARK   17  A    between atoms: C_17  and  C_18
REMARK   18  A    between atoms: C_18  and  C_19
REMARK   19  A    between atoms: C_19  and  C_20
REMARK   20  A    between atoms: C_20  and  C_21
REMARK   21  A    between atoms: C_21  and  C_22
REMARK   22  A    between atoms: C_22  and  C_23
REMARK                            x       y       z     vdW  Elec       q    Type
REMARK                         _______ _______ _______ _____ _____    ______ ____
ROOT
ATOM      1  C   LIG A   1      -7.613   2.911 128.851  0.00  0.00    -0.000 C 
ENDROOT
BRANCH   1   2
ATOM      2  C   LIG A   1      -8.307   3.457 130.091  0.00  0.00    -0.000 C 
BRANCH   2   3
ATOM      3  C   LIG A   1      -9.795   3.113 130.176  0.00  0.00    -0.000 C 
BRANCH   3   4
ATOM      4  C   LIG A   1     -10.126   2.575 131.569  0.00  0.00    -0.000 C 
BRANCH   4   5
ATOM      5  C   LIG A   1      -8.899   2.475 132.474  0.00  0.00    +0.000 C 
BRANCH   5   6
ATOM      6  C   LIG A   1      -9.017   3.374 133.704  0.00  0.00    +0.000 C 
BRANCH   6   7
ATOM      7  C   LIG A   1      -7.997   4.513 133.665  0.00  0.00    +0.005 C 
BRANCH   7   8
ATOM      8  C   LIG A   1      -8.604   5.915 133.515  0.00  0.00    +0.035 C 
BRANCH   8   9
ATOM      9  C   LIG A   1      -9.403   6.273 132.280  0.00  0.00    -0.044 A 
ATOM     10  C   LIG A   1      -8.858   6.710 131.079  0.00  0.00    +0.053 A 
ATOM     11  C   LIG A   1      -9.763   6.977 130.066  0.00  0.00    +0.167 A 
ATOM     12  O   LIG A   1      -9.497   7.186 128.785  0.00  0.00    -0.453 OA
ATOM     13  C   LIG A   1     -10.757   7.617 128.217  0.00  0.00    +0.466 C 
ATOM     14  O   LIG A   1     -11.823   7.335 129.091  0.00  0.00    -0.453 OA
ATOM     15  C   LIG A   1     -11.119   6.947 130.184  0.00  0.00    +0.166 A 
ATOM     16  C   LIG A   1     -11.680   6.516 131.322  0.00  0.00    +0.050 A 
ATOM     17  C   LIG A   1     -10.822   6.169 132.365  0.00  0.00    +0.007 A 
ENDBRANCH   8   9
ENDBRANCH   7   8
ENDBRANCH   6   7
ENDBRANCH   5   6
ENDBRANCH   4   5
ENDBRANCH   3   4
ENDBRANCH   2   3
ENDBRANCH   1   2
BRANCH   1  18
ATOM     18  C   LIG A   1      -8.433   1.725 128.295  0.00  0.00    -0.000 C 
BRANCH  18  19
ATOM     19  C   LIG A   1      -7.886   0.382 128.715  0.00  0.00    -0.000 C 
BRANCH  19  20
ATOM     20  C   LIG A   1      -7.253   0.183 130.066  0.00  0.00    -0.000 C 
BRANCH  20  21
ATOM     21  C   LIG A   1      -8.076  -0.732 131.006  0.00  0.00    -0.000 C 
BRANCH  21  22
ATOM     22  C   LIG A   1      -7.528  -1.989 131.732  0.00  0.00    -0.000 C 
BRANCH  22  23
ATOM     23  C   LIG A   1      -7.205  -3.296 130.982  0.00  0.00    -0.000 C 
BRANCH  23  24
ATOM     24  C   LIG A   1      -6.430  -3.376 129.659  0.00  0.00    -0.000 C 
BRANCH  24  25
ATOM     25  C   LIG A   1      -7.175  -3.115 128.311  0.00  0.00    -0.000 C 
BRANCH  25  26
ATOM     26  C   LIG A   1      -8.613  -3.647 127.936  0.00  0.00    +0.000 C 
BRANCH  26  27
ATOM     27  C   LIG A   1      -9.341  -3.315 126.627  0.00  0.00    +0.000 C 
BRANCH  27  28
ATOM     28  C   LIG A   1      -8.499  -2.638 125.547  0.00  0.00    +0.011 C 
BRANCH  28  29
ATOM     29  C   LIG A   1      -7.899  -3.724 124.679  0.00  0.00    +0.120 C 
BRANCH  29  30
ATOM     30  C   LIG A   1      -6.672  -3.252 124.259  0.00  0.00    +0.305 C 
ATOM     31  O   LIG A   1      -5.649  -4.009 123.996  0.00  0.00    -0.251 OA
BRANCH  30  32
ATOM     32  O   LIG A   1      -6.655  -1.910 124.355  0.00  0.00    -0.481 OA
ATOM     33  H   LIG A   1      -7.329  -1.729 125.102  0.00  0.00    +0.295 HD
ENDBRANCH  30  32
ENDBRANCH  29  30
ENDBRANCH  28  29
ENDBRANCH  27  28
ENDBRANCH  26  27
ENDBRANCH  25  26
ENDBRANCH  24  25
ENDBRANCH  23  24
ENDBRANCH  22  23
ENDBRANCH  21  22
ENDBRANCH  20  21
ENDBRANCH  19  20
ENDBRANCH  18  19
ENDBRANCH   1  18
TORSDOF 22
ENDMDL
MODEL 9
REMARK VINA RESULT:      -6.1      4.187      7.971
REMARK  Name = NuBBE_187
REMARK  22 active torsions:
REMARK  status: ('A' for Active; 'I' for Inactive)
REMARK    1  A    between atoms: O_1  and  C_2
REMARK    2  A    between atoms: C_2  and  C_3
REMARK    3  A    between atoms: C_3  and  C_4
REMARK    4  A    between atoms: C_4  and  C_5
REMARK    5  A    between atoms: C_5  and  C_6
REMARK    6  A    between atoms: C_6  and  C_7
REMARK    7  A    between atoms: C_7  and  C_8
REMARK    8  A    between atoms: C_8  and  C_9
REMARK    9  A    between atoms: C_9  and  C_10
REMARK   10  A    between atoms: C_10  and  C_11
REMARK   11  A    between atoms: C_11  and  C_12
REMARK   12  A    between atoms: C_12  and  C_13
REMARK   13  A    between atoms: C_13  and  C_14
REMARK   14  A    between atoms: C_14  and  C_15
REMARK   15  A    between atoms: C_15  and  C_16
REMARK   16  A    between atoms: C_16  and  C_17
REMARK   17  A    between atoms: C_17  and  C_18
REMARK   18  A    between atoms: C_18  and  C_19
REMARK   19  A    between atoms: C_19  and  C_20
REMARK   20  A    between atoms: C_20  and  C_21
REMARK   21  A    between atoms: C_21  and  C_22
REMARK   22  A    between atoms: C_22  and  C_23
REMARK                            x       y       z     vdW  Elec       q    Type
REMARK                         _______ _______ _______ _____ _____    ______ ____
ROOT
ATOM      1  C   LIG A   1      -7.789  -1.996 128.889  0.00  0.00    -0.000 C 
ENDROOT
BRANCH   1   2
ATOM      2  C   LIG A   1      -6.322  -1.595 128.923  0.00  0.00    -0.000 C 
BRANCH   2   3
ATOM      3  C   LIG A   1      -5.352  -2.745 128.641  0.00  0.00    -0.000 C 
BRANCH   3   4
ATOM      4  C   LIG A   1      -4.078  -2.564 129.467  0.00  0.00    -0.000 C 
BRANCH   4   5
ATOM      5  C   LIG A   1      -3.871  -3.679 130.492  0.00  0.00    +0.000 C 
BRANCH   5   6
ATOM      6  C   LIG A   1      -5.098  -4.581 130.615  0.00  0.00    +0.000 C 
BRANCH   6   7
ATOM      7  C   LIG A   1      -5.701  -4.518 132.018  0.00  0.00    +0.005 C 
BRANCH   7   8
ATOM      8  C   LIG A   1      -5.348  -3.254 132.815  0.00  0.00    +0.035 C 
BRANCH   8   9
ATOM      9  C   LIG A   1      -6.109  -1.967 132.581  0.00  0.00    -0.044 A 
ATOM     10  C   LIG A   1      -7.492  -1.864 132.497  0.00  0.00    +0.053 A 
ATOM     11  C   LIG A   1      -7.992  -0.591 132.288  0.00  0.00    +0.167 A 
ATOM     12  O   LIG A   1      -9.253  -0.196 132.391  0.00  0.00    -0.453 OA
ATOM     13  C   LIG A   1      -9.254   1.155 131.871  0.00  0.00    +0.466 C 
ATOM     14  O   LIG A   1      -7.944   1.659 131.780  0.00  0.00    -0.453 OA
ATOM     15  C   LIG A   1      -7.250   0.526 132.056  0.00  0.00    +0.166 A 
ATOM     16  C   LIG A   1      -5.914   0.469 132.144  0.00  0.00    +0.050 A 
ATOM     17  C   LIG A   1      -5.345  -0.774 132.416  0.00  0.00    +0.007 A 
ENDBRANCH   8   9
ENDBRANCH   7   8
ENDBRANCH   6   7
ENDBRANCH   5   6
ENDBRANCH   4   5
ENDBRANCH   3   4
ENDBRANCH   2   3
ENDBRANCH   1   2
BRANCH   1  18
ATOM     18  C   LIG A   1      -7.890  -3.514 128.615  0.00  0.00    -0.000 C 
BRANCH  18  19
ATOM     19  C   LIG A   1      -8.918  -3.856 127.564  0.00  0.00    -0.000 C 
BRANCH  19  20
ATOM     20  C   LIG A   1      -9.037  -3.054 126.296  0.00  0.00    -0.000 C 
BRANCH  20  21
ATOM     21  C   LIG A   1      -8.328  -3.705 125.082  0.00  0.00    -0.000 C 
BRANCH  21  22
ATOM     22  C   LIG A   1      -6.979  -3.234 124.478  0.00  0.00    -0.000 C 
BRANCH  22  23
ATOM     23  C   LIG A   1      -6.566  -1.750 124.445  0.00  0.00    -0.000 C 
BRANCH  23  24
ATOM     24  C   LIG A   1      -5.666  -1.070 125.485  0.00  0.00    -0.000 C 
BRANCH  24  25
ATOM     25  C   LIG A   1      -5.791   0.468 125.727  0.00  0.00    -0.000 C 
BRANCH  25  26
ATOM     26  C   LIG A   1      -7.141   1.280 125.818  0.00  0.00    +0.000 C 
BRANCH  26  27
ATOM     27  C   LIG A   1      -8.421   0.756 126.480  0.00  0.00    +0.000 C 
BRANCH  27  28
ATOM     28  C   LIG A   1      -9.520   0.284 125.529  0.00  0.00    +0.011 C 
BRANCH  28  29
ATOM     29  C   LIG A   1      -9.831   1.423 124.580  0.00  0.00    +0.120 C 
BRANCH  29  30
ATOM     30  C   LIG A   1      -9.903   0.870 123.319  0.00  0.00    +0.305 C 
ATOM     31  O   LIG A   1     -11.003   0.466 122.759  0.00  0.00    -0.251 OA
BRANCH  30  32
ATOM     32  O   LIG A   1      -8.657   0.648 122.860  0.00  0.00    -0.481 OA
ATOM     33  H   LIG A   1      -8.096   0.667 123.714  0.00  0.00    +0.295 HD
ENDBRANCH  30  32
ENDBRANCH  29  30
ENDBRANCH  28  29
ENDBRANCH  27  28
ENDBRANCH  26  27
ENDBRANCH  25  26
ENDBRANCH  24  25
ENDBRANCH  23  24
ENDBRANCH  22  23
ENDBRANCH  21  22
ENDBRANCH  20  21
ENDBRANCH  19  20
ENDBRANCH  18  19
ENDBRANCH   1  18
TORSDOF 22
ENDMDL
