MODEL 1
REMARK VINA RESULT:      -8.0      0.000      0.000
REMARK  Name = NuBBE_987
REMARK  28 active torsions:
REMARK  status: ('A' for Active; 'I' for Inactive)
REMARK    1  A    between atoms: C_1  and  C_2
REMARK    2  A    between atoms: C_5  and  O_7
REMARK    3  A    between atoms: O_7  and  C_8
REMARK    4  A    between atoms: C_8  and  C_9
REMARK    5  A    between atoms: C_9  and  C_10
REMARK    6  A    between atoms: C_10  and  C_11
REMARK    7  A    between atoms: C_11  and  C_12
REMARK    8  A    between atoms: C_12  and  C_13
REMARK    9  A    between atoms: C_13  and  C_14
REMARK   10  A    between atoms: C_14  and  C_15
REMARK   11  A    between atoms: C_15  and  C_16
REMARK   12  A    between atoms: C_16  and  C_17
REMARK   13  A    between atoms: C_17  and  C_18
REMARK   14  A    between atoms: C_18  and  C_19
REMARK   15  A    between atoms: C_19  and  C_20
REMARK   16  A    between atoms: C_20  and  C_21
REMARK   17  A    between atoms: C_21  and  C_22
REMARK   18  A    between atoms: C_22  and  C_23
REMARK   19  A    between atoms: C_32  and  O_34
REMARK   20  A    between atoms: C_35  and  C_36
REMARK   21  A    between atoms: C_40  and  C_42
REMARK   22  A    between atoms: C_42  and  C_44
REMARK   23  A    between atoms: C_42  and  C_45
REMARK   24  A    between atoms: C_45  and  C_46
REMARK   25  A    between atoms: C_46  and  C_47
REMARK   26  A    between atoms: C_47  and  C_48
REMARK   27  A    between atoms: C_48  and  C_49
REMARK   28  A    between atoms: C_48  and  C_50
REMARK                            x       y       z     vdW  Elec       q    Type
REMARK                         _______ _______ _______ _____ _____    ______ ____
ROOT
ATOM      1  C   LIG A   1      -4.630   4.975 128.683  0.00  0.00    +0.016 C 
ATOM      2  C   LIG A   1      -3.649   3.823 128.904  0.00  0.00    -0.008 C 
ATOM      3  C   LIG A   1      -4.243   2.403 128.657  0.00  0.00    -0.064 C 
ATOM      4  C   LIG A   1      -4.742   2.052 127.241  0.00  0.00    +0.075 C 
ATOM      5  C   LIG A   1      -4.676   3.179 126.188  0.00  0.00    +0.180 C 
ATOM      6  C   LIG A   1      -3.249   3.818 126.310  0.00  0.00    +0.046 C 
ATOM      7  C   LIG A   1      -2.608   3.981 127.761  0.00  0.00    +0.015 C 
ATOM      8  C   LIG A   1      -4.315   1.476 129.647  0.00  0.00    -0.027 C 
ATOM      9  C   LIG A   1      -4.156   1.798 131.139  0.00  0.00    +0.031 C 
ATOM     10  C   LIG A   1      -4.374   3.330 131.288  0.00  0.00    +0.001 C 
ATOM     11  C   LIG A   1      -3.208   3.983 130.464  0.00  0.00    +0.005 C 
ATOM     12  C   LIG A   1      -2.865   5.423 130.918  0.00  0.00    +0.036 C 
ATOM     13  C   LIG A   1      -3.530   5.991 132.231  0.00  0.00    +0.121 C 
ATOM     14  C   LIG A   1      -5.065   5.549 132.540  0.00  0.00    +0.000 C 
ATOM     15  C   LIG A   1      -6.010   6.304 131.576  0.00  0.00    +0.014 C 
ATOM     16  C   LIG A   1      -4.946   3.994 132.578  0.00  0.00    +0.001 C 
ATOM     17  C   LIG A   1      -4.294   3.773 133.972  0.00  0.00    +0.005 C 
ATOM     18  C   LIG A   1      -4.757   4.946 134.883  0.00  0.00    +0.005 C 
ATOM     19  C   LIG A   1      -5.705   5.774 134.036  0.00  0.00    +0.001 C 
ENDROOT
BRANCH  19  20
ATOM     20  C   LIG A   1      -7.311   5.383 134.381  0.00  0.00    -0.010 C 
ATOM     21  C   LIG A   1      -7.865   6.135 135.636  0.00  0.00    +0.008 C 
BRANCH  20  22
ATOM     22  C   LIG A   1      -7.910   3.844 134.506  0.00  0.00    +0.008 C 
BRANCH  22  23
ATOM     23  C   LIG A   1      -8.433   3.030 133.222  0.00  0.00    +0.030 C 
BRANCH  23  24
ATOM     24  C   LIG A   1      -8.768   3.603 131.746  0.00  0.00    -0.074 C 
ATOM     25  C   LIG A   1      -9.498   4.734 131.581  0.00  0.00    +0.008 C 
BRANCH  24  26
ATOM     26  C   LIG A   1      -7.906   3.073 130.539  0.00  0.00    +0.008 C 
ATOM     27  C   LIG A   1      -8.028   1.604 130.054  0.00  0.00    +0.012 C 
ATOM     28  C   LIG A   1      -7.952   3.931 129.245  0.00  0.00    +0.012 C 
ENDBRANCH  24  26
ENDBRANCH  23  24
ENDBRANCH  22  23
ENDBRANCH  20  22
ENDBRANCH  19  20
BRANCH  13  29
ATOM     29  O   LIG A   1      -3.378   7.414 132.213  0.00  0.00    -0.391 OA
ATOM     30  H   LIG A   1      -4.199   7.810 132.564  0.00  0.00    +0.210 HD
ENDBRANCH  13  29
BRANCH   5  31
ATOM     31  O   LIG A   1      -5.818   4.114 126.396  0.00  0.00    -0.461 OA
BRANCH  31  32
ATOM     32  C   LIG A   1      -6.530   4.727 125.483  0.00  0.00    +0.307 C 
ATOM     33  O   LIG A   1      -6.275   5.961 125.010  0.00  0.00    -0.251 OA
BRANCH  32  34
ATOM     34  C   LIG A   1      -7.862   3.979 125.213  0.00  0.00    +0.120 C 
BRANCH  34  35
ATOM     35  C   LIG A   1      -7.926   2.841 124.137  0.00  0.00    +0.011 C 
BRANCH  35  36
ATOM     36  C   LIG A   1      -9.326   2.176 123.834  0.00  0.00    +0.000 C 
BRANCH  36  37
ATOM     37  C   LIG A   1      -9.685   0.729 124.351  0.00  0.00    +0.000 C 
BRANCH  37  38
ATOM     38  C   LIG A   1      -9.401   0.598 125.858  0.00  0.00    -0.000 C 
BRANCH  38  39
ATOM     39  C   LIG A   1      -8.207  -0.148 126.563  0.00  0.00    -0.000 C 
BRANCH  39  40
ATOM     40  C   LIG A   1      -8.216  -1.672 126.231  0.00  0.00    -0.000 C 
BRANCH  40  41
ATOM     41  C   LIG A   1      -9.381  -2.709 125.988  0.00  0.00    -0.000 C 
BRANCH  41  42
ATOM     42  C   LIG A   1      -9.165  -3.630 124.616  0.00  0.00    -0.000 C 
BRANCH  42  43
ATOM     43  C   LIG A   1      -9.228  -2.823 123.256  0.00  0.00    -0.000 C 
BRANCH  43  44
ATOM     44  C   LIG A   1      -8.144  -1.924 122.520  0.00  0.00    -0.000 C 
BRANCH  44  45
ATOM     45  C   LIG A   1      -6.608  -1.802 122.833  0.00  0.00    -0.000 C 
BRANCH  45  46
ATOM     46  C   LIG A   1      -5.766  -2.765 123.727  0.00  0.00    -0.000 C 
BRANCH  46  47
ATOM     47  C   LIG A   1      -4.433  -3.356 123.256  0.00  0.00    -0.003 C 
ATOM     48  C   LIG A   1      -4.132  -4.770 123.682  0.00  0.00    +0.004 C 
ENDBRANCH  46  47
ENDBRANCH  45  46
ENDBRANCH  44  45
ENDBRANCH  43  44
ENDBRANCH  42  43
ENDBRANCH  41  42
ENDBRANCH  40  41
ENDBRANCH  39  40
ENDBRANCH  38  39
ENDBRANCH  37  38
ENDBRANCH  36  37
ENDBRANCH  35  36
ENDBRANCH  34  35
ENDBRANCH  32  34
ENDBRANCH  31  32
ENDBRANCH   5  31
TORSDOF 22
ENDMDL
MODEL 2
REMARK VINA RESULT:      -7.7      2.226      5.717
REMARK  Name = NuBBE_987
REMARK  28 active torsions:
REMARK  status: ('A' for Active; 'I' for Inactive)
REMARK    1  A    between atoms: C_1  and  C_2
REMARK    2  A    between atoms: C_5  and  O_7
REMARK    3  A    between atoms: O_7  and  C_8
REMARK    4  A    between atoms: C_8  and  C_9
REMARK    5  A    between atoms: C_9  and  C_10
REMARK    6  A    between atoms: C_10  and  C_11
REMARK    7  A    between atoms: C_11  and  C_12
REMARK    8  A    between atoms: C_12  and  C_13
REMARK    9  A    between atoms: C_13  and  C_14
REMARK   10  A    between atoms: C_14  and  C_15
REMARK   11  A    between atoms: C_15  and  C_16
REMARK   12  A    between atoms: C_16  and  C_17
REMARK   13  A    between atoms: C_17  and  C_18
REMARK   14  A    between atoms: C_18  and  C_19
REMARK   15  A    between atoms: C_19  and  C_20
REMARK   16  A    between atoms: C_20  and  C_21
REMARK   17  A    between atoms: C_21  and  C_22
REMARK   18  A    between atoms: C_22  and  C_23
REMARK   19  A    between atoms: C_32  and  O_34
REMARK   20  A    between atoms: C_35  and  C_36
REMARK   21  A    between atoms: C_40  and  C_42
REMARK   22  A    between atoms: C_42  and  C_44
REMARK   23  A    between atoms: C_42  and  C_45
REMARK   24  A    between atoms: C_45  and  C_46
REMARK   25  A    between atoms: C_46  and  C_47
REMARK   26  A    between atoms: C_47  and  C_48
REMARK   27  A    between atoms: C_48  and  C_49
REMARK   28  A    between atoms: C_48  and  C_50
REMARK                            x       y       z     vdW  Elec       q    Type
REMARK                         _______ _______ _______ _____ _____    ______ ____
ROOT
ATOM      1  C   LIG A   1      -6.191   3.880 132.900  0.00  0.00    +0.016 C 
ATOM      2  C   LIG A   1      -6.574   5.355 133.028  0.00  0.00    -0.008 C 
ATOM      3  C   LIG A   1      -7.923   5.741 132.346  0.00  0.00    -0.064 C 
ATOM      4  C   LIG A   1      -9.220   5.089 132.865  0.00  0.00    +0.075 C 
ATOM      5  C   LIG A   1      -9.063   4.038 133.986  0.00  0.00    +0.180 C 
ATOM      6  C   LIG A   1      -8.097   4.667 135.050  0.00  0.00    +0.046 C 
ATOM      7  C   LIG A   1      -6.868   5.546 134.542  0.00  0.00    +0.015 C 
ATOM      8  C   LIG A   1      -7.978   6.638 131.328  0.00  0.00    -0.027 C 
ATOM      9  C   LIG A   1      -6.756   7.103 130.524  0.00  0.00    +0.031 C 
ATOM     10  C   LIG A   1      -5.637   6.053 130.772  0.00  0.00    +0.001 C 
ATOM     11  C   LIG A   1      -5.340   6.140 132.311  0.00  0.00    +0.005 C 
ATOM     12  C   LIG A   1      -3.921   5.647 132.692  0.00  0.00    +0.036 C 
ATOM     13  C   LIG A   1      -2.888   5.325 131.544  0.00  0.00    +0.121 C 
ATOM     14  C   LIG A   1      -3.473   4.661 130.179  0.00  0.00    +0.000 C 
ATOM     15  C   LIG A   1      -3.832   3.182 130.453  0.00  0.00    +0.014 C 
ATOM     16  C   LIG A   1      -4.521   5.727 129.731  0.00  0.00    +0.001 C 
ATOM     17  C   LIG A   1      -3.599   6.833 129.145  0.00  0.00    +0.005 C 
ATOM     18  C   LIG A   1      -2.327   6.122 128.598  0.00  0.00    +0.005 C 
ATOM     19  C   LIG A   1      -2.561   4.639 128.814  0.00  0.00    +0.001 C 
ENDROOT
BRANCH  19  20
ATOM     20  C   LIG A   1      -3.109   3.907 127.394  0.00  0.00    -0.010 C 
ATOM     21  C   LIG A   1      -1.945   3.378 126.493  0.00  0.00    +0.008 C 
BRANCH  20  22
ATOM     22  C   LIG A   1      -4.196   4.576 126.337  0.00  0.00    +0.008 C 
BRANCH  22  23
ATOM     23  C   LIG A   1      -5.765   4.231 126.403  0.00  0.00    +0.030 C 
BRANCH  23  24
ATOM     24  C   LIG A   1      -6.543   3.331 127.500  0.00  0.00    -0.074 C 
ATOM     25  C   LIG A   1      -7.441   3.884 128.354  0.00  0.00    +0.008 C 
BRANCH  24  26
ATOM     26  C   LIG A   1      -6.552   1.769 127.296  0.00  0.00    +0.008 C 
ATOM     27  C   LIG A   1      -7.009   1.140 125.953  0.00  0.00    +0.012 C 
ATOM     28  C   LIG A   1      -5.235   1.030 127.661  0.00  0.00    +0.012 C 
ENDBRANCH  24  26
ENDBRANCH  23  24
ENDBRANCH  22  23
ENDBRANCH  20  22
ENDBRANCH  19  20
BRANCH  13  29
ATOM     29  O   LIG A   1      -1.840   4.536 132.115  0.00  0.00    -0.391 OA
ATOM     30  H   LIG A   1      -1.981   4.499 133.081  0.00  0.00    +0.210 HD
ENDBRANCH  13  29
BRANCH   5  31
ATOM     31  O   LIG A   1      -8.612   2.749 133.391  0.00  0.00    -0.461 OA
BRANCH  31  32
ATOM     32  C   LIG A   1      -9.131   2.110 132.371  0.00  0.00    +0.307 C 
ATOM     33  O   LIG A   1     -10.327   1.494 132.378  0.00  0.00    -0.251 OA
BRANCH  32  34
ATOM     34  C   LIG A   1      -8.084   1.908 131.244  0.00  0.00    +0.120 C 
BRANCH  34  35
ATOM     35  C   LIG A   1      -8.031   0.559 130.447  0.00  0.00    +0.011 C 
BRANCH  35  36
ATOM     36  C   LIG A   1      -6.780  -0.382 130.652  0.00  0.00    +0.000 C 
BRANCH  36  37
ATOM     37  C   LIG A   1      -6.577  -1.690 129.792  0.00  0.00    +0.000 C 
BRANCH  37  38
ATOM     38  C   LIG A   1      -7.902  -2.133 129.144  0.00  0.00    -0.000 C 
BRANCH  38  39
ATOM     39  C   LIG A   1      -8.440  -3.597 128.930  0.00  0.00    -0.000 C 
BRANCH  39  40
ATOM     40  C   LIG A   1      -9.022  -3.782 127.495  0.00  0.00    -0.000 C 
BRANCH  40  41
ATOM     41  C   LIG A   1      -8.415  -3.560 126.055  0.00  0.00    -0.000 C 
BRANCH  41  42
ATOM     42  C   LIG A   1      -9.325  -2.534 125.109  0.00  0.00    -0.000 C 
BRANCH  42  43
ATOM     43  C   LIG A   1      -9.156  -2.739 123.549  0.00  0.00    -0.000 C 
BRANCH  43  44
ATOM     44  C   LIG A   1      -8.088  -2.159 122.526  0.00  0.00    -0.000 C 
BRANCH  44  45
ATOM     45  C   LIG A   1      -6.638  -1.631 122.829  0.00  0.00    -0.000 C 
BRANCH  45  46
ATOM     46  C   LIG A   1      -5.554  -2.348 123.692  0.00  0.00    -0.000 C 
BRANCH  46  47
ATOM     47  C   LIG A   1      -4.556  -3.340 123.086  0.00  0.00    -0.003 C 
ATOM     48  C   LIG A   1      -4.426  -4.675 123.773  0.00  0.00    +0.004 C 
ENDBRANCH  46  47
ENDBRANCH  45  46
ENDBRANCH  44  45
ENDBRANCH  43  44
ENDBRANCH  42  43
ENDBRANCH  41  42
ENDBRANCH  40  41
ENDBRANCH  39  40
ENDBRANCH  38  39
ENDBRANCH  37  38
ENDBRANCH  36  37
ENDBRANCH  35  36
ENDBRANCH  34  35
ENDBRANCH  32  34
ENDBRANCH  31  32
ENDBRANCH   5  31
TORSDOF 22
ENDMDL
MODEL 3
REMARK VINA RESULT:      -7.6      1.212      2.194
REMARK  Name = NuBBE_987
REMARK  28 active torsions:
REMARK  status: ('A' for Active; 'I' for Inactive)
REMARK    1  A    between atoms: C_1  and  C_2
REMARK    2  A    between atoms: C_5  and  O_7
REMARK    3  A    between atoms: O_7  and  C_8
REMARK    4  A    between atoms: C_8  and  C_9
REMARK    5  A    between atoms: C_9  and  C_10
REMARK    6  A    between atoms: C_10  and  C_11
REMARK    7  A    between atoms: C_11  and  C_12
REMARK    8  A    between atoms: C_12  and  C_13
REMARK    9  A    between atoms: C_13  and  C_14
REMARK   10  A    between atoms: C_14  and  C_15
REMARK   11  A    between atoms: C_15  and  C_16
REMARK   12  A    between atoms: C_16  and  C_17
REMARK   13  A    between atoms: C_17  and  C_18
REMARK   14  A    between atoms: C_18  and  C_19
REMARK   15  A    between atoms: C_19  and  C_20
REMARK   16  A    between atoms: C_20  and  C_21
REMARK   17  A    between atoms: C_21  and  C_22
REMARK   18  A    between atoms: C_22  and  C_23
REMARK   19  A    between atoms: C_32  and  O_34
REMARK   20  A    between atoms: C_35  and  C_36
REMARK   21  A    between atoms: C_40  and  C_42
REMARK   22  A    between atoms: C_42  and  C_44
REMARK   23  A    between atoms: C_42  and  C_45
REMARK   24  A    between atoms: C_45  and  C_46
REMARK   25  A    between atoms: C_46  and  C_47
REMARK   26  A    between atoms: C_47  and  C_48
REMARK   27  A    between atoms: C_48  and  C_49
REMARK   28  A    between atoms: C_48  and  C_50
REMARK                            x       y       z     vdW  Elec       q    Type
REMARK                         _______ _______ _______ _____ _____    ______ ____
ROOT
ATOM      1  C   LIG A   1      -4.590   4.888 128.683  0.00  0.00    +0.016 C 
ATOM      2  C   LIG A   1      -3.660   3.698 128.925  0.00  0.00    -0.008 C 
ATOM      3  C   LIG A   1      -4.300   2.303 128.651  0.00  0.00    -0.064 C 
ATOM      4  C   LIG A   1      -4.770   1.979 127.219  0.00  0.00    +0.075 C 
ATOM      5  C   LIG A   1      -4.630   3.109 126.176  0.00  0.00    +0.180 C 
ATOM      6  C   LIG A   1      -3.184   3.691 126.344  0.00  0.00    +0.046 C 
ATOM      7  C   LIG A   1      -2.580   3.822 127.814  0.00  0.00    +0.015 C 
ATOM      8  C   LIG A   1      -4.437   1.374 129.634  0.00  0.00    -0.027 C 
ATOM      9  C   LIG A   1      -4.309   1.682 131.131  0.00  0.00    +0.031 C 
ATOM     10  C   LIG A   1      -4.473   3.220 131.284  0.00  0.00    +0.001 C 
ATOM     11  C   LIG A   1      -3.260   3.833 130.498  0.00  0.00    +0.005 C 
ATOM     12  C   LIG A   1      -2.875   5.256 130.972  0.00  0.00    +0.036 C 
ATOM     13  C   LIG A   1      -3.557   5.842 132.268  0.00  0.00    +0.121 C 
ATOM     14  C   LIG A   1      -5.116   5.458 132.529  0.00  0.00    +0.000 C 
ATOM     15  C   LIG A   1      -6.002   6.253 131.543  0.00  0.00    +0.014 C 
ATOM     16  C   LIG A   1      -5.058   3.899 132.561  0.00  0.00    +0.001 C 
ATOM     17  C   LIG A   1      -4.456   3.646 133.972  0.00  0.00    +0.005 C 
ATOM     18  C   LIG A   1      -4.901   4.831 134.876  0.00  0.00    +0.005 C 
ATOM     19  C   LIG A   1      -5.790   5.699 134.007  0.00  0.00    +0.001 C 
ENDROOT
BRANCH  19  20
ATOM     20  C   LIG A   1      -7.420   5.368 134.302  0.00  0.00    -0.010 C 
ATOM     21  C   LIG A   1      -7.964   6.079 135.585  0.00  0.00    +0.008 C 
BRANCH  20  22
ATOM     22  C   LIG A   1      -8.093   3.855 134.335  0.00  0.00    +0.008 C 
BRANCH  22  23
ATOM     23  C   LIG A   1      -8.863   3.240 133.064  0.00  0.00    +0.030 C 
BRANCH  23  24
ATOM     24  C   LIG A   1      -8.282   2.238 131.935  0.00  0.00    -0.074 C 
ATOM     25  C   LIG A   1      -7.918   0.968 132.243  0.00  0.00    +0.008 C 
BRANCH  24  26
ATOM     26  C   LIG A   1      -8.523   2.614 130.425  0.00  0.00    +0.008 C 
ATOM     27  C   LIG A   1      -7.962   3.932 129.829  0.00  0.00    +0.012 C 
ATOM     28  C   LIG A   1      -8.162   1.515 129.387  0.00  0.00    +0.012 C 
ENDBRANCH  24  26
ENDBRANCH  23  24
ENDBRANCH  22  23
ENDBRANCH  20  22
ENDBRANCH  19  20
BRANCH  13  29
ATOM     29  O   LIG A   1      -3.350   7.258 132.263  0.00  0.00    -0.391 OA
ATOM     30  H   LIG A   1      -2.482   7.438 132.675  0.00  0.00    +0.210 HD
ENDBRANCH  13  29
BRANCH   5  31
ATOM     31  O   LIG A   1      -5.741   4.085 126.357  0.00  0.00    -0.461 OA
BRANCH  31  32
ATOM     32  C   LIG A   1      -6.372   4.764 125.430  0.00  0.00    +0.307 C 
ATOM     33  O   LIG A   1      -7.483   5.493 125.633  0.00  0.00    -0.251 OA
BRANCH  32  34
ATOM     34  C   LIG A   1      -5.849   4.401 124.015  0.00  0.00    +0.120 C 
BRANCH  34  35
ATOM     35  C   LIG A   1      -6.656   3.415 123.102  0.00  0.00    +0.011 C 
BRANCH  35  36
ATOM     36  C   LIG A   1      -7.741   2.489 123.779  0.00  0.00    +0.000 C 
BRANCH  36  37
ATOM     37  C   LIG A   1      -7.362   1.095 124.414  0.00  0.00    +0.000 C 
BRANCH  37  38
ATOM     38  C   LIG A   1      -8.616   0.223 124.615  0.00  0.00    -0.000 C 
BRANCH  38  39
ATOM     39  C   LIG A   1      -9.039  -0.595 125.893  0.00  0.00    -0.000 C 
BRANCH  39  40
ATOM     40  C   LIG A   1      -9.259  -2.101 125.553  0.00  0.00    -0.000 C 
BRANCH  40  41
ATOM     41  C   LIG A   1      -8.861  -2.989 124.311  0.00  0.00    -0.000 C 
BRANCH  41  42
ATOM     42  C   LIG A   1      -7.356  -3.690 124.460  0.00  0.00    -0.000 C 
BRANCH  42  43
ATOM     43  C   LIG A   1      -6.156  -2.668 124.600  0.00  0.00    -0.000 C 
BRANCH  43  44
ATOM     44  C   LIG A   1      -5.619  -1.849 125.852  0.00  0.00    -0.000 C 
BRANCH  44  45
ATOM     45  C   LIG A   1      -5.667  -2.251 127.371  0.00  0.00    -0.000 C 
BRANCH  45  46
ATOM     46  C   LIG A   1      -6.495  -1.545 128.489  0.00  0.00    -0.000 C 
BRANCH  46  47
ATOM     47  C   LIG A   1      -7.776  -2.158 129.064  0.00  0.00    -0.003 C 
ATOM     48  C   LIG A   1      -8.075  -3.585 128.681  0.00  0.00    +0.004 C 
ENDBRANCH  46  47
ENDBRANCH  45  46
ENDBRANCH  44  45
ENDBRANCH  43  44
ENDBRANCH  42  43
ENDBRANCH  41  42
ENDBRANCH  40  41
ENDBRANCH  39  40
ENDBRANCH  38  39
ENDBRANCH  37  38
ENDBRANCH  36  37
ENDBRANCH  35  36
ENDBRANCH  34  35
ENDBRANCH  32  34
ENDBRANCH  31  32
ENDBRANCH   5  31
TORSDOF 22
ENDMDL
MODEL 4
REMARK VINA RESULT:      -7.5      2.820      8.067
REMARK  Name = NuBBE_987
REMARK  28 active torsions:
REMARK  status: ('A' for Active; 'I' for Inactive)
REMARK    1  A    between atoms: C_1  and  C_2
REMARK    2  A    between atoms: C_5  and  O_7
REMARK    3  A    between atoms: O_7  and  C_8
REMARK    4  A    between atoms: C_8  and  C_9
REMARK    5  A    between atoms: C_9  and  C_10
REMARK    6  A    between atoms: C_10  and  C_11
REMARK    7  A    between atoms: C_11  and  C_12
REMARK    8  A    between atoms: C_12  and  C_13
REMARK    9  A    between atoms: C_13  and  C_14
REMARK   10  A    between atoms: C_14  and  C_15
REMARK   11  A    between atoms: C_15  and  C_16
REMARK   12  A    between atoms: C_16  and  C_17
REMARK   13  A    between atoms: C_17  and  C_18
REMARK   14  A    between atoms: C_18  and  C_19
REMARK   15  A    between atoms: C_19  and  C_20
REMARK   16  A    between atoms: C_20  and  C_21
REMARK   17  A    between atoms: C_21  and  C_22
REMARK   18  A    between atoms: C_22  and  C_23
REMARK   19  A    between atoms: C_32  and  O_34
REMARK   20  A    between atoms: C_35  and  C_36
REMARK   21  A    between atoms: C_40  and  C_42
REMARK   22  A    between atoms: C_42  and  C_44
REMARK   23  A    between atoms: C_42  and  C_45
REMARK   24  A    between atoms: C_45  and  C_46
REMARK   25  A    between atoms: C_46  and  C_47
REMARK   26  A    between atoms: C_47  and  C_48
REMARK   27  A    between atoms: C_48  and  C_49
REMARK   28  A    between atoms: C_48  and  C_50
REMARK                            x       y       z     vdW  Elec       q    Type
REMARK                         _______ _______ _______ _____ _____    ______ ____
ROOT
ATOM      1  C   LIG A   1      -8.085   2.644 133.228  0.00  0.00    +0.016 C 
ATOM      2  C   LIG A   1      -6.616   3.068 133.238  0.00  0.00    -0.008 C 
ATOM      3  C   LIG A   1      -6.236   4.129 132.161  0.00  0.00    -0.064 C 
ATOM      4  C   LIG A   1      -6.907   5.515 132.228  0.00  0.00    +0.075 C 
ATOM      5  C   LIG A   1      -7.970   5.714 133.330  0.00  0.00    +0.180 C 
ATOM      6  C   LIG A   1      -7.345   5.153 134.654  0.00  0.00    +0.046 C 
ATOM      7  C   LIG A   1      -6.447   3.838 134.578  0.00  0.00    +0.015 C 
ATOM      8  C   LIG A   1      -5.326   3.865 131.188  0.00  0.00    -0.027 C 
ATOM      9  C   LIG A   1      -4.838   2.456 130.826  0.00  0.00    +0.031 C 
ATOM     10  C   LIG A   1      -5.880   1.462 131.412  0.00  0.00    +0.001 C 
ATOM     11  C   LIG A   1      -5.810   1.679 132.965  0.00  0.00    +0.005 C 
ATOM     12  C   LIG A   1      -6.293   0.453 133.780  0.00  0.00    +0.036 C 
ATOM     13  C   LIG A   1      -6.590  -0.900 133.025  0.00  0.00    +0.121 C 
ATOM     14  C   LIG A   1      -7.242  -0.796 131.538  0.00  0.00    +0.000 C 
ATOM     15  C   LIG A   1      -8.729  -0.388 131.668  0.00  0.00    +0.014 C 
ATOM     16  C   LIG A   1      -6.182   0.066 130.785  0.00  0.00    +0.001 C 
ATOM     17  C   LIG A   1      -5.060  -0.981 130.538  0.00  0.00    +0.005 C 
ATOM     18  C   LIG A   1      -5.750  -2.371 130.425  0.00  0.00    +0.005 C 
ATOM     19  C   LIG A   1      -7.238  -2.100 130.541  0.00  0.00    +0.001 C 
ENDROOT
BRANCH  19  20
ATOM     20  C   LIG A   1      -7.957  -2.050 129.013  0.00  0.00    -0.010 C 
ATOM     21  C   LIG A   1      -8.509  -3.440 128.554  0.00  0.00    +0.008 C 
BRANCH  20  22
ATOM     22  C   LIG A   1      -7.266  -1.396 127.657  0.00  0.00    +0.008 C 
BRANCH  22  23
ATOM     23  C   LIG A   1      -6.229  -2.224 126.750  0.00  0.00    +0.030 C 
BRANCH  23  24
ATOM     24  C   LIG A   1      -6.062  -2.188 125.141  0.00  0.00    -0.074 C 
ATOM     25  C   LIG A   1      -5.323  -3.121 124.490  0.00  0.00    +0.008 C 
BRANCH  24  26
ATOM     26  C   LIG A   1      -7.082  -1.317 124.316  0.00  0.00    +0.008 C 
ATOM     27  C   LIG A   1      -6.933   0.226 124.233  0.00  0.00    +0.012 C 
ATOM     28  C   LIG A   1      -7.340  -1.777 122.855  0.00  0.00    +0.012 C 
ENDBRANCH  24  26
ENDBRANCH  23  24
ENDBRANCH  22  23
ENDBRANCH  20  22
ENDBRANCH  19  20
BRANCH  13  29
ATOM     29  O   LIG A   1      -7.376  -1.718 133.896  0.00  0.00    -0.391 OA
ATOM     30  H   LIG A   1      -7.785  -1.138 134.568  0.00  0.00    +0.210 HD
ENDBRANCH  13  29
BRANCH   5  31
ATOM     31  O   LIG A   1      -9.247   5.078 132.902  0.00  0.00    -0.461 OA
BRANCH  31  32
ATOM     32  C   LIG A   1     -10.116   5.529 132.030  0.00  0.00    +0.307 C 
ATOM     33  O   LIG A   1     -10.879   6.623 132.202  0.00  0.00    -0.251 OA
BRANCH  32  34
ATOM     34  C   LIG A   1     -10.365   4.497 130.899  0.00  0.00    +0.120 C 
BRANCH  34  35
ATOM     35  C   LIG A   1      -9.221   4.141 129.889  0.00  0.00    +0.011 C 
BRANCH  35  36
ATOM     36  C   LIG A   1      -8.805   2.625 129.734  0.00  0.00    +0.000 C 
BRANCH  36  37
ATOM     37  C   LIG A   1      -8.582   1.967 128.317  0.00  0.00    +0.000 C 
BRANCH  37  38
ATOM     38  C   LIG A   1      -7.318   2.531 127.642  0.00  0.00    -0.000 C 
BRANCH  38  39
ATOM     39  C   LIG A   1      -5.921   1.829 127.448  0.00  0.00    -0.000 C 
BRANCH  39  40
ATOM     40  C   LIG A   1      -4.802   2.871 127.142  0.00  0.00    -0.000 C 
BRANCH  40  41
ATOM     41  C   LIG A   1      -3.369   2.747 126.493  0.00  0.00    -0.000 C 
BRANCH  41  42
ATOM     42  C   LIG A   1      -2.187   3.549 127.351  0.00  0.00    -0.000 C 
BRANCH  42  43
ATOM     43  C   LIG A   1      -2.719   4.440 128.546  0.00  0.00    -0.000 C 
BRANCH  43  44
ATOM     44  C   LIG A   1      -2.580   5.996 128.835  0.00  0.00    -0.000 C 
BRANCH  44  45
ATOM     45  C   LIG A   1      -2.485   6.722 130.227  0.00  0.00    -0.000 C 
BRANCH  45  46
ATOM     46  C   LIG A   1      -2.600   6.050 131.630  0.00  0.00    -0.000 C 
BRANCH  46  47
ATOM     47  C   LIG A   1      -1.675   4.909 132.065  0.00  0.00    -0.003 C 
ATOM     48  C   LIG A   1      -2.259   3.885 133.006  0.00  0.00    +0.004 C 
ENDBRANCH  46  47
ENDBRANCH  45  46
ENDBRANCH  44  45
ENDBRANCH  43  44
ENDBRANCH  42  43
ENDBRANCH  41  42
ENDBRANCH  40  41
ENDBRANCH  39  40
ENDBRANCH  38  39
ENDBRANCH  37  38
ENDBRANCH  36  37
ENDBRANCH  35  36
ENDBRANCH  34  35
ENDBRANCH  32  34
ENDBRANCH  31  32
ENDBRANCH   5  31
TORSDOF 22
ENDMDL
MODEL 5
REMARK VINA RESULT:      -7.4      2.573      5.447
REMARK  Name = NuBBE_987
REMARK  28 active torsions:
REMARK  status: ('A' for Active; 'I' for Inactive)
REMARK    1  A    between atoms: C_1  and  C_2
REMARK    2  A    between atoms: C_5  and  O_7
REMARK    3  A    between atoms: O_7  and  C_8
REMARK    4  A    between atoms: C_8  and  C_9
REMARK    5  A    between atoms: C_9  and  C_10
REMARK    6  A    between atoms: C_10  and  C_11
REMARK    7  A    between atoms: C_11  and  C_12
REMARK    8  A    between atoms: C_12  and  C_13
REMARK    9  A    between atoms: C_13  and  C_14
REMARK   10  A    between atoms: C_14  and  C_15
REMARK   11  A    between atoms: C_15  and  C_16
REMARK   12  A    between atoms: C_16  and  C_17
REMARK   13  A    between atoms: C_17  and  C_18
REMARK   14  A    between atoms: C_18  and  C_19
REMARK   15  A    between atoms: C_19  and  C_20
REMARK   16  A    between atoms: C_20  and  C_21
REMARK   17  A    between atoms: C_21  and  C_22
REMARK   18  A    between atoms: C_22  and  C_23
REMARK   19  A    between atoms: C_32  and  O_34
REMARK   20  A    between atoms: C_35  and  C_36
REMARK   21  A    between atoms: C_40  and  C_42
REMARK   22  A    between atoms: C_42  and  C_44
REMARK   23  A    between atoms: C_42  and  C_45
REMARK   24  A    between atoms: C_45  and  C_46
REMARK   25  A    between atoms: C_46  and  C_47
REMARK   26  A    between atoms: C_47  and  C_48
REMARK   27  A    between atoms: C_48  and  C_49
REMARK   28  A    between atoms: C_48  and  C_50
REMARK                            x       y       z     vdW  Elec       q    Type
REMARK                         _______ _______ _______ _____ _____    ______ ____
ROOT
ATOM      1  C   LIG A   1      -7.829   0.841 129.267  0.00  0.00    +0.016 C 
ATOM      2  C   LIG A   1      -7.436   1.917 128.254  0.00  0.00    -0.008 C 
ATOM      3  C   LIG A   1      -5.900   2.120 128.081  0.00  0.00    -0.064 C 
ATOM      4  C   LIG A   1      -5.059   0.943 127.549  0.00  0.00    +0.075 C 
ATOM      5  C   LIG A   1      -5.811  -0.382 127.297  0.00  0.00    +0.180 C 
ATOM      6  C   LIG A   1      -7.111  -0.010 126.503  0.00  0.00    +0.046 C 
ATOM      7  C   LIG A   1      -7.879   1.335 126.883  0.00  0.00    +0.015 C 
ATOM      8  C   LIG A   1      -5.298   3.303 128.372  0.00  0.00    -0.027 C 
ATOM      9  C   LIG A   1      -5.952   4.422 129.193  0.00  0.00    +0.031 C 
ATOM     10  C   LIG A   1      -7.135   3.772 129.964  0.00  0.00    +0.001 C 
ATOM     11  C   LIG A   1      -8.117   3.273 128.846  0.00  0.00    +0.005 C 
ATOM     12  C   LIG A   1      -9.581   3.130 129.332  0.00  0.00    +0.036 C 
ATOM     13  C   LIG A   1      -9.970   3.672 130.761  0.00  0.00    +0.121 C 
ATOM     14  C   LIG A   1      -8.864   3.517 131.944  0.00  0.00    +0.000 C 
ATOM     15  C   LIG A   1      -8.796   2.034 132.378  0.00  0.00    +0.014 C 
ATOM     16  C   LIG A   1      -7.647   4.289 131.344  0.00  0.00    +0.001 C 
ATOM     17  C   LIG A   1      -8.091   5.764 131.552  0.00  0.00    +0.005 C 
ATOM     18  C   LIG A   1      -9.005   5.792 132.812  0.00  0.00    +0.005 C 
ATOM     19  C   LIG A   1      -9.020   4.369 133.338  0.00  0.00    +0.001 C 
ENDROOT
BRANCH  19  20
ATOM     20  C   LIG A   1      -7.925   4.192 134.613  0.00  0.00    -0.010 C 
ATOM     21  C   LIG A   1      -7.815   5.474 135.504  0.00  0.00    +0.008 C 
BRANCH  20  22
ATOM     22  C   LIG A   1      -6.370   3.643 134.461  0.00  0.00    +0.008 C 
BRANCH  22  23
ATOM     23  C   LIG A   1      -5.137   4.644 134.208  0.00  0.00    +0.030 C 
BRANCH  23  24
ATOM     24  C   LIG A   1      -4.508   5.113 132.792  0.00  0.00    -0.074 C 
ATOM     25  C   LIG A   1      -4.556   6.409 132.398  0.00  0.00    +0.008 C 
BRANCH  24  26
ATOM     26  C   LIG A   1      -3.496   4.139 132.079  0.00  0.00    +0.008 C 
ATOM     27  C   LIG A   1      -3.913   2.694 131.695  0.00  0.00    +0.012 C 
ATOM     28  C   LIG A   1      -2.785   4.704 130.819  0.00  0.00    +0.012 C 
ENDBRANCH  24  26
ENDBRANCH  23  24
ENDBRANCH  22  23
ENDBRANCH  20  22
ENDBRANCH  19  20
BRANCH  13  29
ATOM     29  O   LIG A   1     -11.222   3.081 131.122  0.00  0.00    -0.391 OA
ATOM     30  H   LIG A   1     -11.074   2.127 131.275  0.00  0.00    +0.210 HD
ENDBRANCH  13  29
BRANCH   5  31
ATOM     31  O   LIG A   1      -6.028  -1.079 128.596  0.00  0.00    -0.461 OA
BRANCH  31  32
ATOM     32  C   LIG A   1      -5.605  -2.268 128.949  0.00  0.00    +0.307 C 
ATOM     33  O   LIG A   1      -4.343  -2.710 128.803  0.00  0.00    -0.251 OA
BRANCH  32  34
ATOM     34  C   LIG A   1      -6.791  -3.206 129.297  0.00  0.00    +0.120 C 
BRANCH  34  35
ATOM     35  C   LIG A   1      -8.231  -2.891 128.763  0.00  0.00    +0.011 C 
BRANCH  35  36
ATOM     36  C   LIG A   1      -8.745  -3.672 127.490  0.00  0.00    +0.000 C 
BRANCH  36  37
ATOM     37  C   LIG A   1      -9.278  -2.915 126.213  0.00  0.00    +0.000 C 
BRANCH  37  38
ATOM     38  C   LIG A   1      -8.644  -3.487 124.931  0.00  0.00    -0.000 C 
BRANCH  38  39
ATOM     39  C   LIG A   1      -9.019  -3.169 123.434  0.00  0.00    -0.000 C 
BRANCH  39  40
ATOM     40  C   LIG A   1      -9.436  -1.677 123.259  0.00  0.00    -0.000 C 
BRANCH  40  41
ATOM     41  C   LIG A   1      -8.626  -0.323 123.310  0.00  0.00    -0.000 C 
BRANCH  41  42
ATOM     42  C   LIG A   1      -9.602   1.027 123.315  0.00  0.00    -0.000 C 
BRANCH  42  43
ATOM     43  C   LIG A   1      -9.002   2.286 122.567  0.00  0.00    -0.000 C 
BRANCH  43  44
ATOM     44  C   LIG A   1      -7.608   3.031 122.725  0.00  0.00    -0.000 C 
BRANCH  44  45
ATOM     45  C   LIG A   1      -6.489   2.784 123.801  0.00  0.00    -0.000 C 
BRANCH  45  46
ATOM     46  C   LIG A   1      -5.696   3.878 124.580  0.00  0.00    -0.000 C 
BRANCH  46  47
ATOM     47  C   LIG A   1      -6.400   4.979 125.381  0.00  0.00    -0.003 C 
ATOM     48  C   LIG A   1      -7.876   4.799 125.627  0.00  0.00    +0.004 C 
ENDBRANCH  46  47
ENDBRANCH  45  46
ENDBRANCH  44  45
ENDBRANCH  43  44
ENDBRANCH  42  43
ENDBRANCH  41  42
ENDBRANCH  40  41
ENDBRANCH  39  40
ENDBRANCH  38  39
ENDBRANCH  37  38
ENDBRANCH  36  37
ENDBRANCH  35  36
ENDBRANCH  34  35
ENDBRANCH  32  34
ENDBRANCH  31  32
ENDBRANCH   5  31
TORSDOF 22
ENDMDL
MODEL 6
REMARK VINA RESULT:      -7.3      2.479      8.349
REMARK  Name = NuBBE_987
REMARK  28 active torsions:
REMARK  status: ('A' for Active; 'I' for Inactive)
REMARK    1  A    between atoms: C_1  and  C_2
REMARK    2  A    between atoms: C_5  and  O_7
REMARK    3  A    between atoms: O_7  and  C_8
REMARK    4  A    between atoms: C_8  and  C_9
REMARK    5  A    between atoms: C_9  and  C_10
REMARK    6  A    between atoms: C_10  and  C_11
REMARK    7  A    between atoms: C_11  and  C_12
REMARK    8  A    between atoms: C_12  and  C_13
REMARK    9  A    between atoms: C_13  and  C_14
REMARK   10  A    between atoms: C_14  and  C_15
REMARK   11  A    between atoms: C_15  and  C_16
REMARK   12  A    between atoms: C_16  and  C_17
REMARK   13  A    between atoms: C_17  and  C_18
REMARK   14  A    between atoms: C_18  and  C_19
REMARK   15  A    between atoms: C_19  and  C_20
REMARK   16  A    between atoms: C_20  and  C_21
REMARK   17  A    between atoms: C_21  and  C_22
REMARK   18  A    between atoms: C_22  and  C_23
REMARK   19  A    between atoms: C_32  and  O_34
REMARK   20  A    between atoms: C_35  and  C_36
REMARK   21  A    between atoms: C_40  and  C_42
REMARK   22  A    between atoms: C_42  and  C_44
REMARK   23  A    between atoms: C_42  and  C_45
REMARK   24  A    between atoms: C_45  and  C_46
REMARK   25  A    between atoms: C_46  and  C_47
REMARK   26  A    between atoms: C_47  and  C_48
REMARK   27  A    between atoms: C_48  and  C_49
REMARK   28  A    between atoms: C_48  and  C_50
REMARK                            x       y       z     vdW  Elec       q    Type
REMARK                         _______ _______ _______ _____ _____    ______ ____
ROOT
ATOM      1  C   LIG A   1      -5.650   1.896 125.344  0.00  0.00    +0.016 C 
ATOM      2  C   LIG A   1      -6.809   2.272 124.420  0.00  0.00    -0.008 C 
ATOM      3  C   LIG A   1      -7.889   3.190 125.069  0.00  0.00    -0.064 C 
ATOM      4  C   LIG A   1      -7.469   4.595 125.544  0.00  0.00    +0.075 C 
ATOM      5  C   LIG A   1      -5.974   4.952 125.400  0.00  0.00    +0.180 C 
ATOM      6  C   LIG A   1      -5.553   4.527 123.950  0.00  0.00    +0.046 C 
ATOM      7  C   LIG A   1      -6.161   3.184 123.342  0.00  0.00    +0.015 C 
ATOM      8  C   LIG A   1      -9.179   2.788 125.209  0.00  0.00    -0.027 C 
ATOM      9  C   LIG A   1      -9.644   1.331 125.076  0.00  0.00    +0.031 C 
ATOM     10  C   LIG A   1      -8.377   0.445 125.231  0.00  0.00    +0.001 C 
ATOM     11  C   LIG A   1      -7.463   0.836 124.016  0.00  0.00    +0.005 C 
ATOM     12  C   LIG A   1      -6.455  -0.273 123.623  0.00  0.00    +0.036 C 
ATOM     13  C   LIG A   1      -6.577  -1.693 124.299  0.00  0.00    +0.121 C 
ATOM     14  C   LIG A   1      -7.034  -1.740 125.859  0.00  0.00    +0.000 C 
ATOM     15  C   LIG A   1      -5.854  -1.273 126.743  0.00  0.00    +0.014 C 
ATOM     16  C   LIG A   1      -8.409  -1.004 125.810  0.00  0.00    +0.001 C 
ATOM     17  C   LIG A   1      -9.322  -2.107 125.206  0.00  0.00    +0.005 C 
ATOM     18  C   LIG A   1      -8.730  -3.479 125.642  0.00  0.00    +0.005 C 
ATOM     19  C   LIG A   1      -7.544  -3.149 126.529  0.00  0.00    +0.001 C 
ENDROOT
BRANCH  19  20
ATOM     20  C   LIG A   1      -7.971  -3.252 128.160  0.00  0.00    -0.010 C 
ATOM     21  C   LIG A   1      -9.280  -4.076 128.397  0.00  0.00    +0.008 C 
BRANCH  20  22
ATOM     22  C   LIG A   1      -8.084  -1.965 129.197  0.00  0.00    +0.008 C 
BRANCH  22  23
ATOM     23  C   LIG A   1      -7.152  -1.843 130.502  0.00  0.00    +0.030 C 
BRANCH  23  24
ATOM     24  C   LIG A   1      -5.576  -2.187 130.638  0.00  0.00    -0.074 C 
ATOM     25  C   LIG A   1      -4.810  -1.603 131.593  0.00  0.00    +0.008 C 
BRANCH  24  26
ATOM     26  C   LIG A   1      -5.044  -3.488 129.927  0.00  0.00    +0.008 C 
ATOM     27  C   LIG A   1      -3.564  -3.604 129.476  0.00  0.00    +0.012 C 
ATOM     28  C   LIG A   1      -5.354  -4.829 130.648  0.00  0.00    +0.012 C 
ENDBRANCH  24  26
ENDBRANCH  23  24
ENDBRANCH  22  23
ENDBRANCH  20  22
ENDBRANCH  19  20
BRANCH  13  29
ATOM     29  O   LIG A   1      -5.341  -2.381 124.084  0.00  0.00    -0.391 OA
ATOM     30  H   LIG A   1      -5.218  -3.019 124.815  0.00  0.00    +0.210 HD
ENDBRANCH  13  29
BRANCH   5  31
ATOM     31  O   LIG A   1      -5.207   4.312 126.505  0.00  0.00    -0.461 OA
BRANCH  31  32
ATOM     32  C   LIG A   1      -3.969   4.550 126.866  0.00  0.00    +0.307 C 
ATOM     33  O   LIG A   1      -2.890   3.909 126.381  0.00  0.00    -0.251 OA
BRANCH  32  34
ATOM     34  C   LIG A   1      -3.916   5.460 128.122  0.00  0.00    +0.120 C 
BRANCH  34  35
ATOM     35  C   LIG A   1      -4.935   5.250 129.294  0.00  0.00    +0.011 C 
BRANCH  35  36
ATOM     36  C   LIG A   1      -4.570   5.832 130.716  0.00  0.00    +0.000 C 
BRANCH  36  37
ATOM     37  C   LIG A   1      -5.683   6.201 131.771  0.00  0.00    +0.000 C 
BRANCH  37  38
ATOM     38  C   LIG A   1      -6.840   6.967 131.105  0.00  0.00    -0.000 C 
BRANCH  38  39
ATOM     39  C   LIG A   1      -8.348   6.531 130.970  0.00  0.00    -0.000 C 
BRANCH  39  40
ATOM     40  C   LIG A   1      -8.467   5.044 130.514  0.00  0.00    -0.000 C 
BRANCH  40  41
ATOM     41  C   LIG A   1      -8.405   4.348 129.098  0.00  0.00    -0.000 C 
BRANCH  41  42
ATOM     42  C   LIG A   1      -8.851   2.743 129.136  0.00  0.00    -0.000 C 
BRANCH  42  43
ATOM     43  C   LIG A   1      -7.748   1.732 128.620  0.00  0.00    -0.000 C 
BRANCH  43  44
ATOM     44  C   LIG A   1      -6.196   1.624 128.939  0.00  0.00    -0.000 C 
BRANCH  44  45
ATOM     45  C   LIG A   1      -5.482   1.716 130.337  0.00  0.00    -0.000 C 
BRANCH  45  46
ATOM     46  C   LIG A   1      -6.021   2.446 131.605  0.00  0.00    -0.000 C 
BRANCH  46  47
ATOM     47  C   LIG A   1      -6.787   1.706 132.707  0.00  0.00    -0.003 C 
ATOM     48  C   LIG A   1      -8.157   1.190 132.351  0.00  0.00    +0.004 C 
ENDBRANCH  46  47
ENDBRANCH  45  46
ENDBRANCH  44  45
ENDBRANCH  43  44
ENDBRANCH  42  43
ENDBRANCH  41  42
ENDBRANCH  40  41
ENDBRANCH  39  40
ENDBRANCH  38  39
ENDBRANCH  37  38
ENDBRANCH  36  37
ENDBRANCH  35  36
ENDBRANCH  34  35
ENDBRANCH  32  34
ENDBRANCH  31  32
ENDBRANCH   5  31
TORSDOF 22
ENDMDL
MODEL 7
REMARK VINA RESULT:      -7.3      2.488      5.709
REMARK  Name = NuBBE_987
REMARK  28 active torsions:
REMARK  status: ('A' for Active; 'I' for Inactive)
REMARK    1  A    between atoms: C_1  and  C_2
REMARK    2  A    between atoms: C_5  and  O_7
REMARK    3  A    between atoms: O_7  and  C_8
REMARK    4  A    between atoms: C_8  and  C_9
REMARK    5  A    between atoms: C_9  and  C_10
REMARK    6  A    between atoms: C_10  and  C_11
REMARK    7  A    between atoms: C_11  and  C_12
REMARK    8  A    between atoms: C_12  and  C_13
REMARK    9  A    between atoms: C_13  and  C_14
REMARK   10  A    between atoms: C_14  and  C_15
REMARK   11  A    between atoms: C_15  and  C_16
REMARK   12  A    between atoms: C_16  and  C_17
REMARK   13  A    between atoms: C_17  and  C_18
REMARK   14  A    between atoms: C_18  and  C_19
REMARK   15  A    between atoms: C_19  and  C_20
REMARK   16  A    between atoms: C_20  and  C_21
REMARK   17  A    between atoms: C_21  and  C_22
REMARK   18  A    between atoms: C_22  and  C_23
REMARK   19  A    between atoms: C_32  and  O_34
REMARK   20  A    between atoms: C_35  and  C_36
REMARK   21  A    between atoms: C_40  and  C_42
REMARK   22  A    between atoms: C_42  and  C_44
REMARK   23  A    between atoms: C_42  and  C_45
REMARK   24  A    between atoms: C_45  and  C_46
REMARK   25  A    between atoms: C_46  and  C_47
REMARK   26  A    between atoms: C_47  and  C_48
REMARK   27  A    between atoms: C_48  and  C_49
REMARK   28  A    between atoms: C_48  and  C_50
REMARK                            x       y       z     vdW  Elec       q    Type
REMARK                         _______ _______ _______ _____ _____    ______ ____
ROOT
ATOM      1  C   LIG A   1      -6.492   1.324 131.884  0.00  0.00    +0.016 C 
ATOM      2  C   LIG A   1      -7.730   1.935 131.228  0.00  0.00    -0.008 C 
ATOM      3  C   LIG A   1      -7.860   1.662 129.698  0.00  0.00    -0.064 C 
ATOM      4  C   LIG A   1      -8.007   0.203 129.223  0.00  0.00    +0.075 C 
ATOM      5  C   LIG A   1      -7.939  -0.888 130.315  0.00  0.00    +0.180 C 
ATOM      6  C   LIG A   1      -8.879  -0.411 131.476  0.00  0.00    +0.046 C 
ATOM      7  C   LIG A   1      -8.919   1.142 131.837  0.00  0.00    +0.015 C 
ATOM      8  C   LIG A   1      -7.861   2.671 128.789  0.00  0.00    -0.027 C 
ATOM      9  C   LIG A   1      -7.409   4.105 129.097  0.00  0.00    +0.031 C 
ATOM     10  C   LIG A   1      -6.563   4.034 130.399  0.00  0.00    +0.001 C 
ATOM     11  C   LIG A   1      -7.564   3.533 131.500  0.00  0.00    +0.005 C 
ATOM     12  C   LIG A   1      -7.145   3.927 132.938  0.00  0.00    +0.036 C 
ATOM     13  C   LIG A   1      -5.939   4.924 133.138  0.00  0.00    +0.121 C 
ATOM     14  C   LIG A   1      -4.694   4.806 132.097  0.00  0.00    +0.000 C 
ATOM     15  C   LIG A   1      -3.876   3.537 132.432  0.00  0.00    +0.014 C 
ATOM     16  C   LIG A   1      -5.405   5.027 130.726  0.00  0.00    +0.001 C 
ATOM     17  C   LIG A   1      -5.626   6.566 130.742  0.00  0.00    +0.005 C 
ATOM     18  C   LIG A   1      -4.476   7.182 131.592  0.00  0.00    +0.005 C 
ATOM     19  C   LIG A   1      -3.590   6.016 131.988  0.00  0.00    +0.001 C 
ENDROOT
BRANCH  19  20
ATOM     20  C   LIG A   1      -2.252   5.906 130.963  0.00  0.00    -0.010 C 
ATOM     21  C   LIG A   1      -0.957   6.529 131.582  0.00  0.00    +0.008 C 
BRANCH  20  22
ATOM     22  C   LIG A   1      -2.232   6.370 129.373  0.00  0.00    +0.008 C 
BRANCH  22  23
ATOM     23  C   LIG A   1      -2.347   5.303 128.176  0.00  0.00    +0.030 C 
BRANCH  23  24
ATOM     24  C   LIG A   1      -3.653   4.472 127.703  0.00  0.00    -0.074 C 
ATOM     25  C   LIG A   1      -4.653   5.070 127.010  0.00  0.00    +0.008 C 
BRANCH  24  26
ATOM     26  C   LIG A   1      -3.561   2.900 127.699  0.00  0.00    +0.008 C 
ATOM     27  C   LIG A   1      -4.042   2.067 128.918  0.00  0.00    +0.012 C 
ATOM     28  C   LIG A   1      -4.168   2.188 126.459  0.00  0.00    +0.012 C 
ENDBRANCH  24  26
ENDBRANCH  23  24
ENDBRANCH  22  23
ENDBRANCH  20  22
ENDBRANCH  19  20
BRANCH  13  29
ATOM     29  O   LIG A   1      -5.508   4.814 134.498  0.00  0.00    -0.391 OA
ATOM     30  H   LIG A   1      -5.672   3.896 134.794  0.00  0.00    +0.210 HD
ENDBRANCH  13  29
BRANCH   5  31
ATOM     31  O   LIG A   1      -6.517  -1.117 130.693  0.00  0.00    -0.461 OA
BRANCH  31  32
ATOM     32  C   LIG A   1      -5.956  -2.244 131.059  0.00  0.00    +0.307 C 
ATOM     33  O   LIG A   1      -5.772  -2.633 132.333  0.00  0.00    -0.251 OA
BRANCH  32  34
ATOM     34  C   LIG A   1      -5.275  -2.949 129.856  0.00  0.00    +0.120 C 
BRANCH  34  35
ATOM     35  C   LIG A   1      -4.758  -2.109 128.637  0.00  0.00    +0.011 C 
BRANCH  35  36
ATOM     36  C   LIG A   1      -5.646  -2.061 127.332  0.00  0.00    +0.000 C 
BRANCH  36  37
ATOM     37  C   LIG A   1      -5.463  -0.931 126.246  0.00  0.00    +0.000 C 
BRANCH  37  38
ATOM     38  C   LIG A   1      -5.700  -1.486 124.830  0.00  0.00    -0.000 C 
BRANCH  38  39
ATOM     39  C   LIG A   1      -5.527  -2.967 124.323  0.00  0.00    -0.000 C 
BRANCH  39  40
ATOM     40  C   LIG A   1      -6.909  -3.647 124.077  0.00  0.00    -0.000 C 
BRANCH  40  41
ATOM     41  C   LIG A   1      -8.110  -4.010 125.034  0.00  0.00    -0.000 C 
BRANCH  41  42
ATOM     42  C   LIG A   1      -9.339  -2.885 125.002  0.00  0.00    -0.000 C 
BRANCH  42  43
ATOM     43  C   LIG A   1      -9.135  -1.647 125.968  0.00  0.00    -0.000 C 
BRANCH  43  44
ATOM     44  C   LIG A   1      -9.105  -0.086 125.676  0.00  0.00    -0.000 C 
BRANCH  44  45
ATOM     45  C   LIG A   1      -8.930   0.642 124.294  0.00  0.00    -0.000 C 
BRANCH  45  46
ATOM     46  C   LIG A   1      -7.644   1.365 123.785  0.00  0.00    -0.000 C 
BRANCH  46  47
ATOM     47  C   LIG A   1      -7.105   2.635 124.452  0.00  0.00    -0.003 C 
ATOM     48  C   LIG A   1      -8.127   3.585 125.023  0.00  0.00    +0.004 C 
ENDBRANCH  46  47
ENDBRANCH  45  46
ENDBRANCH  44  45
ENDBRANCH  43  44
ENDBRANCH  42  43
ENDBRANCH  41  42
ENDBRANCH  40  41
ENDBRANCH  39  40
ENDBRANCH  38  39
ENDBRANCH  37  38
ENDBRANCH  36  37
ENDBRANCH  35  36
ENDBRANCH  34  35
ENDBRANCH  32  34
ENDBRANCH  31  32
ENDBRANCH   5  31
TORSDOF 22
ENDMDL
MODEL 8
REMARK VINA RESULT:      -7.3      2.313      7.354
REMARK  Name = NuBBE_987
REMARK  28 active torsions:
REMARK  status: ('A' for Active; 'I' for Inactive)
REMARK    1  A    between atoms: C_1  and  C_2
REMARK    2  A    between atoms: C_5  and  O_7
REMARK    3  A    between atoms: O_7  and  C_8
REMARK    4  A    between atoms: C_8  and  C_9
REMARK    5  A    between atoms: C_9  and  C_10
REMARK    6  A    between atoms: C_10  and  C_11
REMARK    7  A    between atoms: C_11  and  C_12
REMARK    8  A    between atoms: C_12  and  C_13
REMARK    9  A    between atoms: C_13  and  C_14
REMARK   10  A    between atoms: C_14  and  C_15
REMARK   11  A    between atoms: C_15  and  C_16
REMARK   12  A    between atoms: C_16  and  C_17
REMARK   13  A    between atoms: C_17  and  C_18
REMARK   14  A    between atoms: C_18  and  C_19
REMARK   15  A    between atoms: C_19  and  C_20
REMARK   16  A    between atoms: C_20  and  C_21
REMARK   17  A    between atoms: C_21  and  C_22
REMARK   18  A    between atoms: C_22  and  C_23
REMARK   19  A    between atoms: C_32  and  O_34
REMARK   20  A    between atoms: C_35  and  C_36
REMARK   21  A    between atoms: C_40  and  C_42
REMARK   22  A    between atoms: C_42  and  C_44
REMARK   23  A    between atoms: C_42  and  C_45
REMARK   24  A    between atoms: C_45  and  C_46
REMARK   25  A    between atoms: C_46  and  C_47
REMARK   26  A    between atoms: C_47  and  C_48
REMARK   27  A    between atoms: C_48  and  C_49
REMARK   28  A    between atoms: C_48  and  C_50
REMARK                            x       y       z     vdW  Elec       q    Type
REMARK                         _______ _______ _______ _____ _____    ______ ____
ROOT
ATOM      1  C   LIG A   1      -6.755  -0.734 125.617  0.00  0.00    +0.016 C 
ATOM      2  C   LIG A   1      -6.815  -2.240 125.870  0.00  0.00    -0.008 C 
ATOM      3  C   LIG A   1      -8.210  -2.889 125.616  0.00  0.00    -0.064 C 
ATOM      4  C   LIG A   1      -8.793  -2.842 124.189  0.00  0.00    +0.075 C 
ATOM      5  C   LIG A   1      -7.965  -2.079 123.132  0.00  0.00    +0.180 C 
ATOM      6  C   LIG A   1      -6.485  -2.573 123.288  0.00  0.00    +0.046 C 
ATOM      7  C   LIG A   1      -5.924  -2.854 124.754  0.00  0.00    +0.015 C 
ATOM      8  C   LIG A   1      -8.906  -3.501 126.610  0.00  0.00    -0.027 C 
ATOM      9  C   LIG A   1      -8.594  -3.338 128.103  0.00  0.00    +0.031 C 
ATOM     10  C   LIG A   1      -7.720  -2.060 128.237  0.00  0.00    +0.001 C 
ATOM     11  C   LIG A   1      -6.407  -2.386 127.440  0.00  0.00    +0.005 C 
ATOM     12  C   LIG A   1      -5.186  -1.548 127.895  0.00  0.00    +0.036 C 
ATOM     13  C   LIG A   1      -5.312  -0.651 129.187  0.00  0.00    +0.121 C 
ATOM     14  C   LIG A   1      -6.745   0.069 129.458  0.00  0.00    +0.000 C 
ATOM     15  C   LIG A   1      -6.914   1.242 128.465  0.00  0.00    +0.014 C 
ATOM     16  C   LIG A   1      -7.711  -1.155 129.508  0.00  0.00    +0.001 C 
ATOM     17  C   LIG A   1      -7.403  -1.729 130.920  0.00  0.00    +0.005 C 
ATOM     18  C   LIG A   1      -6.963  -0.531 131.812  0.00  0.00    +0.005 C 
ATOM     19  C   LIG A   1      -7.087   0.700 130.934  0.00  0.00    +0.001 C 
ENDROOT
BRANCH  19  20
ATOM     20  C   LIG A   1      -8.539   1.507 131.239  0.00  0.00    -0.010 C 
ATOM     21  C   LIG A   1      -8.899   2.553 130.132  0.00  0.00    +0.008 C 
BRANCH  20  22
ATOM     22  C   LIG A   1      -8.936   2.244 132.668  0.00  0.00    +0.008 C 
BRANCH  22  23
ATOM     23  C   LIG A   1      -7.919   3.237 133.422  0.00  0.00    +0.030 C 
BRANCH  23  24
ATOM     24  C   LIG A   1      -8.225   4.706 134.027  0.00  0.00    -0.074 C 
ATOM     25  C   LIG A   1      -7.823   5.049 135.277  0.00  0.00    +0.008 C 
BRANCH  24  26
ATOM     26  C   LIG A   1      -8.623   5.848 133.018  0.00  0.00    +0.008 C 
ATOM     27  C   LIG A   1      -7.760   6.144 131.764  0.00  0.00    +0.012 C 
ATOM     28  C   LIG A   1     -10.088   5.814 132.502  0.00  0.00    +0.012 C 
ENDBRANCH  24  26
ENDBRANCH  23  24
ENDBRANCH  22  23
ENDBRANCH  20  22
ENDBRANCH  19  20
BRANCH  13  29
ATOM     29  O   LIG A   1      -4.237   0.292 129.164  0.00  0.00    -0.391 OA
ATOM     30  H   LIG A   1      -4.126   0.647 130.068  0.00  0.00    +0.210 HD
ENDBRANCH  13  29
BRANCH   5  31
ATOM     31  O   LIG A   1      -8.176  -0.614 123.305  0.00  0.00    -0.461 OA
BRANCH  31  32
ATOM     32  C   LIG A   1      -9.294   0.057 123.174  0.00  0.00    +0.307 C 
ATOM     33  O   LIG A   1     -10.314  -0.299 122.371  0.00  0.00    -0.251 OA
BRANCH  32  34
ATOM     34  C   LIG A   1      -9.191   1.455 123.837  0.00  0.00    +0.120 C 
BRANCH  34  35
ATOM     35  C   LIG A   1      -8.537   2.651 123.064  0.00  0.00    +0.011 C 
BRANCH  35  36
ATOM     36  C   LIG A   1      -6.982   2.605 122.793  0.00  0.00    +0.000 C 
BRANCH  36  37
ATOM     37  C   LIG A   1      -6.004   3.688 123.395  0.00  0.00    +0.000 C 
BRANCH  37  38
ATOM     38  C   LIG A   1      -5.770   3.443 124.897  0.00  0.00    -0.000 C 
BRANCH  38  39
ATOM     39  C   LIG A   1      -4.721   4.137 125.845  0.00  0.00    -0.000 C 
BRANCH  39  40
ATOM     40  C   LIG A   1      -3.874   3.082 126.621  0.00  0.00    -0.000 C 
BRANCH  40  41
ATOM     41  C   LIG A   1      -2.827   3.200 127.796  0.00  0.00    -0.000 C 
BRANCH  41  42
ATOM     42  C   LIG A   1      -3.357   4.156 129.053  0.00  0.00    -0.000 C 
BRANCH  42  43
ATOM     43  C   LIG A   1      -4.536   3.538 129.910  0.00  0.00    -0.000 C 
BRANCH  43  44
ATOM     44  C   LIG A   1      -4.795   3.524 131.478  0.00  0.00    -0.000 C 
BRANCH  44  45
ATOM     45  C   LIG A   1      -4.405   4.617 132.538  0.00  0.00    -0.000 C 
BRANCH  45  46
ATOM     46  C   LIG A   1      -2.993   4.838 133.163  0.00  0.00    -0.000 C 
BRANCH  46  47
ATOM     47  C   LIG A   1      -1.718   4.842 132.313  0.00  0.00    -0.003 C 
ATOM     48  C   LIG A   1      -0.815   6.041 132.453  0.00  0.00    +0.004 C 
ENDBRANCH  46  47
ENDBRANCH  45  46
ENDBRANCH  44  45
ENDBRANCH  43  44
ENDBRANCH  42  43
ENDBRANCH  41  42
ENDBRANCH  40  41
ENDBRANCH  39  40
ENDBRANCH  38  39
ENDBRANCH  37  38
ENDBRANCH  36  37
ENDBRANCH  35  36
ENDBRANCH  34  35
ENDBRANCH  32  34
ENDBRANCH  31  32
ENDBRANCH   5  31
TORSDOF 22
ENDMDL
MODEL 9
REMARK VINA RESULT:      -7.3      2.475      7.544
REMARK  Name = NuBBE_987
REMARK  28 active torsions:
REMARK  status: ('A' for Active; 'I' for Inactive)
REMARK    1  A    between atoms: C_1  and  C_2
REMARK    2  A    between atoms: C_5  and  O_7
REMARK    3  A    between atoms: O_7  and  C_8
REMARK    4  A    between atoms: C_8  and  C_9
REMARK    5  A    between atoms: C_9  and  C_10
REMARK    6  A    between atoms: C_10  and  C_11
REMARK    7  A    between atoms: C_11  and  C_12
REMARK    8  A    between atoms: C_12  and  C_13
REMARK    9  A    between atoms: C_13  and  C_14
REMARK   10  A    between atoms: C_14  and  C_15
REMARK   11  A    between atoms: C_15  and  C_16
REMARK   12  A    between atoms: C_16  and  C_17
REMARK   13  A    between atoms: C_17  and  C_18
REMARK   14  A    between atoms: C_18  and  C_19
REMARK   15  A    between atoms: C_19  and  C_20
REMARK   16  A    between atoms: C_20  and  C_21
REMARK   17  A    between atoms: C_21  and  C_22
REMARK   18  A    between atoms: C_22  and  C_23
REMARK   19  A    between atoms: C_32  and  O_34
REMARK   20  A    between atoms: C_35  and  C_36
REMARK   21  A    between atoms: C_40  and  C_42
REMARK   22  A    between atoms: C_42  and  C_44
REMARK   23  A    between atoms: C_42  and  C_45
REMARK   24  A    between atoms: C_45  and  C_46
REMARK   25  A    between atoms: C_46  and  C_47
REMARK   26  A    between atoms: C_47  and  C_48
REMARK   27  A    between atoms: C_48  and  C_49
REMARK   28  A    between atoms: C_48  and  C_50
REMARK                            x       y       z     vdW  Elec       q    Type
REMARK                         _______ _______ _______ _____ _____    ______ ____
ROOT
ATOM      1  C   LIG A   1      -5.395  -0.738 126.370  0.00  0.00    +0.016 C 
ATOM      2  C   LIG A   1      -6.124  -2.081 126.332  0.00  0.00    -0.008 C 
ATOM      3  C   LIG A   1      -7.647  -1.988 126.011  0.00  0.00    -0.064 C 
ATOM      4  C   LIG A   1      -8.075  -1.421 124.643  0.00  0.00    +0.075 C 
ATOM      5  C   LIG A   1      -6.944  -0.918 123.720  0.00  0.00    +0.180 C 
ATOM      6  C   LIG A   1      -5.840  -2.033 123.724  0.00  0.00    +0.046 C 
ATOM      7  C   LIG A   1      -5.537  -2.802 125.087  0.00  0.00    +0.015 C 
ATOM      8  C   LIG A   1      -8.591  -2.405 126.894  0.00  0.00    -0.027 C 
ATOM      9  C   LIG A   1      -8.317  -2.681 128.379  0.00  0.00    +0.031 C 
ATOM     10  C   LIG A   1      -6.978  -1.969 128.722  0.00  0.00    +0.001 C 
ATOM     11  C   LIG A   1      -5.903  -2.684 127.829  0.00  0.00    +0.005 C 
ATOM     12  C   LIG A   1      -4.464  -2.572 128.390  0.00  0.00    +0.036 C 
ATOM     13  C   LIG A   1      -4.249  -1.972 129.834  0.00  0.00    +0.121 C 
ATOM     14  C   LIG A   1      -5.232  -0.759 130.291  0.00  0.00    +0.000 C 
ATOM     15  C   LIG A   1      -4.817   0.532 129.547  0.00  0.00    +0.014 C 
ATOM     16  C   LIG A   1      -6.639  -1.417 130.142  0.00  0.00    +0.001 C 
ATOM     17  C   LIG A   1      -6.687  -2.322 131.405  0.00  0.00    +0.005 C 
ATOM     18  C   LIG A   1      -5.813  -1.632 132.492  0.00  0.00    +0.005 C 
ATOM     19  C   LIG A   1      -5.337  -0.332 131.872  0.00  0.00    +0.001 C 
ENDROOT
BRANCH  19  20
ATOM     20  C   LIG A   1      -6.301   0.959 132.380  0.00  0.00    -0.010 C 
ATOM     21  C   LIG A   1      -5.743   1.671 133.656  0.00  0.00    +0.008 C 
BRANCH  20  22
ATOM     22  C   LIG A   1      -7.940   0.889 132.612  0.00  0.00    +0.008 C 
BRANCH  22  23
ATOM     23  C   LIG A   1      -8.974   0.947 131.383  0.00  0.00    +0.030 C 
BRANCH  23  24
ATOM     24  C   LIG A   1      -9.160   2.126 130.290  0.00  0.00    -0.074 C 
ATOM     25  C   LIG A   1      -9.941   3.205 130.546  0.00  0.00    +0.008 C 
BRANCH  24  26
ATOM     26  C   LIG A   1      -8.117   2.206 129.112  0.00  0.00    +0.008 C 
ATOM     27  C   LIG A   1      -8.176   1.211 127.923  0.00  0.00    +0.012 C 
ATOM     28  C   LIG A   1      -7.938   3.605 128.460  0.00  0.00    +0.012 C 
ENDBRANCH  24  26
ENDBRANCH  23  24
ENDBRANCH  22  23
ENDBRANCH  20  22
ENDBRANCH  19  20
BRANCH  13  29
ATOM     29  O   LIG A   1      -2.869  -1.614 129.951  0.00  0.00    -0.391 OA
ATOM     30  H   LIG A   1      -2.398  -2.358 130.375  0.00  0.00    +0.210 HD
ENDBRANCH  13  29
BRANCH   5  31
ATOM     31  O   LIG A   1      -6.498   0.428 124.178  0.00  0.00    -0.461 OA
BRANCH  31  32
ATOM     32  C   LIG A   1      -7.047   1.588 123.913  0.00  0.00    +0.307 C 
ATOM     33  O   LIG A   1      -7.601   1.926 122.734  0.00  0.00    -0.251 OA
BRANCH  32  34
ATOM     34  C   LIG A   1      -6.735   2.624 125.025  0.00  0.00    +0.120 C 
BRANCH  34  35
ATOM     35  C   LIG A   1      -5.317   2.667 125.689  0.00  0.00    +0.011 C 
BRANCH  35  36
ATOM     36  C   LIG A   1      -4.599   4.067 125.831  0.00  0.00    +0.000 C 
BRANCH  36  37
ATOM     37  C   LIG A   1      -4.906   5.038 127.036  0.00  0.00    +0.000 C 
BRANCH  37  38
ATOM     38  C   LIG A   1      -3.605   5.620 127.618  0.00  0.00    -0.000 C 
BRANCH  38  39
ATOM     39  C   LIG A   1      -2.682   5.011 128.740  0.00  0.00    -0.000 C 
BRANCH  39  40
ATOM     40  C   LIG A   1      -3.461   3.982 129.616  0.00  0.00    -0.000 C 
BRANCH  40  41
ATOM     41  C   LIG A   1      -4.040   4.045 131.083  0.00  0.00    -0.000 C 
BRANCH  41  42
ATOM     42  C   LIG A   1      -5.686   4.297 131.129  0.00  0.00    -0.000 C 
BRANCH  42  43
ATOM     43  C   LIG A   1      -6.127   5.815 131.206  0.00  0.00    -0.000 C 
BRANCH  43  44
ATOM     44  C   LIG A   1      -7.485   6.488 131.683  0.00  0.00    -0.000 C 
BRANCH  44  45
ATOM     45  C   LIG A   1      -8.614   5.868 132.583  0.00  0.00    -0.000 C 
BRANCH  45  46
ATOM     46  C   LIG A   1      -8.469   4.642 133.537  0.00  0.00    -0.000 C 
BRANCH  46  47
ATOM     47  C   LIG A   1      -7.804   4.754 134.913  0.00  0.00    -0.003 C 
ATOM     48  C   LIG A   1      -6.349   5.149 134.932  0.00  0.00    +0.004 C 
ENDBRANCH  46  47
ENDBRANCH  45  46
ENDBRANCH  44  45
ENDBRANCH  43  44
ENDBRANCH  42  43
ENDBRANCH  41  42
ENDBRANCH  40  41
ENDBRANCH  39  40
ENDBRANCH  38  39
ENDBRANCH  37  38
ENDBRANCH  36  37
ENDBRANCH  35  36
ENDBRANCH  34  35
ENDBRANCH  32  34
ENDBRANCH  31  32
ENDBRANCH   5  31
TORSDOF 22
ENDMDL
