MODEL 1
REMARK VINA RESULT:      -8.0      0.000      0.000
REMARK  Name = NuBBE_444
REMARK  24 active torsions:
REMARK  status: ('A' for Active; 'I' for Inactive)
REMARK    1  A    between atoms: C_4  and  O_18
REMARK    2  A    between atoms: C_7  and  O_14
REMARK    3  A    between atoms: C_9  and  C_11
REMARK    4  A    between atoms: C_11  and  O_12
REMARK    5  A    between atoms: O_14  and  C_15
REMARK    6  A    between atoms: C_15  and  C_16
REMARK    7  A    between atoms: O_18  and  C_19
REMARK    8  A    between atoms: C_22  and  C_36
REMARK    9  A    between atoms: C_24  and  O_32
REMARK   10  A    between atoms: C_26  and  O_28
REMARK   11  A    between atoms: O_28  and  C_29
REMARK   12  A    between atoms: C_29  and  C_30
REMARK   13  A    between atoms: O_32  and  C_33
REMARK   14  A    between atoms: C_33  and  C_34
REMARK   15  A    between atoms: C_36  and  O_37
REMARK   16  A    between atoms: O_37  and  C_38
REMARK   17  A    between atoms: C_38  and  C_39
REMARK   18  A    between atoms: C_41  and  O_43
REMARK   19  A    between atoms: O_43  and  C_44
REMARK   20  A    between atoms: C_44  and  C_45
REMARK   21  A    between atoms: C_50  and  C_52
REMARK   22  A    between atoms: C_52  and  O_53
REMARK   23  A    between atoms: O_53  and  C_54
REMARK   24  A    between atoms: C_54  and  C_55
REMARK                            x       y       z     vdW  Elec       q    Type
REMARK                         _______ _______ _______ _____ _____    ______ ____
ROOT
ATOM      1  O   LIG A   1      -8.984   2.117 126.815  0.00  0.00    -0.319 OA
ENDROOT
BRANCH   1   4
ATOM      2  C   LIG A   1      -8.321  -0.167 123.895  0.00  0.00    +0.040 C 
ATOM      3  C   LIG A   1      -8.195   1.096 124.766  0.00  0.00    +0.063 C 
ATOM      4  C   LIG A   1      -8.976   0.892 126.088  0.00  0.00    +0.262 C 
ATOM      5  O   LIG A   1      -8.260  -0.115 126.793  0.00  0.00    -0.311 OA
ATOM      6  C   LIG A   1      -8.359  -1.405 126.181  0.00  0.00    +0.327 C 
ATOM      7  C   LIG A   1      -8.173  -1.475 124.660  0.00  0.00    +0.173 C 
ATOM      8  C   LIG A   1      -9.558   0.154 123.095  0.00  0.00    -0.026 C 
ATOM      9  C   LIG A   1      -9.743   1.478 123.033  0.00  0.00    -0.024 C 
ATOM     10  C   LIG A   1      -8.721   2.220 123.850  0.00  0.00    +0.057 C 
BRANCH   7  11
ATOM     11  C   LIG A   1      -9.024  -2.578 124.092  0.00  0.00    +0.315 C 
ATOM     12  O   LIG A   1      -8.891  -3.121 123.007  0.00  0.00    -0.251 OA
BRANCH  11  13
ATOM     13  O   LIG A   1      -9.991  -2.978 124.943  0.00  0.00    -0.480 OA
ATOM     14  H   LIG A   1     -10.582  -2.204 125.050  0.00  0.00    +0.295 HD
ENDBRANCH  11  13
ENDBRANCH   7  11
BRANCH   6  15
ATOM     15  O   LIG A   1      -7.437  -2.281 126.868  0.00  0.00    -0.434 OA
BRANCH  15  16
ATOM     16  C   LIG A   1      -7.823  -2.695 128.109  0.00  0.00    +0.306 C 
ATOM     17  C   LIG A   1      -8.766  -3.841 127.986  0.00  0.00    +0.136 C 
ATOM     18  O   LIG A   1      -7.523  -2.170 129.176  0.00  0.00    -0.251 OA
ENDBRANCH  15  16
ENDBRANCH   6  15
BRANCH  10  19
ATOM     19  C   LIG A   1      -7.620   2.865 122.969  0.00  0.00    +0.240 C 
BRANCH  19  20
ATOM     20  O   LIG A   1      -8.055   3.396 121.697  0.00  0.00    -0.464 OA
BRANCH  20  21
ATOM     21  C   LIG A   1      -7.077   3.762 120.821  0.00  0.00    +0.304 C 
ATOM     22  C   LIG A   1      -5.712   3.630 121.441  0.00  0.00    +0.136 C 
ATOM     23  O   LIG A   1      -7.261   4.245 119.711  0.00  0.00    -0.251 OA
ENDBRANCH  20  21
ENDBRANCH  19  20
ENDBRANCH  10  19
ENDBRANCH   1   4
BRANCH   1  24
ATOM     24  C   LIG A   1      -7.825   2.366 127.631  0.00  0.00    +0.298 C 
ATOM     25  O   LIG A   1      -8.065   2.000 128.995  0.00  0.00    -0.337 OA
ATOM     26  C   LIG A   1      -7.111   2.511 129.961  0.00  0.00    +0.203 C 
ATOM     27  C   LIG A   1      -7.115   4.074 129.999  0.00  0.00    +0.253 C 
ATOM     28  C   LIG A   1      -7.813   4.683 128.752  0.00  0.00    +0.265 C 
ATOM     29  C   LIG A   1      -7.512   3.882 127.458  0.00  0.00    +0.276 C 
BRANCH  27  30
ATOM     30  O   LIG A   1      -5.816   4.761 130.129  0.00  0.00    -0.455 OA
BRANCH  30  31
ATOM     31  C   LIG A   1      -5.770   6.062 130.489  0.00  0.00    +0.304 C 
ATOM     32  C   LIG A   1      -6.483   6.341 131.785  0.00  0.00    +0.136 C 
ATOM     33  O   LIG A   1      -5.158   6.923 129.879  0.00  0.00    -0.251 OA
ENDBRANCH  30  31
ENDBRANCH  27  30
BRANCH  28  34
ATOM     34  O   LIG A   1      -9.257   4.729 128.939  0.00  0.00    -0.454 OA
BRANCH  34  35
ATOM     35  C   LIG A   1      -9.768   5.743 129.694  0.00  0.00    +0.304 C 
ATOM     36  C   LIG A   1     -10.845   5.224 130.606  0.00  0.00    +0.136 C 
ATOM     37  O   LIG A   1      -9.364   6.899 129.697  0.00  0.00    -0.251 OA
ENDBRANCH  34  35
ENDBRANCH  28  34
BRANCH  26  38
ATOM     38  C   LIG A   1      -7.502   1.886 131.350  0.00  0.00    +0.267 C 
BRANCH  38  39
ATOM     39  O   LIG A   1      -7.805   2.943 132.290  0.00  0.00    -0.462 OA
BRANCH  39  40
ATOM     40  C   LIG A   1      -9.031   2.867 132.887  0.00  0.00    +0.304 C 
ATOM     41  C   LIG A   1      -9.863   1.843 132.174  0.00  0.00    +0.136 C 
ATOM     42  O   LIG A   1      -9.390   3.486 133.879  0.00  0.00    -0.251 OA
ENDBRANCH  39  40
ENDBRANCH  38  39
ENDBRANCH  26  38
BRANCH  29  43
ATOM     43  O   LIG A   1      -6.110   4.029 127.107  0.00  0.00    -0.453 OA
BRANCH  43  44
ATOM     44  C   LIG A   1      -5.862   4.634 125.898  0.00  0.00    +0.304 C 
ATOM     45  C   LIG A   1      -4.848   3.816 125.148  0.00  0.00    +0.136 C 
ATOM     46  O   LIG A   1      -6.460   5.575 125.437  0.00  0.00    -0.251 OA
ENDBRANCH  43  44
ENDBRANCH  29  43
ENDBRANCH   1  24
TORSDOF 18
ENDMDL
MODEL 2
REMARK VINA RESULT:      -8.0      2.827      5.898
REMARK  Name = NuBBE_444
REMARK  24 active torsions:
REMARK  status: ('A' for Active; 'I' for Inactive)
REMARK    1  A    between atoms: C_4  and  O_18
REMARK    2  A    between atoms: C_7  and  O_14
REMARK    3  A    between atoms: C_9  and  C_11
REMARK    4  A    between atoms: C_11  and  O_12
REMARK    5  A    between atoms: O_14  and  C_15
REMARK    6  A    between atoms: C_15  and  C_16
REMARK    7  A    between atoms: O_18  and  C_19
REMARK    8  A    between atoms: C_22  and  C_36
REMARK    9  A    between atoms: C_24  and  O_32
REMARK   10  A    between atoms: C_26  and  O_28
REMARK   11  A    between atoms: O_28  and  C_29
REMARK   12  A    between atoms: C_29  and  C_30
REMARK   13  A    between atoms: O_32  and  C_33
REMARK   14  A    between atoms: C_33  and  C_34
REMARK   15  A    between atoms: C_36  and  O_37
REMARK   16  A    between atoms: O_37  and  C_38
REMARK   17  A    between atoms: C_38  and  C_39
REMARK   18  A    between atoms: C_41  and  O_43
REMARK   19  A    between atoms: O_43  and  C_44
REMARK   20  A    between atoms: C_44  and  C_45
REMARK   21  A    between atoms: C_50  and  C_52
REMARK   22  A    between atoms: C_52  and  O_53
REMARK   23  A    between atoms: O_53  and  C_54
REMARK   24  A    between atoms: C_54  and  C_55
REMARK                            x       y       z     vdW  Elec       q    Type
REMARK                         _______ _______ _______ _____ _____    ______ ____
ROOT
ATOM      1  O   LIG A   1      -7.516   4.534 127.261  0.00  0.00    -0.319 OA
ENDROOT
BRANCH   1   4
ATOM      2  C   LIG A   1      -4.396   3.062 125.751  0.00  0.00    +0.040 C 
ATOM      3  C   LIG A   1      -5.818   3.649 125.778  0.00  0.00    +0.063 C 
ATOM      4  C   LIG A   1      -6.149   4.138 127.210  0.00  0.00    +0.262 C 
ATOM      5  O   LIG A   1      -5.287   5.248 127.434  0.00  0.00    -0.311 OA
ATOM      6  C   LIG A   1      -3.911   4.874 127.552  0.00  0.00    +0.327 C 
ATOM      7  C   LIG A   1      -3.366   3.876 126.523  0.00  0.00    +0.173 C 
ATOM      8  C   LIG A   1      -4.673   1.615 126.071  0.00  0.00    -0.026 C 
ATOM      9  C   LIG A   1      -5.932   1.297 125.745  0.00  0.00    -0.024 C 
ATOM     10  C   LIG A   1      -6.696   2.495 125.251  0.00  0.00    +0.057 C 
BRANCH   7  11
ATOM     11  C   LIG A   1      -2.306   3.016 127.157  0.00  0.00    +0.315 C 
ATOM     12  O   LIG A   1      -1.205   2.754 126.700  0.00  0.00    -0.251 OA
BRANCH  11  13
ATOM     13  O   LIG A   1      -2.671   2.552 128.369  0.00  0.00    -0.480 OA
ATOM     14  H   LIG A   1      -1.864   2.146 128.749  0.00  0.00    +0.295 HD
ENDBRANCH  11  13
ENDBRANCH   7  11
BRANCH   6  15
ATOM     15  O   LIG A   1      -3.132   6.092 127.571  0.00  0.00    -0.434 OA
BRANCH  15  16
ATOM     16  C   LIG A   1      -3.223   6.837 128.709  0.00  0.00    +0.306 C 
ATOM     17  C   LIG A   1      -2.245   6.339 129.717  0.00  0.00    +0.136 C 
ATOM     18  O   LIG A   1      -4.034   7.730 128.930  0.00  0.00    -0.251 OA
ENDBRANCH  15  16
ENDBRANCH   6  15
BRANCH  10  19
ATOM     19  C   LIG A   1      -6.855   2.495 123.709  0.00  0.00    +0.240 C 
BRANCH  19  20
ATOM     20  O   LIG A   1      -6.829   3.790 123.067  0.00  0.00    -0.464 OA
BRANCH  20  21
ATOM     21  C   LIG A   1      -5.789   4.032 122.221  0.00  0.00    +0.304 C 
ATOM     22  C   LIG A   1      -5.731   3.008 121.119  0.00  0.00    +0.136 C 
ATOM     23  O   LIG A   1      -4.932   4.893 122.375  0.00  0.00    -0.251 OA
ENDBRANCH  20  21
ENDBRANCH  19  20
ENDBRANCH  10  19
ENDBRANCH   1   4
BRANCH   1  24
ATOM     24  C   LIG A   1      -8.331   3.842 128.223  0.00  0.00    +0.298 C 
ATOM     25  O   LIG A   1      -9.283   4.727 128.828  0.00  0.00    -0.337 OA
ATOM     26  C   LIG A   1      -9.918   4.237 130.036  0.00  0.00    +0.203 C 
ATOM     27  C   LIG A   1      -8.876   3.992 131.175  0.00  0.00    +0.253 C 
ATOM     28  C   LIG A   1      -7.422   3.941 130.629  0.00  0.00    +0.265 C 
ATOM     29  C   LIG A   1      -7.334   3.232 129.252  0.00  0.00    +0.276 C 
BRANCH  27  30
ATOM     30  O   LIG A   1      -9.048   2.795 132.019  0.00  0.00    -0.455 OA
BRANCH  30  31
ATOM     31  C   LIG A   1      -8.414   2.705 133.207  0.00  0.00    +0.304 C 
ATOM     32  C   LIG A   1      -8.762   3.828 134.148  0.00  0.00    +0.136 C 
ATOM     33  O   LIG A   1      -7.687   1.781 133.532  0.00  0.00    -0.251 OA
ENDBRANCH  30  31
ENDBRANCH  27  30
BRANCH  28  34
ATOM     34  O   LIG A   1      -6.874   5.284 130.491  0.00  0.00    -0.454 OA
BRANCH  34  35
ATOM     35  C   LIG A   1      -7.165   6.193 131.465  0.00  0.00    +0.304 C 
ATOM     36  C   LIG A   1      -6.197   6.063 132.608  0.00  0.00    +0.136 C 
ATOM     37  O   LIG A   1      -8.036   7.050 131.397  0.00  0.00    -0.251 OA
ENDBRANCH  34  35
ENDBRANCH  28  34
BRANCH  26  38
ATOM     38  C   LIG A   1     -10.994   5.310 130.442  0.00  0.00    +0.267 C 
BRANCH  38  39
ATOM     39  O   LIG A   1     -11.388   6.068 129.276  0.00  0.00    -0.462 OA
BRANCH  39  40
ATOM     40  C   LIG A   1     -11.379   7.425 129.424  0.00  0.00    +0.304 C 
ATOM     41  C   LIG A   1     -12.520   7.831 130.308  0.00  0.00    +0.136 C 
ATOM     42  O   LIG A   1     -10.549   8.196 128.963  0.00  0.00    -0.251 OA
ENDBRANCH  39  40
ENDBRANCH  38  39
ENDBRANCH  26  38
BRANCH  29  43
ATOM     43  O   LIG A   1      -7.635   1.820 129.410  0.00  0.00    -0.453 OA
BRANCH  43  44
ATOM     44  C   LIG A   1      -6.568   1.020 129.743  0.00  0.00    +0.304 C 
ATOM     45  C   LIG A   1      -7.090  -0.248 130.360  0.00  0.00    +0.136 C 
ATOM     46  O   LIG A   1      -5.413   1.217 129.455  0.00  0.00    -0.251 OA
ENDBRANCH  43  44
ENDBRANCH  29  43
ENDBRANCH   1  24
TORSDOF 18
ENDMDL
MODEL 3
REMARK VINA RESULT:      -7.9      1.804      3.814
REMARK  Name = NuBBE_444
REMARK  24 active torsions:
REMARK  status: ('A' for Active; 'I' for Inactive)
REMARK    1  A    between atoms: C_4  and  O_18
REMARK    2  A    between atoms: C_7  and  O_14
REMARK    3  A    between atoms: C_9  and  C_11
REMARK    4  A    between atoms: C_11  and  O_12
REMARK    5  A    between atoms: O_14  and  C_15
REMARK    6  A    between atoms: C_15  and  C_16
REMARK    7  A    between atoms: O_18  and  C_19
REMARK    8  A    between atoms: C_22  and  C_36
REMARK    9  A    between atoms: C_24  and  O_32
REMARK   10  A    between atoms: C_26  and  O_28
REMARK   11  A    between atoms: O_28  and  C_29
REMARK   12  A    between atoms: C_29  and  C_30
REMARK   13  A    between atoms: O_32  and  C_33
REMARK   14  A    between atoms: C_33  and  C_34
REMARK   15  A    between atoms: C_36  and  O_37
REMARK   16  A    between atoms: O_37  and  C_38
REMARK   17  A    between atoms: C_38  and  C_39
REMARK   18  A    between atoms: C_41  and  O_43
REMARK   19  A    between atoms: O_43  and  C_44
REMARK   20  A    between atoms: C_44  and  C_45
REMARK   21  A    between atoms: C_50  and  C_52
REMARK   22  A    between atoms: C_52  and  O_53
REMARK   23  A    between atoms: O_53  and  C_54
REMARK   24  A    between atoms: C_54  and  C_55
REMARK                            x       y       z     vdW  Elec       q    Type
REMARK                         _______ _______ _______ _____ _____    ______ ____
ROOT
ATOM      1  O   LIG A   1      -7.294   2.569 126.912  0.00  0.00    -0.319 OA
ENDROOT
BRANCH   1   4
ATOM      2  C   LIG A   1      -8.071   0.149 124.133  0.00  0.00    +0.040 C 
ATOM      3  C   LIG A   1      -7.415   1.363 124.816  0.00  0.00    +0.063 C 
ATOM      4  C   LIG A   1      -7.773   1.363 126.323  0.00  0.00    +0.262 C 
ATOM      5  O   LIG A   1      -7.106   0.230 126.866  0.00  0.00    -0.311 OA
ATOM      6  C   LIG A   1      -7.662  -1.012 126.424  0.00  0.00    +0.327 C 
ATOM      7  C   LIG A   1      -7.976  -1.146 124.928  0.00  0.00    +0.173 C 
ATOM      8  C   LIG A   1      -9.396   0.733 123.714  0.00  0.00    -0.026 C 
ATOM      9  C   LIG A   1      -9.304   2.063 123.597  0.00  0.00    -0.024 C 
ATOM     10  C   LIG A   1      -7.945   2.563 124.007  0.00  0.00    +0.057 C 
BRANCH   7  11
ATOM     11  C   LIG A   1      -9.176  -2.033 124.736  0.00  0.00    +0.315 C 
ATOM     12  O   LIG A   1      -9.562  -2.526 123.688  0.00  0.00    -0.251 OA
BRANCH  11  13
ATOM     13  O   LIG A   1      -9.819  -2.294 125.892  0.00  0.00    -0.480 OA
ATOM     14  H   LIG A   1      -9.185  -2.062 126.602  0.00  0.00    +0.295 HD
ENDBRANCH  11  13
ENDBRANCH   7  11
BRANCH   6  15
ATOM     15  O   LIG A   1      -6.782  -2.066 126.876  0.00  0.00    -0.434 OA
BRANCH  15  16
ATOM     16  C   LIG A   1      -7.139  -2.679 128.041  0.00  0.00    +0.306 C 
ATOM     17  C   LIG A   1      -5.930  -2.917 128.877  0.00  0.00    +0.136 C 
ATOM     18  O   LIG A   1      -8.263  -3.065 128.343  0.00  0.00    -0.251 OA
ENDBRANCH  15  16
ENDBRANCH   6  15
BRANCH  10  19
ATOM     19  C   LIG A   1      -7.061   2.925 122.786  0.00  0.00    +0.240 C 
BRANCH  19  20
ATOM     20  O   LIG A   1      -6.125   4.009 122.978  0.00  0.00    -0.464 OA
BRANCH  20  21
ATOM     21  C   LIG A   1      -5.319   4.315 121.922  0.00  0.00    +0.304 C 
ATOM     22  C   LIG A   1      -5.415   3.273 120.841  0.00  0.00    +0.136 C 
ATOM     23  O   LIG A   1      -4.525   5.247 121.881  0.00  0.00    -0.251 OA
ENDBRANCH  20  21
ENDBRANCH  19  20
ENDBRANCH  10  19
ENDBRANCH   1   4
BRANCH   1  24
ATOM     24  C   LIG A   1      -7.859   2.905 128.192  0.00  0.00    +0.298 C 
ATOM     25  O   LIG A   1      -8.545   4.163 128.141  0.00  0.00    -0.337 OA
ATOM     26  C   LIG A   1      -8.857   4.762 129.424  0.00  0.00    +0.203 C 
ATOM     27  C   LIG A   1      -7.562   5.089 130.235  0.00  0.00    +0.253 C 
ATOM     28  C   LIG A   1      -6.320   4.344 129.670  0.00  0.00    +0.265 C 
ATOM     29  C   LIG A   1      -6.662   2.910 129.188  0.00  0.00    +0.276 C 
BRANCH  27  30
ATOM     30  O   LIG A   1      -7.577   4.833 131.688  0.00  0.00    -0.455 OA
BRANCH  30  31
ATOM     31  C   LIG A   1      -8.647   5.193 132.429  0.00  0.00    +0.304 C 
ATOM     32  C   LIG A   1      -9.251   4.044 133.190  0.00  0.00    +0.136 C 
ATOM     33  O   LIG A   1      -9.053   6.338 132.541  0.00  0.00    -0.251 OA
ENDBRANCH  30  31
ENDBRANCH  27  30
BRANCH  28  34
ATOM     34  O   LIG A   1      -5.740   5.079 128.554  0.00  0.00    -0.454 OA
BRANCH  34  35
ATOM     35  C   LIG A   1      -4.519   5.656 128.738  0.00  0.00    +0.304 C 
ATOM     36  C   LIG A   1      -3.740   4.909 129.785  0.00  0.00    +0.136 C 
ATOM     37  O   LIG A   1      -4.075   6.598 128.095  0.00  0.00    -0.251 OA
ENDBRANCH  34  35
ENDBRANCH  28  34
BRANCH  26  38
ATOM     38  C   LIG A   1      -9.704   6.053 129.121  0.00  0.00    +0.267 C 
BRANCH  38  39
ATOM     39  O   LIG A   1      -9.622   6.367 127.712  0.00  0.00    -0.462 OA
BRANCH  39  40
ATOM     40  C   LIG A   1     -10.619   7.163 127.226  0.00  0.00    +0.304 C 
ATOM     41  C   LIG A   1     -10.638   8.451 127.994  0.00  0.00    +0.136 C 
ATOM     42  O   LIG A   1     -11.352   6.906 126.282  0.00  0.00    -0.251 OA
ENDBRANCH  39  40
ENDBRANCH  38  39
ENDBRANCH  26  38
BRANCH  29  43
ATOM     43  O   LIG A   1      -7.005   2.080 130.329  0.00  0.00    -0.453 OA
BRANCH  43  44
ATOM     44  C   LIG A   1      -6.660   0.753 130.223  0.00  0.00    +0.304 C 
ATOM     45  C   LIG A   1      -7.885  -0.085 130.456  0.00  0.00    +0.136 C 
ATOM     46  O   LIG A   1      -5.595   0.323 129.853  0.00  0.00    -0.251 OA
ENDBRANCH  43  44
ENDBRANCH  29  43
ENDBRANCH   1  24
TORSDOF 18
ENDMDL
MODEL 4
REMARK VINA RESULT:      -7.7      1.398      2.543
REMARK  Name = NuBBE_444
REMARK  24 active torsions:
REMARK  status: ('A' for Active; 'I' for Inactive)
REMARK    1  A    between atoms: C_4  and  O_18
REMARK    2  A    between atoms: C_7  and  O_14
REMARK    3  A    between atoms: C_9  and  C_11
REMARK    4  A    between atoms: C_11  and  O_12
REMARK    5  A    between atoms: O_14  and  C_15
REMARK    6  A    between atoms: C_15  and  C_16
REMARK    7  A    between atoms: O_18  and  C_19
REMARK    8  A    between atoms: C_22  and  C_36
REMARK    9  A    between atoms: C_24  and  O_32
REMARK   10  A    between atoms: C_26  and  O_28
REMARK   11  A    between atoms: O_28  and  C_29
REMARK   12  A    between atoms: C_29  and  C_30
REMARK   13  A    between atoms: O_32  and  C_33
REMARK   14  A    between atoms: C_33  and  C_34
REMARK   15  A    between atoms: C_36  and  O_37
REMARK   16  A    between atoms: O_37  and  C_38
REMARK   17  A    between atoms: C_38  and  C_39
REMARK   18  A    between atoms: C_41  and  O_43
REMARK   19  A    between atoms: O_43  and  C_44
REMARK   20  A    between atoms: C_44  and  C_45
REMARK   21  A    between atoms: C_50  and  C_52
REMARK   22  A    between atoms: C_52  and  O_53
REMARK   23  A    between atoms: O_53  and  C_54
REMARK   24  A    between atoms: C_54  and  C_55
REMARK                            x       y       z     vdW  Elec       q    Type
REMARK                         _______ _______ _______ _____ _____    ______ ____
ROOT
ATOM      1  O   LIG A   1      -9.253   1.650 126.668  0.00  0.00    -0.319 OA
ENDROOT
BRANCH   1   4
ATOM      2  C   LIG A   1      -8.213  -0.783 123.989  0.00  0.00    +0.040 C 
ATOM      3  C   LIG A   1      -8.225   0.537 124.779  0.00  0.00    +0.063 C 
ATOM      4  C   LIG A   1      -9.123   0.382 126.031  0.00  0.00    +0.262 C 
ATOM      5  O   LIG A   1      -8.440  -0.542 126.870  0.00  0.00    -0.311 OA
ATOM      6  C   LIG A   1      -8.426  -1.872 126.341  0.00  0.00    +0.327 C 
ATOM      7  C   LIG A   1      -8.088  -2.032 124.854  0.00  0.00    +0.173 C 
ATOM      8  C   LIG A   1      -9.377  -0.574 123.054  0.00  0.00    -0.026 C 
ATOM      9  C   LIG A   1      -9.609   0.733 122.884  0.00  0.00    -0.024 C 
ATOM     10  C   LIG A   1      -8.703   1.574 123.743  0.00  0.00    +0.057 C 
BRANCH   7  11
ATOM     11  C   LIG A   1      -8.833  -3.208 124.283  0.00  0.00    +0.315 C 
ATOM     12  O   LIG A   1      -9.837  -3.172 123.590  0.00  0.00    -0.251 OA
BRANCH  11  13
ATOM     13  O   LIG A   1      -8.251  -4.386 124.585  0.00  0.00    -0.480 OA
ATOM     14  H   LIG A   1      -7.555  -4.174 125.241  0.00  0.00    +0.295 HD
ENDBRANCH  11  13
ENDBRANCH   7  11
BRANCH   6  15
ATOM     15  O   LIG A   1      -7.540  -2.658 127.172  0.00  0.00    -0.434 OA
BRANCH  15  16
ATOM     16  C   LIG A   1      -8.075  -3.121 128.337  0.00  0.00    +0.306 C 
ATOM     17  C   LIG A   1      -9.130  -4.130 128.042  0.00  0.00    +0.136 C 
ATOM     18  O   LIG A   1      -7.808  -2.725 129.467  0.00  0.00    -0.251 OA
ENDBRANCH  15  16
ENDBRANCH   6  15
BRANCH  10  19
ATOM     19  C   LIG A   1      -7.548   2.211 122.929  0.00  0.00    +0.240 C 
BRANCH  19  20
ATOM     20  O   LIG A   1      -7.930   3.227 121.973  0.00  0.00    -0.464 OA
BRANCH  20  21
ATOM     21  C   LIG A   1      -6.942   3.710 121.167  0.00  0.00    +0.304 C 
ATOM     22  C   LIG A   1      -5.645   3.852 121.918  0.00  0.00    +0.136 C 
ATOM     23  O   LIG A   1      -7.089   4.093 120.013  0.00  0.00    -0.251 OA
ENDBRANCH  20  21
ENDBRANCH  19  20
ENDBRANCH  10  19
ENDBRANCH   1   4
BRANCH   1  24
ATOM     24  C   LIG A   1      -8.506   1.815 127.887  0.00  0.00    +0.298 C 
ATOM     25  O   LIG A   1      -9.251   2.569 128.852  0.00  0.00    -0.337 OA
ATOM     26  C   LIG A   1      -8.488   3.086 129.972  0.00  0.00    +0.203 C 
ATOM     27  C   LIG A   1      -7.385   4.088 129.501  0.00  0.00    +0.253 C 
ATOM     28  C   LIG A   1      -7.113   3.977 127.976  0.00  0.00    +0.265 C 
ATOM     29  C   LIG A   1      -7.178   2.512 127.471  0.00  0.00    +0.276 C 
BRANCH  27  30
ATOM     30  O   LIG A   1      -6.070   4.024 130.166  0.00  0.00    -0.455 OA
BRANCH  30  31
ATOM     31  C   LIG A   1      -5.089   4.883 129.814  0.00  0.00    +0.304 C 
ATOM     32  C   LIG A   1      -3.800   4.193 129.459  0.00  0.00    +0.136 C 
ATOM     33  O   LIG A   1      -5.233   6.091 129.718  0.00  0.00    -0.251 OA
ENDBRANCH  30  31
ENDBRANCH  27  30
BRANCH  28  34
ATOM     34  O   LIG A   1      -8.076   4.767 127.221  0.00  0.00    -0.454 OA
BRANCH  34  35
ATOM     35  C   LIG A   1      -7.971   4.769 125.862  0.00  0.00    +0.304 C 
ATOM     36  C   LIG A   1      -6.566   5.103 125.445  0.00  0.00    +0.136 C 
ATOM     37  O   LIG A   1      -8.864   4.466 125.081  0.00  0.00    -0.251 OA
ENDBRANCH  34  35
ENDBRANCH  28  34
BRANCH  26  38
ATOM     38  C   LIG A   1      -9.522   3.762 130.945  0.00  0.00    +0.267 C 
BRANCH  38  39
ATOM     39  O   LIG A   1      -9.486   5.196 130.772  0.00  0.00    -0.462 OA
BRANCH  39  40
ATOM     40  C   LIG A   1     -10.579   5.746 130.167  0.00  0.00    +0.304 C 
ATOM     41  C   LIG A   1     -11.553   6.189 131.219  0.00  0.00    +0.136 C 
ATOM     42  O   LIG A   1     -10.733   5.909 128.965  0.00  0.00    -0.251 OA
ENDBRANCH  39  40
ENDBRANCH  38  39
ENDBRANCH  26  38
BRANCH  29  43
ATOM     43  O   LIG A   1      -6.065   1.756 128.020  0.00  0.00    -0.453 OA
BRANCH  43  44
ATOM     44  C   LIG A   1      -5.324   1.044 127.107  0.00  0.00    +0.304 C 
ATOM     45  C   LIG A   1      -4.492   2.005 126.304  0.00  0.00    +0.136 C 
ATOM     46  O   LIG A   1      -5.229  -0.158 127.051  0.00  0.00    -0.251 OA
ENDBRANCH  43  44
ENDBRANCH  29  43
ENDBRANCH   1  24
TORSDOF 18
ENDMDL
MODEL 5
REMARK VINA RESULT:      -7.7      2.139      8.077
REMARK  Name = NuBBE_444
REMARK  24 active torsions:
REMARK  status: ('A' for Active; 'I' for Inactive)
REMARK    1  A    between atoms: C_4  and  O_18
REMARK    2  A    between atoms: C_7  and  O_14
REMARK    3  A    between atoms: C_9  and  C_11
REMARK    4  A    between atoms: C_11  and  O_12
REMARK    5  A    between atoms: O_14  and  C_15
REMARK    6  A    between atoms: C_15  and  C_16
REMARK    7  A    between atoms: O_18  and  C_19
REMARK    8  A    between atoms: C_22  and  C_36
REMARK    9  A    between atoms: C_24  and  O_32
REMARK   10  A    between atoms: C_26  and  O_28
REMARK   11  A    between atoms: O_28  and  C_29
REMARK   12  A    between atoms: C_29  and  C_30
REMARK   13  A    between atoms: O_32  and  C_33
REMARK   14  A    between atoms: C_33  and  C_34
REMARK   15  A    between atoms: C_36  and  O_37
REMARK   16  A    between atoms: O_37  and  C_38
REMARK   17  A    between atoms: C_38  and  C_39
REMARK   18  A    between atoms: C_41  and  O_43
REMARK   19  A    between atoms: O_43  and  C_44
REMARK   20  A    between atoms: C_44  and  C_45
REMARK   21  A    between atoms: C_50  and  C_52
REMARK   22  A    between atoms: C_52  and  O_53
REMARK   23  A    between atoms: O_53  and  C_54
REMARK   24  A    between atoms: C_54  and  C_55
REMARK                            x       y       z     vdW  Elec       q    Type
REMARK                         _______ _______ _______ _____ _____    ______ ____
ROOT
ATOM      1  O   LIG A   1      -6.779   4.003 128.877  0.00  0.00    -0.319 OA
ENDROOT
BRANCH   1   4
ATOM      2  C   LIG A   1      -8.257   6.562 131.210  0.00  0.00    +0.040 C 
ATOM      3  C   LIG A   1      -7.224   5.947 130.249  0.00  0.00    +0.063 C 
ATOM      4  C   LIG A   1      -7.797   4.644 129.639  0.00  0.00    +0.262 C 
ATOM      5  O   LIG A   1      -8.871   5.063 128.806  0.00  0.00    -0.311 OA
ATOM      6  C   LIG A   1      -9.989   5.568 129.544  0.00  0.00    +0.327 C 
ATOM      7  C   LIG A   1      -9.688   6.543 130.689  0.00  0.00    +0.173 C 
ATOM      8  C   LIG A   1      -7.872   5.905 132.511  0.00  0.00    -0.026 C 
ATOM      9  C   LIG A   1      -6.591   5.516 132.477  0.00  0.00    -0.024 C 
ATOM     10  C   LIG A   1      -5.970   5.773 131.130  0.00  0.00    +0.057 C 
BRANCH   7  11
ATOM     11  C   LIG A   1     -10.702   6.368 131.788  0.00  0.00    +0.315 C 
ATOM     12  O   LIG A   1     -10.631   6.805 132.926  0.00  0.00    -0.251 OA
BRANCH  11  13
ATOM     13  O   LIG A   1     -11.788   5.678 131.387  0.00  0.00    -0.480 OA
ATOM     14  H   LIG A   1     -12.331   5.552 132.193  0.00  0.00    +0.295 HD
ENDBRANCH  11  13
ENDBRANCH   7  11
BRANCH   6  15
ATOM     15  O   LIG A   1     -10.913   6.140 128.591  0.00  0.00    -0.434 OA
BRANCH  15  16
ATOM     16  C   LIG A   1     -10.356   6.903 127.608  0.00  0.00    +0.306 C 
ATOM     17  C   LIG A   1     -10.561   8.346 127.913  0.00  0.00    +0.136 C 
ATOM     18  O   LIG A   1      -9.835   6.492 126.577  0.00  0.00    -0.251 OA
ENDBRANCH  15  16
ENDBRANCH   6  15
BRANCH  10  19
ATOM     19  C   LIG A   1      -5.043   7.015 131.139  0.00  0.00    +0.240 C 
BRANCH  19  20
ATOM     20  O   LIG A   1      -4.762   7.607 129.851  0.00  0.00    -0.464 OA
BRANCH  20  21
ATOM     21  C   LIG A   1      -3.902   6.926 129.040  0.00  0.00    +0.304 C 
ATOM     22  C   LIG A   1      -2.566   6.729 129.704  0.00  0.00    +0.136 C 
ATOM     23  O   LIG A   1      -4.123   6.606 127.879  0.00  0.00    -0.251 OA
ENDBRANCH  20  21
ENDBRANCH  19  20
ENDBRANCH  10  19
ENDBRANCH   1   4
BRANCH   1  24
ATOM     24  C   LIG A   1      -7.231   3.270 127.724  0.00  0.00    +0.298 C 
ATOM     25  O   LIG A   1      -7.431   1.885 128.036  0.00  0.00    -0.337 OA
ATOM     26  C   LIG A   1      -7.555   0.994 126.899  0.00  0.00    +0.203 C 
ATOM     27  C   LIG A   1      -6.254   0.986 126.032  0.00  0.00    +0.253 C 
ATOM     28  C   LIG A   1      -5.335   2.197 126.355  0.00  0.00    +0.265 C 
ATOM     29  C   LIG A   1      -6.142   3.491 126.634  0.00  0.00    +0.276 C 
BRANCH  27  30
ATOM     30  O   LIG A   1      -6.405   0.955 124.566  0.00  0.00    -0.455 OA
BRANCH  30  31
ATOM     31  C   LIG A   1      -7.630   0.825 124.012  0.00  0.00    +0.304 C 
ATOM     32  C   LIG A   1      -7.882  -0.550 123.454  0.00  0.00    +0.136 C 
ATOM     33  O   LIG A   1      -8.484   1.696 124.017  0.00  0.00    -0.251 OA
ENDBRANCH  30  31
ENDBRANCH  27  30
BRANCH  28  34
ATOM     34  O   LIG A   1      -4.499   1.916 127.514  0.00  0.00    -0.454 OA
BRANCH  34  35
ATOM     35  C   LIG A   1      -3.510   2.804 127.816  0.00  0.00    +0.304 C 
ATOM     36  C   LIG A   1      -2.603   3.001 126.633  0.00  0.00    +0.136 C 
ATOM     37  O   LIG A   1      -3.408   3.422 128.868  0.00  0.00    -0.251 OA
ENDBRANCH  34  35
ENDBRANCH  28  34
BRANCH  26  38
ATOM     38  C   LIG A   1      -7.886  -0.430 127.479  0.00  0.00    +0.267 C 
BRANCH  38  39
ATOM     39  O   LIG A   1      -7.233  -1.443 126.681  0.00  0.00    -0.462 OA
BRANCH  39  40
ATOM     40  C   LIG A   1      -7.847  -2.662 126.660  0.00  0.00    +0.304 C 
ATOM     41  C   LIG A   1      -8.274  -3.022 128.052  0.00  0.00    +0.136 C 
ATOM     42  O   LIG A   1      -8.070  -3.341 125.667  0.00  0.00    -0.251 OA
ENDBRANCH  39  40
ENDBRANCH  38  39
ENDBRANCH  26  38
BRANCH  29  43
ATOM     43  O   LIG A   1      -6.790   3.936 125.413  0.00  0.00    -0.453 OA
BRANCH  43  44
ATOM     44  C   LIG A   1      -6.127   4.916 124.713  0.00  0.00    +0.304 C 
ATOM     45  C   LIG A   1      -5.622   4.332 123.424  0.00  0.00    +0.136 C 
ATOM     46  O   LIG A   1      -6.085   6.088 124.997  0.00  0.00    -0.251 OA
ENDBRANCH  43  44
ENDBRANCH  29  43
ENDBRANCH   1  24
TORSDOF 18
ENDMDL
MODEL 6
REMARK VINA RESULT:      -7.7      1.249      1.644
REMARK  Name = NuBBE_444
REMARK  24 active torsions:
REMARK  status: ('A' for Active; 'I' for Inactive)
REMARK    1  A    between atoms: C_4  and  O_18
REMARK    2  A    between atoms: C_7  and  O_14
REMARK    3  A    between atoms: C_9  and  C_11
REMARK    4  A    between atoms: C_11  and  O_12
REMARK    5  A    between atoms: O_14  and  C_15
REMARK    6  A    between atoms: C_15  and  C_16
REMARK    7  A    between atoms: O_18  and  C_19
REMARK    8  A    between atoms: C_22  and  C_36
REMARK    9  A    between atoms: C_24  and  O_32
REMARK   10  A    between atoms: C_26  and  O_28
REMARK   11  A    between atoms: O_28  and  C_29
REMARK   12  A    between atoms: C_29  and  C_30
REMARK   13  A    between atoms: O_32  and  C_33
REMARK   14  A    between atoms: C_33  and  C_34
REMARK   15  A    between atoms: C_36  and  O_37
REMARK   16  A    between atoms: O_37  and  C_38
REMARK   17  A    between atoms: C_38  and  C_39
REMARK   18  A    between atoms: C_41  and  O_43
REMARK   19  A    between atoms: O_43  and  C_44
REMARK   20  A    between atoms: C_44  and  C_45
REMARK   21  A    between atoms: C_50  and  C_52
REMARK   22  A    between atoms: C_52  and  O_53
REMARK   23  A    between atoms: O_53  and  C_54
REMARK   24  A    between atoms: C_54  and  C_55
REMARK                            x       y       z     vdW  Elec       q    Type
REMARK                         _______ _______ _______ _____ _____    ______ ____
ROOT
ATOM      1  O   LIG A   1      -9.067   2.085 127.167  0.00  0.00    -0.319 OA
ENDROOT
BRANCH   1   4
ATOM      2  C   LIG A   1      -8.289  -0.001 124.131  0.00  0.00    +0.040 C 
ATOM      3  C   LIG A   1      -8.194   1.199 125.090  0.00  0.00    +0.063 C 
ATOM      4  C   LIG A   1      -9.034   0.912 126.360  0.00  0.00    +0.262 C 
ATOM      5  O   LIG A   1      -8.356  -0.147 127.026  0.00  0.00    -0.311 OA
ATOM      6  C   LIG A   1      -8.435  -1.391 126.323  0.00  0.00    +0.327 C 
ATOM      7  C   LIG A   1      -8.182  -1.360 124.811  0.00  0.00    +0.173 C 
ATOM      8  C   LIG A   1      -9.486   0.385 123.301  0.00  0.00    -0.026 C 
ATOM      9  C   LIG A   1      -9.661   1.712 123.321  0.00  0.00    -0.024 C 
ATOM     10  C   LIG A   1      -8.672   2.387 124.232  0.00  0.00    +0.057 C 
BRANCH   7  11
ATOM     11  C   LIG A   1      -9.014  -2.414 124.131  0.00  0.00    +0.315 C 
ATOM     12  O   LIG A   1      -8.870  -2.841 122.997  0.00  0.00    -0.251 OA
BRANCH  11  13
ATOM     13  O   LIG A   1      -9.974  -2.915 124.935  0.00  0.00    -0.480 OA
ATOM     14  H   LIG A   1     -10.720  -2.283 124.876  0.00  0.00    +0.295 HD
ENDBRANCH  11  13
ENDBRANCH   7  11
BRANCH   6  15
ATOM     15  O   LIG A   1      -7.549  -2.320 126.988  0.00  0.00    -0.434 OA
BRANCH  15  16
ATOM     16  C   LIG A   1      -8.139  -3.178 127.868  0.00  0.00    +0.306 C 
ATOM     17  C   LIG A   1      -7.478  -3.071 129.198  0.00  0.00    +0.136 C 
ATOM     18  O   LIG A   1      -9.024  -3.987 127.610  0.00  0.00    -0.251 OA
ENDBRANCH  15  16
ENDBRANCH   6  15
BRANCH  10  19
ATOM     19  C   LIG A   1      -7.530   3.080 123.446  0.00  0.00    +0.240 C 
BRANCH  19  20
ATOM     20  O   LIG A   1      -7.692   3.140 122.010  0.00  0.00    -0.464 OA
BRANCH  20  21
ATOM     21  C   LIG A   1      -6.677   3.715 121.304  0.00  0.00    +0.304 C 
ATOM     22  C   LIG A   1      -5.534   4.099 122.205  0.00  0.00    +0.136 C 
ATOM     23  O   LIG A   1      -6.711   3.997 120.113  0.00  0.00    -0.251 OA
ENDBRANCH  20  21
ENDBRANCH  19  20
ENDBRANCH  10  19
ENDBRANCH   1   4
BRANCH   1  24
ATOM     24  C   LIG A   1      -8.127   2.119 128.256  0.00  0.00    +0.298 C 
ATOM     25  O   LIG A   1      -8.769   1.830 129.505  0.00  0.00    -0.337 OA
ATOM     26  C   LIG A   1      -8.012   2.164 130.695  0.00  0.00    +0.203 C 
ATOM     27  C   LIG A   1      -7.726   3.698 130.782  0.00  0.00    +0.253 C 
ATOM     28  C   LIG A   1      -7.955   4.409 129.419  0.00  0.00    +0.265 C 
ATOM     29  C   LIG A   1      -7.496   3.542 128.218  0.00  0.00    +0.276 C 
BRANCH  27  30
ATOM     30  O   LIG A   1      -6.396   4.124 131.257  0.00  0.00    -0.455 OA
BRANCH  30  31
ATOM     31  C   LIG A   1      -6.270   4.765 132.438  0.00  0.00    +0.304 C 
ATOM     32  C   LIG A   1      -5.946   6.227 132.283  0.00  0.00    +0.136 C 
ATOM     33  O   LIG A   1      -6.466   4.250 133.526  0.00  0.00    -0.251 OA
ENDBRANCH  30  31
ENDBRANCH  27  30
BRANCH  28  34
ATOM     34  O   LIG A   1      -9.363   4.737 129.239  0.00  0.00    -0.454 OA
BRANCH  34  35
ATOM     35  C   LIG A   1      -9.686   6.038 128.990  0.00  0.00    +0.304 C 
ATOM     36  C   LIG A   1      -9.593   6.851 130.252  0.00  0.00    +0.136 C 
ATOM     37  O   LIG A   1      -9.940   6.508 127.889  0.00  0.00    -0.251 OA
ENDBRANCH  34  35
ENDBRANCH  28  34
BRANCH  26  38
ATOM     38  C   LIG A   1      -8.854   1.651 131.920  0.00  0.00    +0.267 C 
BRANCH  38  39
ATOM     39  O   LIG A   1      -7.966   1.275 132.997  0.00  0.00    -0.462 OA
BRANCH  39  40
ATOM     40  C   LIG A   1      -7.142   0.217 132.739  0.00  0.00    +0.304 C 
ATOM     41  C   LIG A   1      -7.975  -0.997 132.451  0.00  0.00    +0.136 C 
ATOM     42  O   LIG A   1      -5.920   0.249 132.692  0.00  0.00    -0.251 OA
ENDBRANCH  39  40
ENDBRANCH  38  39
ENDBRANCH  26  38
BRANCH  29  43
ATOM     43  O   LIG A   1      -6.050   3.409 128.236  0.00  0.00    -0.453 OA
BRANCH  43  44
ATOM     44  C   LIG A   1      -5.385   4.012 127.194  0.00  0.00    +0.304 C 
ATOM     45  C   LIG A   1      -4.997   2.958 126.195  0.00  0.00    +0.136 C 
ATOM     46  O   LIG A   1      -5.263   5.200 127.021  0.00  0.00    -0.251 OA
ENDBRANCH  43  44
ENDBRANCH  29  43
ENDBRANCH   1  24
TORSDOF 18
ENDMDL
MODEL 7
REMARK VINA RESULT:      -7.7      3.179      7.637
REMARK  Name = NuBBE_444
REMARK  24 active torsions:
REMARK  status: ('A' for Active; 'I' for Inactive)
REMARK    1  A    between atoms: C_4  and  O_18
REMARK    2  A    between atoms: C_7  and  O_14
REMARK    3  A    between atoms: C_9  and  C_11
REMARK    4  A    between atoms: C_11  and  O_12
REMARK    5  A    between atoms: O_14  and  C_15
REMARK    6  A    between atoms: C_15  and  C_16
REMARK    7  A    between atoms: O_18  and  C_19
REMARK    8  A    between atoms: C_22  and  C_36
REMARK    9  A    between atoms: C_24  and  O_32
REMARK   10  A    between atoms: C_26  and  O_28
REMARK   11  A    between atoms: O_28  and  C_29
REMARK   12  A    between atoms: C_29  and  C_30
REMARK   13  A    between atoms: O_32  and  C_33
REMARK   14  A    between atoms: C_33  and  C_34
REMARK   15  A    between atoms: C_36  and  O_37
REMARK   16  A    between atoms: O_37  and  C_38
REMARK   17  A    between atoms: C_38  and  C_39
REMARK   18  A    between atoms: C_41  and  O_43
REMARK   19  A    between atoms: O_43  and  C_44
REMARK   20  A    between atoms: C_44  and  C_45
REMARK   21  A    between atoms: C_50  and  C_52
REMARK   22  A    between atoms: C_52  and  O_53
REMARK   23  A    between atoms: O_53  and  C_54
REMARK   24  A    between atoms: C_54  and  C_55
REMARK                            x       y       z     vdW  Elec       q    Type
REMARK                         _______ _______ _______ _____ _____    ______ ____
ROOT
ATOM      1  O   LIG A   1      -8.690   3.619 128.582  0.00  0.00    -0.319 OA
ENDROOT
BRANCH   1   4
ATOM      2  C   LIG A   1      -9.594   4.838 132.028  0.00  0.00    +0.040 C 
ATOM      3  C   LIG A   1      -9.780   4.569 130.524  0.00  0.00    +0.063 C 
ATOM      4  C   LIG A   1      -8.589   3.729 129.998  0.00  0.00    +0.262 C 
ATOM      5  O   LIG A   1      -8.726   2.456 130.620  0.00  0.00    -0.311 OA
ATOM      6  C   LIG A   1      -8.473   2.491 132.028  0.00  0.00    +0.327 C 
ATOM      7  C   LIG A   1      -9.113   3.633 132.827  0.00  0.00    +0.173 C 
ATOM      8  C   LIG A   1      -8.825   6.134 131.998  0.00  0.00    -0.026 C 
ATOM      9  C   LIG A   1      -9.048   6.784 130.850  0.00  0.00    -0.024 C 
ATOM     10  C   LIG A   1      -9.916   5.981 129.918  0.00  0.00    +0.057 C 
BRANCH   7  11
ATOM     11  C   LIG A   1      -8.219   4.019 133.974  0.00  0.00    +0.315 C 
ATOM     12  O   LIG A   1      -7.007   3.885 134.034  0.00  0.00    -0.251 OA
BRANCH  11  13
ATOM     13  O   LIG A   1      -8.894   4.598 134.987  0.00  0.00    -0.480 OA
ATOM     14  H   LIG A   1      -8.949   3.916 135.689  0.00  0.00    +0.295 HD
ENDBRANCH  11  13
ENDBRANCH   7  11
BRANCH   6  15
ATOM     15  O   LIG A   1      -8.839   1.200 132.565  0.00  0.00    -0.434 OA
BRANCH  15  16
ATOM     16  C   LIG A   1      -7.986   0.175 132.281  0.00  0.00    +0.306 C 
ATOM     17  C   LIG A   1      -6.653   0.446 132.888  0.00  0.00    +0.136 C 
ATOM     18  O   LIG A   1      -8.225  -0.793 131.567  0.00  0.00    -0.251 OA
ENDBRANCH  15  16
ENDBRANCH   6  15
BRANCH  10  19
ATOM     19  C   LIG A   1     -11.376   6.499 129.883  0.00  0.00    +0.240 C 
BRANCH  19  20
ATOM     20  O   LIG A   1     -12.183   6.051 128.771  0.00  0.00    -0.464 OA
BRANCH  20  21
ATOM     21  C   LIG A   1     -12.439   6.966 127.793  0.00  0.00    +0.304 C 
ATOM     22  C   LIG A   1     -12.897   8.275 128.376  0.00  0.00    +0.136 C 
ATOM     23  O   LIG A   1     -12.416   6.744 126.589  0.00  0.00    -0.251 OA
ENDBRANCH  20  21
ENDBRANCH  19  20
ENDBRANCH  10  19
ENDBRANCH   1   4
BRANCH   1  24
ATOM     24  C   LIG A   1      -7.622   4.225 127.831  0.00  0.00    +0.298 C 
ATOM     25  O   LIG A   1      -7.448   3.578 126.564  0.00  0.00    -0.337 OA
ATOM     26  C   LIG A   1      -6.206   3.868 125.874  0.00  0.00    +0.203 C 
ATOM     27  C   LIG A   1      -4.967   3.390 126.698  0.00  0.00    +0.253 C 
ATOM     28  C   LIG A   1      -5.331   3.105 128.181  0.00  0.00    +0.265 C 
ATOM     29  C   LIG A   1      -6.362   4.120 128.740  0.00  0.00    +0.276 C 
BRANCH  27  30
ATOM     30  O   LIG A   1      -3.778   4.262 126.719  0.00  0.00    -0.455 OA
BRANCH  30  31
ATOM     31  C   LIG A   1      -2.719   3.947 127.496  0.00  0.00    +0.304 C 
ATOM     32  C   LIG A   1      -1.786   2.959 126.848  0.00  0.00    +0.136 C 
ATOM     33  O   LIG A   1      -2.486   4.454 128.581  0.00  0.00    -0.251 OA
ENDBRANCH  30  31
ENDBRANCH  27  30
BRANCH  28  34
ATOM     34  O   LIG A   1      -5.879   1.763 128.330  0.00  0.00    -0.454 OA
BRANCH  34  35
ATOM     35  C   LIG A   1      -5.275   0.924 129.218  0.00  0.00    +0.304 C 
ATOM     36  C   LIG A   1      -4.102   1.606 129.868  0.00  0.00    +0.136 C 
ATOM     37  O   LIG A   1      -5.666  -0.197 129.514  0.00  0.00    -0.251 OA
ENDBRANCH  34  35
ENDBRANCH  28  34
BRANCH  26  38
ATOM     38  C   LIG A   1      -6.294   3.155 124.474  0.00  0.00    +0.267 C 
BRANCH  38  39
ATOM     39  O   LIG A   1      -6.554   4.137 123.445  0.00  0.00    -0.462 OA
BRANCH  39  40
ATOM     40  C   LIG A   1      -5.671   4.147 122.404  0.00  0.00    +0.304 C 
ATOM     41  C   LIG A   1      -5.997   3.018 121.472  0.00  0.00    +0.136 C 
ATOM     42  O   LIG A   1      -4.786   4.970 122.216  0.00  0.00    -0.251 OA
ENDBRANCH  39  40
ENDBRANCH  38  39
ENDBRANCH  26  38
BRANCH  29  43
ATOM     43  O   LIG A   1      -5.750   5.433 128.839  0.00  0.00    -0.453 OA
BRANCH  43  44
ATOM     44  C   LIG A   1      -5.627   5.936 130.112  0.00  0.00    +0.304 C 
ATOM     45  C   LIG A   1      -5.397   4.795 131.063  0.00  0.00    +0.136 C 
ATOM     46  O   LIG A   1      -5.556   7.103 130.412  0.00  0.00    -0.251 OA
ENDBRANCH  43  44
ENDBRANCH  29  43
ENDBRANCH   1  24
TORSDOF 18
ENDMDL
MODEL 8
REMARK VINA RESULT:      -7.5      1.762      3.601
REMARK  Name = NuBBE_444
REMARK  24 active torsions:
REMARK  status: ('A' for Active; 'I' for Inactive)
REMARK    1  A    between atoms: C_4  and  O_18
REMARK    2  A    between atoms: C_7  and  O_14
REMARK    3  A    between atoms: C_9  and  C_11
REMARK    4  A    between atoms: C_11  and  O_12
REMARK    5  A    between atoms: O_14  and  C_15
REMARK    6  A    between atoms: C_15  and  C_16
REMARK    7  A    between atoms: O_18  and  C_19
REMARK    8  A    between atoms: C_22  and  C_36
REMARK    9  A    between atoms: C_24  and  O_32
REMARK   10  A    between atoms: C_26  and  O_28
REMARK   11  A    between atoms: O_28  and  C_29
REMARK   12  A    between atoms: C_29  and  C_30
REMARK   13  A    between atoms: O_32  and  C_33
REMARK   14  A    between atoms: C_33  and  C_34
REMARK   15  A    between atoms: C_36  and  O_37
REMARK   16  A    between atoms: O_37  and  C_38
REMARK   17  A    between atoms: C_38  and  C_39
REMARK   18  A    between atoms: C_41  and  O_43
REMARK   19  A    between atoms: O_43  and  C_44
REMARK   20  A    between atoms: C_44  and  C_45
REMARK   21  A    between atoms: C_50  and  C_52
REMARK   22  A    between atoms: C_52  and  O_53
REMARK   23  A    between atoms: O_53  and  C_54
REMARK   24  A    between atoms: C_54  and  C_55
REMARK                            x       y       z     vdW  Elec       q    Type
REMARK                         _______ _______ _______ _____ _____    ______ ____
ROOT
ATOM      1  O   LIG A   1      -7.610   2.388 127.698  0.00  0.00    -0.319 OA
ENDROOT
BRANCH   1   4
ATOM      2  C   LIG A   1      -7.629   1.238 124.112  0.00  0.00    +0.040 C 
ATOM      3  C   LIG A   1      -7.091   1.930 125.377  0.00  0.00    +0.063 C 
ATOM      4  C   LIG A   1      -8.026   1.619 126.572  0.00  0.00    +0.262 C 
ATOM      5  O   LIG A   1      -7.868   0.227 126.819  0.00  0.00    -0.311 OA
ATOM      6  C   LIG A   1      -8.421  -0.591 125.782  0.00  0.00    +0.327 C 
ATOM      7  C   LIG A   1      -8.115  -0.188 124.334  0.00  0.00    +0.173 C 
ATOM      8  C   LIG A   1      -8.529   2.311 123.554  0.00  0.00    -0.026 C 
ATOM      9  C   LIG A   1      -8.147   3.516 123.993  0.00  0.00    -0.024 C 
ATOM     10  C   LIG A   1      -7.006   3.414 124.969  0.00  0.00    +0.057 C 
BRANCH   7  11
ATOM     11  C   LIG A   1      -9.277  -0.549 123.448  0.00  0.00    +0.315 C 
ATOM     12  O   LIG A   1     -10.178   0.190 123.086  0.00  0.00    -0.251 OA
BRANCH  11  13
ATOM     13  O   LIG A   1      -9.227  -1.827 123.022  0.00  0.00    -0.480 OA
ATOM     14  H   LIG A   1      -8.285  -2.089 123.087  0.00  0.00    +0.295 HD
ENDBRANCH  11  13
ENDBRANCH   7  11
BRANCH   6  15
ATOM     15  O   LIG A   1      -8.020  -1.954 126.048  0.00  0.00    -0.434 OA
BRANCH  15  16
ATOM     16  C   LIG A   1      -9.027  -2.820 126.356  0.00  0.00    +0.306 C 
ATOM     17  C   LIG A   1      -8.676  -3.585 127.585  0.00  0.00    +0.136 C 
ATOM     18  O   LIG A   1     -10.040  -3.021 125.695  0.00  0.00    -0.251 OA
ENDBRANCH  15  16
ENDBRANCH   6  15
BRANCH  10  19
ATOM     19  C   LIG A   1      -5.649   3.801 124.327  0.00  0.00    +0.240 C 
BRANCH  19  20
ATOM     20  O   LIG A   1      -5.705   4.778 123.263  0.00  0.00    -0.464 OA
BRANCH  20  21
ATOM     21  C   LIG A   1      -4.996   4.493 122.134  0.00  0.00    +0.304 C 
ATOM     22  C   LIG A   1      -5.652   3.398 121.338  0.00  0.00    +0.136 C 
ATOM     23  O   LIG A   1      -3.906   4.970 121.839  0.00  0.00    -0.251 OA
ENDBRANCH  20  21
ENDBRANCH  19  20
ENDBRANCH  10  19
ENDBRANCH   1   4
BRANCH   1  24
ATOM     24  C   LIG A   1      -8.325   2.139 128.922  0.00  0.00    +0.298 C 
ATOM     25  O   LIG A   1      -9.356   3.114 129.126  0.00  0.00    -0.337 OA
ATOM     26  C   LIG A   1      -9.911   3.173 130.464  0.00  0.00    +0.203 C 
ATOM     27  C   LIG A   1      -8.825   3.567 131.518  0.00  0.00    +0.253 C 
ATOM     28  C   LIG A   1      -7.386   3.402 130.957  0.00  0.00    +0.265 C 
ATOM     29  C   LIG A   1      -7.248   2.156 130.045  0.00  0.00    +0.276 C 
BRANCH  27  30
ATOM     30  O   LIG A   1      -8.849   2.874 132.820  0.00  0.00    -0.455 OA
BRANCH  30  31
ATOM     31  C   LIG A   1      -7.953   3.198 133.778  0.00  0.00    +0.304 C 
ATOM     32  C   LIG A   1      -8.294   4.476 134.496  0.00  0.00    +0.136 C 
ATOM     33  O   LIG A   1      -7.001   2.504 134.093  0.00  0.00    -0.251 OA
ENDBRANCH  30  31
ENDBRANCH  27  30
BRANCH  28  34
ATOM     34  O   LIG A   1      -6.991   4.578 130.194  0.00  0.00    -0.454 OA
BRANCH  34  35
ATOM     35  C   LIG A   1      -6.905   5.767 130.855  0.00  0.00    +0.304 C 
ATOM     36  C   LIG A   1      -5.841   5.699 131.916  0.00  0.00    +0.136 C 
ATOM     37  O   LIG A   1      -7.539   6.778 130.583  0.00  0.00    -0.251 OA
ENDBRANCH  34  35
ENDBRANCH  28  34
BRANCH  26  38
ATOM     38  C   LIG A   1     -11.089   4.213 130.415  0.00  0.00    +0.267 C 
BRANCH  38  39
ATOM     39  O   LIG A   1     -10.557   5.554 130.504  0.00  0.00    -0.462 OA
BRANCH  39  40
ATOM     40  C   LIG A   1     -11.055   6.320 131.519  0.00  0.00    +0.304 C 
ATOM     41  C   LIG A   1     -12.386   6.877 131.108  0.00  0.00    +0.136 C 
ATOM     42  O   LIG A   1     -10.539   6.490 132.615  0.00  0.00    -0.251 OA
ENDBRANCH  39  40
ENDBRANCH  38  39
ENDBRANCH  26  38
BRANCH  29  43
ATOM     43  O   LIG A   1      -7.388   0.949 130.841  0.00  0.00    -0.453 OA
BRANCH  43  44
ATOM     44  C   LIG A   1      -6.926  -0.206 130.256  0.00  0.00    +0.304 C 
ATOM     45  C   LIG A   1      -7.968  -1.278 130.414  0.00  0.00    +0.136 C 
ATOM     46  O   LIG A   1      -5.926  -0.314 129.590  0.00  0.00    -0.251 OA
ENDBRANCH  43  44
ENDBRANCH  29  43
ENDBRANCH   1  24
TORSDOF 18
ENDMDL
MODEL 9
REMARK VINA RESULT:      -7.5      2.191      5.275
REMARK  Name = NuBBE_444
REMARK  24 active torsions:
REMARK  status: ('A' for Active; 'I' for Inactive)
REMARK    1  A    between atoms: C_4  and  O_18
REMARK    2  A    between atoms: C_7  and  O_14
REMARK    3  A    between atoms: C_9  and  C_11
REMARK    4  A    between atoms: C_11  and  O_12
REMARK    5  A    between atoms: O_14  and  C_15
REMARK    6  A    between atoms: C_15  and  C_16
REMARK    7  A    between atoms: O_18  and  C_19
REMARK    8  A    between atoms: C_22  and  C_36
REMARK    9  A    between atoms: C_24  and  O_32
REMARK   10  A    between atoms: C_26  and  O_28
REMARK   11  A    between atoms: O_28  and  C_29
REMARK   12  A    between atoms: C_29  and  C_30
REMARK   13  A    between atoms: O_32  and  C_33
REMARK   14  A    between atoms: C_33  and  C_34
REMARK   15  A    between atoms: C_36  and  O_37
REMARK   16  A    between atoms: O_37  and  C_38
REMARK   17  A    between atoms: C_38  and  C_39
REMARK   18  A    between atoms: C_41  and  O_43
REMARK   19  A    between atoms: O_43  and  C_44
REMARK   20  A    between atoms: C_44  and  C_45
REMARK   21  A    between atoms: C_50  and  C_52
REMARK   22  A    between atoms: C_52  and  O_53
REMARK   23  A    between atoms: O_53  and  C_54
REMARK   24  A    between atoms: C_54  and  C_55
REMARK                            x       y       z     vdW  Elec       q    Type
REMARK                         _______ _______ _______ _____ _____    ______ ____
ROOT
ATOM      1  O   LIG A   1      -6.658   0.471 127.600  0.00  0.00    -0.319 OA
ENDROOT
BRANCH   1   4
ATOM      2  C   LIG A   1      -6.920   2.691 124.570  0.00  0.00    +0.040 C 
ATOM      3  C   LIG A   1      -6.248   2.005 125.772  0.00  0.00    +0.063 C 
ATOM      4  C   LIG A   1      -7.228   0.984 126.400  0.00  0.00    +0.262 C 
ATOM      5  O   LIG A   1      -7.374  -0.042 125.425  0.00  0.00    -0.311 OA
ATOM      6  C   LIG A   1      -8.088   0.388 124.262  0.00  0.00    +0.327 C 
ATOM      7  C   LIG A   1      -7.701   1.747 123.665  0.00  0.00    +0.173 C 
ATOM      8  C   LIG A   1      -7.568   3.877 125.236  0.00  0.00    -0.026 C 
ATOM      9  C   LIG A   1      -6.936   4.175 126.378  0.00  0.00    -0.024 C 
ATOM     10  C   LIG A   1      -5.845   3.184 126.682  0.00  0.00    +0.057 C 
BRANCH   7  11
ATOM     11  C   LIG A   1      -8.913   2.400 123.055  0.00  0.00    +0.315 C 
ATOM     12  O   LIG A   1      -8.924   3.232 122.162  0.00  0.00    -0.251 OA
BRANCH  11  13
ATOM     13  O   LIG A   1     -10.068   1.942 123.579  0.00  0.00    -0.480 OA
ATOM     14  H   LIG A   1     -10.388   2.655 124.170  0.00  0.00    +0.295 HD
ENDBRANCH  11  13
ENDBRANCH   7  11
BRANCH   6  15
ATOM     15  O   LIG A   1      -7.990  -0.668 123.279  0.00  0.00    -0.434 OA
BRANCH  15  16
ATOM     16  C   LIG A   1      -9.148  -1.333 123.004  0.00  0.00    +0.306 C 
ATOM     17  C   LIG A   1      -8.950  -2.795 123.206  0.00  0.00    +0.136 C 
ATOM     18  O   LIG A   1     -10.184  -0.839 122.572  0.00  0.00    -0.251 OA
ENDBRANCH  15  16
ENDBRANCH   6  15
BRANCH  10  19
ATOM     19  C   LIG A   1      -4.436   3.751 126.371  0.00  0.00    +0.240 C 
BRANCH  19  20
ATOM     20  O   LIG A   1      -3.357   2.790 126.342  0.00  0.00    -0.464 OA
BRANCH  20  21
ATOM     21  C   LIG A   1      -2.192   3.161 126.945  0.00  0.00    +0.304 C 
ATOM     22  C   LIG A   1      -2.388   4.376 127.812  0.00  0.00    +0.136 C 
ATOM     23  O   LIG A   1      -1.093   2.660 126.739  0.00  0.00    -0.251 OA
ENDBRANCH  20  21
ENDBRANCH  19  20
ENDBRANCH  10  19
ENDBRANCH   1   4
BRANCH   1  24
ATOM     24  C   LIG A   1      -7.502   0.523 128.764  0.00  0.00    +0.298 C 
ATOM     25  O   LIG A   1      -8.232   1.756 128.819  0.00  0.00    -0.337 OA
ATOM     26  C   LIG A   1      -8.846   2.068 130.096  0.00  0.00    +0.203 C 
ATOM     27  C   LIG A   1      -7.775   2.230 131.222  0.00  0.00    +0.253 C 
ATOM     28  C   LIG A   1      -6.401   1.635 130.807  0.00  0.00    +0.265 C 
ATOM     29  C   LIG A   1      -6.549   0.332 129.980  0.00  0.00    +0.276 C 
BRANCH  27  30
ATOM     30  O   LIG A   1      -8.087   1.673 132.552  0.00  0.00    -0.455 OA
BRANCH  30  31
ATOM     31  C   LIG A   1      -7.273   1.923 133.601  0.00  0.00    +0.304 C 
ATOM     32  C   LIG A   1      -7.315   3.359 134.051  0.00  0.00    +0.136 C 
ATOM     33  O   LIG A   1      -6.620   1.074 134.183  0.00  0.00    -0.251 OA
ENDBRANCH  30  31
ENDBRANCH  27  30
BRANCH  28  34
ATOM     34  O   LIG A   1      -5.639   2.595 130.021  0.00  0.00    -0.454 OA
BRANCH  34  35
ATOM     35  C   LIG A   1      -5.136   3.688 130.663  0.00  0.00    +0.304 C 
ATOM     36  C   LIG A   1      -5.459   4.940 129.896  0.00  0.00    +0.136 C 
ATOM     37  O   LIG A   1      -4.571   3.675 131.748  0.00  0.00    -0.251 OA
ENDBRANCH  34  35
ENDBRANCH  28  34
BRANCH  26  38
ATOM     38  C   LIG A   1      -9.680   3.384 129.881  0.00  0.00    +0.267 C 
BRANCH  38  39
ATOM     39  O   LIG A   1      -8.972   4.506 130.453  0.00  0.00    -0.462 OA
BRANCH  39  40
ATOM     40  C   LIG A   1      -9.079   5.682 129.767  0.00  0.00    +0.304 C 
ATOM     41  C   LIG A   1      -8.783   6.822 130.697  0.00  0.00    +0.136 C 
ATOM     42  O   LIG A   1      -9.320   5.803 128.575  0.00  0.00    -0.251 OA
ENDBRANCH  39  40
ENDBRANCH  38  39
ENDBRANCH  26  38
BRANCH  29  43
ATOM     43  O   LIG A   1      -7.080  -0.725 130.824  0.00  0.00    -0.453 OA
BRANCH  43  44
ATOM     44  C   LIG A   1      -6.265  -1.820 130.987  0.00  0.00    +0.304 C 
ATOM     45  C   LIG A   1      -6.939  -3.019 130.380  0.00  0.00    +0.136 C 
ATOM     46  O   LIG A   1      -5.133  -1.808 131.404  0.00  0.00    -0.251 OA
ENDBRANCH  43  44
ENDBRANCH  29  43
ENDBRANCH   1  24
TORSDOF 18
ENDMDL
