MODEL 1
REMARK VINA RESULT:      -9.7      0.000      0.000
REMARK  Name = NuBBE_75
REMARK  8 active torsions:
REMARK  status: ('A' for Active; 'I' for Inactive)
REMARK    1  A    between atoms: C_1  and  C_2
REMARK    2  A    between atoms: C_4  and  C_5
REMARK    3  A    between atoms: C_4  and  C_10
REMARK    4  A    between atoms: C_14  and  C_34
REMARK    5  A    between atoms: C_21  and  C_33
REMARK    6  A    between atoms: C_24  and  C_32
REMARK    7  A    between atoms: C_27  and  C_28
REMARK    8  A    between atoms: C_27  and  C_31
REMARK                            x       y       z     vdW  Elec       q    Type
REMARK                         _______ _______ _______ _____ _____    ______ ____
ROOT
ATOM      1  C   LIG A   1      -6.819   2.381 129.105  0.00  0.00    +0.012 C 
ATOM      2  C   LIG A   1      -6.172   2.349 130.520  0.00  0.00    -0.025 C 
ATOM      3  C   LIG A   1      -6.357   1.140 131.549  0.00  0.00    +0.008 C 
ATOM      4  C   LIG A   1      -6.119  -0.282 130.969  0.00  0.00    +0.027 C 
ATOM      5  C   LIG A   1      -6.234  -1.408 132.026  0.00  0.00    +0.019 C 
ATOM      6  C   LIG A   1      -4.620  -0.205 130.582  0.00  0.00    +0.139 C 
ATOM      7  C   LIG A   1      -4.244   0.888 129.597  0.00  0.00    +0.075 C 
ATOM      8  C   LIG A   1      -4.623   2.261 130.188  0.00  0.00    +0.015 C 
ATOM      9  O   LIG A   1      -3.762  -0.835 131.144  0.00  0.00    -0.297 OA
ATOM     10  C   LIG A   1      -7.108  -0.662 129.857  0.00  0.00    +0.019 C 
ATOM     11  C   LIG A   1      -7.553   1.221 132.472  0.00  0.00    +0.005 C 
ATOM     12  C   LIG A   1      -7.543   2.576 133.245  0.00  0.00    +0.008 C 
ATOM     13  C   LIG A   1      -7.991   3.699 132.243  0.00  0.00    -0.023 C 
ATOM     14  C   LIG A   1      -6.596   3.704 131.247  0.00  0.00    +0.002 C 
ATOM     15  C   LIG A   1      -6.171   4.986 130.395  0.00  0.00    +0.005 C 
ATOM     16  C   LIG A   1      -6.535   6.384 130.983  0.00  0.00    +0.009 C 
ATOM     17  C   LIG A   1      -8.046   6.322 131.277  0.00  0.00    +0.022 C 
ATOM     18  C   LIG A   1      -8.163   5.245 132.708  0.00  0.00    -0.020 C 
ATOM     19  C   LIG A   1      -9.473   5.559 133.456  0.00  0.00    +0.008 C 
ATOM     20  C   LIG A   1     -10.264   6.462 132.602  0.00  0.00    +0.011 C 
ATOM     21  C   LIG A   1     -10.500   5.937 131.142  0.00  0.00    -0.011 C 
ATOM     22  C   LIG A   1      -9.509   6.879 130.526  0.00  0.00    -0.063 C 
ATOM     23  C   LIG A   1     -10.095   7.598 129.507  0.00  0.00    -0.021 C 
ATOM     24  C   LIG A   1     -11.748   7.658 129.308  0.00  0.00    -0.017 C 
ATOM     25  C   LIG A   1     -12.475   6.600 128.377  0.00  0.00    +0.015 C 
ATOM     26  C   LIG A   1     -12.369   7.408 130.706  0.00  0.00    +0.011 C 
ATOM     27  C   LIG A   1     -12.012   5.998 131.078  0.00  0.00    +0.012 C 
ATOM     28  C   LIG A   1     -12.249   9.047 128.860  0.00  0.00    +0.015 C 
ATOM     29  C   LIG A   1     -10.134   4.739 130.118  0.00  0.00    +0.016 C 
ATOM     30  C   LIG A   1      -7.119   5.484 133.837  0.00  0.00    +0.012 C 
ATOM     31  C   LIG A   1      -9.485   3.083 132.126  0.00  0.00    +0.012 C 
ENDROOT
TORSDOF 0
ENDMDL
MODEL 2
REMARK VINA RESULT:      -9.4      3.550      8.072
REMARK  Name = NuBBE_75
REMARK  8 active torsions:
REMARK  status: ('A' for Active; 'I' for Inactive)
REMARK    1  A    between atoms: C_1  and  C_2
REMARK    2  A    between atoms: C_4  and  C_5
REMARK    3  A    between atoms: C_4  and  C_10
REMARK    4  A    between atoms: C_14  and  C_34
REMARK    5  A    between atoms: C_21  and  C_33
REMARK    6  A    between atoms: C_24  and  C_32
REMARK    7  A    between atoms: C_27  and  C_28
REMARK    8  A    between atoms: C_27  and  C_31
REMARK                            x       y       z     vdW  Elec       q    Type
REMARK                         _______ _______ _______ _____ _____    ______ ____
ROOT
ATOM      1  C   LIG A   1      -8.470   1.679 130.225  0.00  0.00    +0.012 C 
ATOM      2  C   LIG A   1      -7.300   1.084 131.061  0.00  0.00    -0.025 C 
ATOM      3  C   LIG A   1      -5.928   1.855 131.335  0.00  0.00    +0.008 C 
ATOM      4  C   LIG A   1      -6.065   3.322 131.831  0.00  0.00    +0.027 C 
ATOM      5  C   LIG A   1      -4.708   3.994 132.155  0.00  0.00    +0.019 C 
ATOM      6  C   LIG A   1      -6.781   3.117 133.190  0.00  0.00    +0.139 C 
ATOM      7  C   LIG A   1      -8.119   2.401 133.133  0.00  0.00    +0.075 C 
ATOM      8  C   LIG A   1      -7.925   1.002 132.517  0.00  0.00    +0.015 C 
ATOM      9  O   LIG A   1      -6.255   3.337 134.250  0.00  0.00    -0.297 OA
ATOM     10  C   LIG A   1      -6.749   4.249 130.814  0.00  0.00    +0.019 C 
ATOM     11  C   LIG A   1      -4.835   1.668 130.306  0.00  0.00    +0.005 C 
ATOM     12  C   LIG A   1      -4.553   0.148 130.093  0.00  0.00    +0.008 C 
ATOM     13  C   LIG A   1      -5.733  -0.439 129.238  0.00  0.00    -0.023 C 
ATOM     14  C   LIG A   1      -6.964  -0.341 130.427  0.00  0.00    +0.002 C 
ATOM     15  C   LIG A   1      -8.251  -1.286 130.390  0.00  0.00    +0.005 C 
ATOM     16  C   LIG A   1      -8.069  -2.710 129.781  0.00  0.00    +0.009 C 
ATOM     17  C   LIG A   1      -7.441  -2.484 128.393  0.00  0.00    +0.022 C 
ATOM     18  C   LIG A   1      -5.755  -1.990 128.758  0.00  0.00    -0.020 C 
ATOM     19  C   LIG A   1      -4.872  -2.308 127.536  0.00  0.00    +0.008 C 
ATOM     20  C   LIG A   1      -5.768  -2.685 126.430  0.00  0.00    +0.011 C 
ATOM     21  C   LIG A   1      -6.895  -1.637 126.118  0.00  0.00    -0.011 C 
ATOM     22  C   LIG A   1      -7.983  -2.459 126.743  0.00  0.00    -0.063 C 
ATOM     23  C   LIG A   1      -9.018  -2.646 125.854  0.00  0.00    -0.021 C 
ATOM     24  C   LIG A   1      -8.852  -2.328 124.227  0.00  0.00    -0.017 C 
ATOM     25  C   LIG A   1      -9.212  -0.893 123.657  0.00  0.00    +0.015 C 
ATOM     26  C   LIG A   1      -7.344  -2.487 123.901  0.00  0.00    +0.011 C 
ATOM     27  C   LIG A   1      -6.635  -1.395 124.646  0.00  0.00    +0.012 C 
ATOM     28  C   LIG A   1      -9.592  -3.348 123.337  0.00  0.00    +0.015 C 
ATOM     29  C   LIG A   1      -7.541  -0.239 126.616  0.00  0.00    +0.016 C 
ATOM     30  C   LIG A   1      -5.023  -2.804 129.865  0.00  0.00    +0.012 C 
ATOM     31  C   LIG A   1      -5.311   0.439 127.944  0.00  0.00    +0.012 C 
ENDROOT
TORSDOF 0
ENDMDL
MODEL 3
REMARK VINA RESULT:      -9.2      4.111      7.334
REMARK  Name = NuBBE_75
REMARK  8 active torsions:
REMARK  status: ('A' for Active; 'I' for Inactive)
REMARK    1  A    between atoms: C_1  and  C_2
REMARK    2  A    between atoms: C_4  and  C_5
REMARK    3  A    between atoms: C_4  and  C_10
REMARK    4  A    between atoms: C_14  and  C_34
REMARK    5  A    between atoms: C_21  and  C_33
REMARK    6  A    between atoms: C_24  and  C_32
REMARK    7  A    between atoms: C_27  and  C_28
REMARK    8  A    between atoms: C_27  and  C_31
REMARK                            x       y       z     vdW  Elec       q    Type
REMARK                         _______ _______ _______ _____ _____    ______ ____
ROOT
ATOM      1  C   LIG A   1      -7.445   6.087 132.853  0.00  0.00    +0.012 C 
ATOM      2  C   LIG A   1      -7.192   5.248 131.568  0.00  0.00    -0.025 C 
ATOM      3  C   LIG A   1      -7.214   3.650 131.537  0.00  0.00    +0.008 C 
ATOM      4  C   LIG A   1      -8.441   2.979 132.216  0.00  0.00    +0.027 C 
ATOM      5  C   LIG A   1      -8.450   1.436 132.088  0.00  0.00    +0.019 C 
ATOM      6  C   LIG A   1      -9.600   3.493 131.325  0.00  0.00    +0.139 C 
ATOM      7  C   LIG A   1      -9.747   5.002 131.233  0.00  0.00    +0.075 C 
ATOM      8  C   LIG A   1      -8.448   5.609 130.668  0.00  0.00    +0.015 C 
ATOM      9  O   LIG A   1     -10.240   2.776 130.601  0.00  0.00    -0.297 OA
ATOM     10  C   LIG A   1      -8.538   3.265 133.722  0.00  0.00    +0.019 C 
ATOM     11  C   LIG A   1      -5.905   2.955 131.838  0.00  0.00    +0.005 C 
ATOM     12  C   LIG A   1      -4.785   3.486 130.890  0.00  0.00    +0.008 C 
ATOM     13  C   LIG A   1      -4.371   4.914 131.396  0.00  0.00    -0.023 C 
ATOM     14  C   LIG A   1      -5.804   5.748 130.962  0.00  0.00    +0.002 C 
ATOM     15  C   LIG A   1      -5.814   7.322 130.689  0.00  0.00    +0.005 C 
ATOM     16  C   LIG A   1      -4.512   7.951 130.106  0.00  0.00    +0.009 C 
ATOM     17  C   LIG A   1      -3.383   7.507 131.054  0.00  0.00    +0.022 C 
ATOM     18  C   LIG A   1      -3.178   5.761 130.691  0.00  0.00    -0.020 C 
ATOM     19  C   LIG A   1      -1.752   5.337 131.093  0.00  0.00    +0.008 C 
ATOM     20  C   LIG A   1      -1.153   6.457 131.840  0.00  0.00    +0.011 C 
ATOM     21  C   LIG A   1      -2.010   6.961 133.055  0.00  0.00    -0.011 C 
ATOM     22  C   LIG A   1      -2.470   8.205 132.355  0.00  0.00    -0.063 C 
ATOM     23  C   LIG A   1      -2.191   9.318 133.117  0.00  0.00    -0.021 C 
ATOM     24  C   LIG A   1      -1.147   9.262 134.413  0.00  0.00    -0.017 C 
ATOM     25  C   LIG A   1      -1.701   8.956 135.868  0.00  0.00    +0.015 C 
ATOM     26  C   LIG A   1      -0.168   8.091 134.137  0.00  0.00    +0.011 C 
ATOM     27  C   LIG A   1      -0.992   6.838 134.170  0.00  0.00    +0.012 C 
ATOM     28  C   LIG A   1      -0.275  10.528 134.538  0.00  0.00    +0.015 C 
ATOM     29  C   LIG A   1      -3.422   6.760 133.820  0.00  0.00    +0.016 C 
ATOM     30  C   LIG A   1      -3.187   5.365 129.186  0.00  0.00    +0.012 C 
ATOM     31  C   LIG A   1      -3.761   4.314 132.772  0.00  0.00    +0.012 C 
ENDROOT
TORSDOF 0
ENDMDL
MODEL 4
REMARK VINA RESULT:      -9.1      4.044      6.587
REMARK  Name = NuBBE_75
REMARK  8 active torsions:
REMARK  status: ('A' for Active; 'I' for Inactive)
REMARK    1  A    between atoms: C_1  and  C_2
REMARK    2  A    between atoms: C_4  and  C_5
REMARK    3  A    between atoms: C_4  and  C_10
REMARK    4  A    between atoms: C_14  and  C_34
REMARK    5  A    between atoms: C_21  and  C_33
REMARK    6  A    between atoms: C_24  and  C_32
REMARK    7  A    between atoms: C_27  and  C_28
REMARK    8  A    between atoms: C_27  and  C_31
REMARK                            x       y       z     vdW  Elec       q    Type
REMARK                         _______ _______ _______ _____ _____    ______ ____
ROOT
ATOM      1  C   LIG A   1      -9.335   0.608 125.905  0.00  0.00    +0.012 C 
ATOM      2  C   LIG A   1      -7.987   0.398 125.156  0.00  0.00    -0.025 C 
ATOM      3  C   LIG A   1      -7.254  -1.016 125.033  0.00  0.00    +0.008 C 
ATOM      4  C   LIG A   1      -8.150  -2.203 124.580  0.00  0.00    +0.027 C 
ATOM      5  C   LIG A   1      -7.374  -3.531 124.403  0.00  0.00    +0.019 C 
ATOM      6  C   LIG A   1      -8.560  -1.749 123.156  0.00  0.00    +0.139 C 
ATOM      7  C   LIG A   1      -9.283  -0.416 123.068  0.00  0.00    +0.075 C 
ATOM      8  C   LIG A   1      -8.383   0.693 123.647  0.00  0.00    +0.015 C 
ATOM      9  O   LIG A   1      -8.186  -2.303 122.156  0.00  0.00    -0.297 OA
ATOM     10  C   LIG A   1      -9.286  -2.522 125.566  0.00  0.00    +0.019 C 
ATOM     11  C   LIG A   1      -6.298  -1.376 126.148  0.00  0.00    +0.005 C 
ATOM     12  C   LIG A   1      -5.237  -0.247 126.330  0.00  0.00    +0.008 C 
ATOM     13  C   LIG A   1      -5.942   0.955 127.054  0.00  0.00    -0.023 C 
ATOM     14  C   LIG A   1      -6.957   1.452 125.765  0.00  0.00    +0.002 C 
ATOM     15  C   LIG A   1      -7.508   2.947 125.653  0.00  0.00    +0.005 C 
ATOM     16  C   LIG A   1      -6.605   4.083 126.224  0.00  0.00    +0.009 C 
ATOM     17  C   LIG A   1      -6.283   3.661 127.670  0.00  0.00    +0.022 C 
ATOM     18  C   LIG A   1      -5.131   2.298 127.474  0.00  0.00    -0.020 C 
ATOM     19  C   LIG A   1      -4.287   2.177 128.757  0.00  0.00    +0.008 C 
ATOM     20  C   LIG A   1      -4.886   3.069 129.765  0.00  0.00    +0.011 C 
ATOM     21  C   LIG A   1      -6.419   2.836 130.013  0.00  0.00    -0.011 C 
ATOM     22  C   LIG A   1      -6.837   4.066 129.264  0.00  0.00    -0.063 C 
ATOM     23  C   LIG A   1      -7.645   4.859 130.050  0.00  0.00    -0.021 C 
ATOM     24  C   LIG A   1      -7.770   4.632 131.696  0.00  0.00    -0.017 C 
ATOM     25  C   LIG A   1      -8.892   3.678 132.284  0.00  0.00    +0.015 C 
ATOM     26  C   LIG A   1      -6.445   3.966 132.149  0.00  0.00    +0.011 C 
ATOM     27  C   LIG A   1      -6.416   2.609 131.510  0.00  0.00    +0.012 C 
ATOM     28  C   LIG A   1      -7.872   5.957 132.479  0.00  0.00    +0.015 C 
ATOM     29  C   LIG A   1      -7.700   1.985 129.511  0.00  0.00    +0.016 C 
ATOM     30  C   LIG A   1      -4.013   2.489 126.407  0.00  0.00    +0.012 C 
ATOM     31  C   LIG A   1      -6.145   0.096 128.412  0.00  0.00    +0.012 C 
ENDROOT
TORSDOF 0
ENDMDL
MODEL 5
REMARK VINA RESULT:      -8.9      3.257      7.700
REMARK  Name = NuBBE_75
REMARK  8 active torsions:
REMARK  status: ('A' for Active; 'I' for Inactive)
REMARK    1  A    between atoms: C_1  and  C_2
REMARK    2  A    between atoms: C_4  and  C_5
REMARK    3  A    between atoms: C_4  and  C_10
REMARK    4  A    between atoms: C_14  and  C_34
REMARK    5  A    between atoms: C_21  and  C_33
REMARK    6  A    between atoms: C_24  and  C_32
REMARK    7  A    between atoms: C_27  and  C_28
REMARK    8  A    between atoms: C_27  and  C_31
REMARK                            x       y       z     vdW  Elec       q    Type
REMARK                         _______ _______ _______ _____ _____    ______ ____
ROOT
ATOM      1  C   LIG A   1      -9.214   1.725 130.765  0.00  0.00    +0.012 C 
ATOM      2  C   LIG A   1      -7.971   2.606 131.081  0.00  0.00    -0.025 C 
ATOM      3  C   LIG A   1      -7.940   4.192 130.889  0.00  0.00    +0.008 C 
ATOM      4  C   LIG A   1      -9.143   4.969 131.494  0.00  0.00    +0.027 C 
ATOM      5  C   LIG A   1      -9.023   6.506 131.349  0.00  0.00    +0.019 C 
ATOM      6  C   LIG A   1      -8.974   4.663 133.004  0.00  0.00    +0.139 C 
ATOM      7  C   LIG A   1      -8.985   3.195 133.390  0.00  0.00    +0.075 C 
ATOM      8  C   LIG A   1      -7.841   2.465 132.657  0.00  0.00    +0.015 C 
ATOM      9  O   LIG A   1      -8.671   5.500 133.814  0.00  0.00    -0.297 OA
ATOM     10  C   LIG A   1     -10.491   4.601 130.855  0.00  0.00    +0.019 C 
ATOM     11  C   LIG A   1      -7.524   4.696 129.525  0.00  0.00    +0.005 C 
ATOM     12  C   LIG A   1      -6.142   4.089 129.128  0.00  0.00    +0.008 C 
ATOM     13  C   LIG A   1      -6.380   2.591 128.722  0.00  0.00    -0.023 C 
ATOM     14  C   LIG A   1      -6.746   1.974 130.279  0.00  0.00    +0.002 C 
ATOM     15  C   LIG A   1      -6.532   0.435 130.649  0.00  0.00    +0.005 C 
ATOM     16  C   LIG A   1      -5.372  -0.316 129.926  0.00  0.00    +0.009 C 
ATOM     17  C   LIG A   1      -5.607  -0.079 128.422  0.00  0.00    +0.022 C 
ATOM     18  C   LIG A   1      -5.174   1.646 128.184  0.00  0.00    -0.020 C 
ATOM     19  C   LIG A   1      -4.787   1.859 126.708  0.00  0.00    +0.008 C 
ATOM     20  C   LIG A   1      -5.135   0.628 125.978  0.00  0.00    +0.011 C 
ATOM     21  C   LIG A   1      -6.622   0.159 126.163  0.00  0.00    -0.011 C 
ATOM     22  C   LIG A   1      -6.267  -0.969 127.085  0.00  0.00    -0.063 C 
ATOM     23  C   LIG A   1      -6.791  -2.155 126.620  0.00  0.00    -0.021 C 
ATOM     24  C   LIG A   1      -7.372  -2.314 125.067  0.00  0.00    -0.017 C 
ATOM     25  C   LIG A   1      -8.902  -2.034 124.758  0.00  0.00    +0.015 C 
ATOM     26  C   LIG A   1      -6.623  -1.262 124.208  0.00  0.00    +0.011 C 
ATOM     27  C   LIG A   1      -7.060   0.081 124.715  0.00  0.00    +0.012 C 
ATOM     28  C   LIG A   1      -7.046  -3.686 124.441  0.00  0.00    +0.015 C 
ATOM     29  C   LIG A   1      -7.998   0.488 126.949  0.00  0.00    +0.016 C 
ATOM     30  C   LIG A   1      -3.880   2.136 128.898  0.00  0.00    +0.012 C 
ATOM     31  C   LIG A   1      -7.246   3.019 127.422  0.00  0.00    +0.012 C 
ENDROOT
TORSDOF 0
ENDMDL
MODEL 6
REMARK VINA RESULT:      -8.8      2.837      5.566
REMARK  Name = NuBBE_75
REMARK  8 active torsions:
REMARK  status: ('A' for Active; 'I' for Inactive)
REMARK    1  A    between atoms: C_1  and  C_2
REMARK    2  A    between atoms: C_4  and  C_5
REMARK    3  A    between atoms: C_4  and  C_10
REMARK    4  A    between atoms: C_14  and  C_34
REMARK    5  A    between atoms: C_21  and  C_33
REMARK    6  A    between atoms: C_24  and  C_32
REMARK    7  A    between atoms: C_27  and  C_28
REMARK    8  A    between atoms: C_27  and  C_31
REMARK                            x       y       z     vdW  Elec       q    Type
REMARK                         _______ _______ _______ _____ _____    ______ ____
ROOT
ATOM      1  C   LIG A   1      -5.895  -0.732 130.328  0.00  0.00    +0.012 C 
ATOM      2  C   LIG A   1      -7.363  -0.603 129.826  0.00  0.00    -0.025 C 
ATOM      3  C   LIG A   1      -7.785  -0.722 128.290  0.00  0.00    +0.008 C 
ATOM      4  C   LIG A   1      -7.207  -1.945 127.523  0.00  0.00    +0.027 C 
ATOM      5  C   LIG A   1      -7.711  -2.054 126.063  0.00  0.00    +0.019 C 
ATOM      6  C   LIG A   1      -7.859  -3.122 128.293  0.00  0.00    +0.139 C 
ATOM      7  C   LIG A   1      -7.565  -3.184 129.782  0.00  0.00    +0.075 C 
ATOM      8  C   LIG A   1      -8.054  -1.886 130.455  0.00  0.00    +0.015 C 
ATOM      9  O   LIG A   1      -8.690  -3.844 127.809  0.00  0.00    -0.297 OA
ATOM     10  C   LIG A   1      -5.674  -1.937 127.428  0.00  0.00    +0.019 C 
ATOM     11  C   LIG A   1      -7.759   0.559 127.485  0.00  0.00    +0.005 C 
ATOM     12  C   LIG A   1      -8.625   1.651 128.188  0.00  0.00    +0.008 C 
ATOM     13  C   LIG A   1      -7.813   2.177 129.425  0.00  0.00    -0.023 C 
ATOM     14  C   LIG A   1      -7.924   0.774 130.402  0.00  0.00    +0.002 C 
ATOM     15  C   LIG A   1      -7.799   0.841 131.993  0.00  0.00    +0.005 C 
ATOM     16  C   LIG A   1      -8.301   2.142 132.691  0.00  0.00    +0.009 C 
ATOM     17  C   LIG A   1      -7.574   3.296 131.975  0.00  0.00    +0.022 C 
ATOM     18  C   LIG A   1      -8.370   3.375 130.369  0.00  0.00    -0.020 C 
ATOM     19  C   LIG A   1      -8.188   4.795 129.798  0.00  0.00    +0.008 C 
ATOM     20  C   LIG A   1      -7.232   5.502 130.668  0.00  0.00    +0.011 C 
ATOM     21  C   LIG A   1      -5.872   4.749 130.888  0.00  0.00    -0.011 C 
ATOM     22  C   LIG A   1      -6.209   4.323 132.286  0.00  0.00    -0.063 C 
ATOM     23  C   LIG A   1      -5.218   4.711 133.161  0.00  0.00    -0.021 C 
ATOM     24  C   LIG A   1      -4.054   5.824 132.737  0.00  0.00    -0.017 C 
ATOM     25  C   LIG A   1      -2.684   5.339 132.102  0.00  0.00    +0.015 C 
ATOM     26  C   LIG A   1      -4.679   6.715 131.632  0.00  0.00    +0.011 C 
ATOM     27  C   LIG A   1      -4.898   5.821 130.447  0.00  0.00    +0.012 C 
ATOM     28  C   LIG A   1      -3.683   6.776 133.893  0.00  0.00    +0.015 C 
ATOM     29  C   LIG A   1      -5.082   3.374 130.564  0.00  0.00    +0.016 C 
ATOM     30  C   LIG A   1      -9.921   3.256 130.362  0.00  0.00    +0.012 C 
ATOM     31  C   LIG A   1      -6.674   2.830 128.475  0.00  0.00    +0.012 C 
ENDROOT
TORSDOF 0
ENDMDL
MODEL 7
REMARK VINA RESULT:      -8.7      3.237      6.711
REMARK  Name = NuBBE_75
REMARK  8 active torsions:
REMARK  status: ('A' for Active; 'I' for Inactive)
REMARK    1  A    between atoms: C_1  and  C_2
REMARK    2  A    between atoms: C_4  and  C_5
REMARK    3  A    between atoms: C_4  and  C_10
REMARK    4  A    between atoms: C_14  and  C_34
REMARK    5  A    between atoms: C_21  and  C_33
REMARK    6  A    between atoms: C_24  and  C_32
REMARK    7  A    between atoms: C_27  and  C_28
REMARK    8  A    between atoms: C_27  and  C_31
REMARK                            x       y       z     vdW  Elec       q    Type
REMARK                         _______ _______ _______ _____ _____    ______ ____
ROOT
ATOM      1  C   LIG A   1      -3.750   3.828 129.865  0.00  0.00    +0.012 C 
ATOM      2  C   LIG A   1      -4.701   4.796 130.627  0.00  0.00    -0.025 C 
ATOM      3  C   LIG A   1      -4.450   5.283 132.128  0.00  0.00    +0.008 C 
ATOM      4  C   LIG A   1      -3.019   5.805 132.437  0.00  0.00    +0.027 C 
ATOM      5  C   LIG A   1      -2.855   6.336 133.883  0.00  0.00    +0.019 C 
ATOM      6  C   LIG A   1      -2.941   7.045 131.510  0.00  0.00    +0.139 C 
ATOM      7  C   LIG A   1      -3.149   6.780 130.030  0.00  0.00    +0.075 C 
ATOM      8  C   LIG A   1      -4.539   6.149 129.813  0.00  0.00    +0.015 C 
ATOM      9  O   LIG A   1      -2.901   8.174 131.925  0.00  0.00    -0.297 OA
ATOM     10  C   LIG A   1      -1.929   4.736 132.268  0.00  0.00    +0.019 C 
ATOM     11  C   LIG A   1      -5.021   4.408 133.222  0.00  0.00    +0.005 C 
ATOM     12  C   LIG A   1      -6.548   4.184 132.988  0.00  0.00    +0.008 C 
ATOM     13  C   LIG A   1      -6.702   3.156 131.811  0.00  0.00    -0.023 C 
ATOM     14  C   LIG A   1      -6.163   4.165 130.535  0.00  0.00    +0.002 C 
ATOM     15  C   LIG A   1      -6.604   3.919 129.020  0.00  0.00    +0.005 C 
ATOM     16  C   LIG A   1      -8.012   3.292 128.782  0.00  0.00    +0.009 C 
ATOM     17  C   LIG A   1      -8.040   2.013 129.639  0.00  0.00    +0.022 C 
ATOM     18  C   LIG A   1      -8.156   2.624 131.322  0.00  0.00    -0.020 C 
ATOM     19  C   LIG A   1      -8.780   1.525 132.204  0.00  0.00    +0.008 C 
ATOM     20  C   LIG A   1      -8.840   0.293 131.398  0.00  0.00    +0.011 C 
ATOM     21  C   LIG A   1      -7.471  -0.134 130.759  0.00  0.00    -0.011 C 
ATOM     22  C   LIG A   1      -7.854   0.306 129.378  0.00  0.00    -0.063 C 
ATOM     23  C   LIG A   1      -7.683  -0.723 128.478  0.00  0.00    -0.021 C 
ATOM     24  C   LIG A   1      -7.469  -2.300 128.972  0.00  0.00    -0.017 C 
ATOM     25  C   LIG A   1      -6.007  -2.864 129.215  0.00  0.00    +0.015 C 
ATOM     26  C   LIG A   1      -8.147  -2.421 130.361  0.00  0.00    +0.011 C 
ATOM     27  C   LIG A   1      -7.357  -1.548 131.292  0.00  0.00    +0.012 C 
ATOM     28  C   LIG A   1      -8.182  -3.318 128.059  0.00  0.00    +0.015 C 
ATOM     29  C   LIG A   1      -5.928   0.317 130.573  0.00  0.00    +0.016 C 
ATOM     30  C   LIG A   1      -9.156   3.792 131.563  0.00  0.00    +0.012 C 
ATOM     31  C   LIG A   1      -6.045   1.962 132.689  0.00  0.00    +0.012 C 
ENDROOT
TORSDOF 0
ENDMDL
MODEL 8
REMARK VINA RESULT:      -8.7      3.295      9.595
REMARK  Name = NuBBE_75
REMARK  8 active torsions:
REMARK  status: ('A' for Active; 'I' for Inactive)
REMARK    1  A    between atoms: C_1  and  C_2
REMARK    2  A    between atoms: C_4  and  C_5
REMARK    3  A    between atoms: C_4  and  C_10
REMARK    4  A    between atoms: C_14  and  C_34
REMARK    5  A    between atoms: C_21  and  C_33
REMARK    6  A    between atoms: C_24  and  C_32
REMARK    7  A    between atoms: C_27  and  C_28
REMARK    8  A    between atoms: C_27  and  C_31
REMARK                            x       y       z     vdW  Elec       q    Type
REMARK                         _______ _______ _______ _____ _____    ______ ____
ROOT
ATOM      1  C   LIG A   1      -5.717   1.273 132.931  0.00  0.00    +0.012 C 
ATOM      2  C   LIG A   1      -6.210   1.165 131.459  0.00  0.00    -0.025 C 
ATOM      3  C   LIG A   1      -7.744   1.295 131.029  0.00  0.00    +0.008 C 
ATOM      4  C   LIG A   1      -8.509   2.513 131.617  0.00  0.00    +0.027 C 
ATOM      5  C   LIG A   1      -9.966   2.634 131.105  0.00  0.00    +0.019 C 
ATOM      6  C   LIG A   1      -7.730   3.695 130.985  0.00  0.00    +0.139 C 
ATOM      7  C   LIG A   1      -6.243   3.748 131.289  0.00  0.00    +0.075 C 
ATOM      8  C   LIG A   1      -5.572   2.453 130.787  0.00  0.00    +0.015 C 
ATOM      9  O   LIG A   1      -8.207   4.430 130.159  0.00  0.00    -0.297 OA
ATOM     10  C   LIG A   1      -8.614   2.487 133.150  0.00  0.00    +0.019 C 
ATOM     11  C   LIG A   1      -8.553   0.017 131.034  0.00  0.00    +0.005 C 
ATOM     12  C   LIG A   1      -7.850  -1.067 130.159  0.00  0.00    +0.008 C 
ATOM     13  C   LIG A   1      -6.620  -1.609 130.972  0.00  0.00    -0.023 C 
ATOM     14  C   LIG A   1      -5.636  -0.208 130.884  0.00  0.00    +0.002 C 
ATOM     15  C   LIG A   1      -4.047  -0.283 131.018  0.00  0.00    +0.005 C 
ATOM     16  C   LIG A   1      -3.350  -1.580 130.505  0.00  0.00    +0.009 C 
ATOM     17  C   LIG A   1      -4.075  -2.740 131.213  0.00  0.00    +0.022 C 
ATOM     18  C   LIG A   1      -5.677  -2.803 130.406  0.00  0.00    -0.020 C 
ATOM     19  C   LIG A   1      -6.255  -4.223 130.567  0.00  0.00    +0.008 C 
ATOM     20  C   LIG A   1      -5.394  -4.945 131.519  0.00  0.00    +0.011 C 
ATOM     21  C   LIG A   1      -5.179  -4.210 132.890  0.00  0.00    -0.011 C 
ATOM     22  C   LIG A   1      -3.777  -3.786 132.567  0.00  0.00    -0.063 C 
ATOM     23  C   LIG A   1      -2.910  -4.190 133.558  0.00  0.00    -0.021 C 
ATOM     24  C   LIG A   1      -3.346  -5.315 134.706  0.00  0.00    -0.017 C 
ATOM     25  C   LIG A   1      -3.988  -4.844 136.078  0.00  0.00    +0.015 C 
ATOM     26  C   LIG A   1      -4.450  -6.193 134.063  0.00  0.00    +0.011 C 
ATOM     27  C   LIG A   1      -5.631  -5.292 133.848  0.00  0.00    +0.012 C 
ATOM     28  C   LIG A   1      -2.196  -6.276 135.072  0.00  0.00    +0.015 C 
ATOM     29  C   LIG A   1      -5.502  -2.844 133.695  0.00  0.00    +0.016 C 
ATOM     30  C   LIG A   1      -5.673  -2.664 128.856  0.00  0.00    +0.012 C 
ATOM     31  C   LIG A   1      -7.580  -2.271 132.097  0.00  0.00    +0.012 C 
ENDROOT
TORSDOF 0
ENDMDL
MODEL 9
REMARK VINA RESULT:      -8.6      2.409      8.054
REMARK  Name = NuBBE_75
REMARK  8 active torsions:
REMARK  status: ('A' for Active; 'I' for Inactive)
REMARK    1  A    between atoms: C_1  and  C_2
REMARK    2  A    between atoms: C_4  and  C_5
REMARK    3  A    between atoms: C_4  and  C_10
REMARK    4  A    between atoms: C_14  and  C_34
REMARK    5  A    between atoms: C_21  and  C_33
REMARK    6  A    between atoms: C_24  and  C_32
REMARK    7  A    between atoms: C_27  and  C_28
REMARK    8  A    between atoms: C_27  and  C_31
REMARK                            x       y       z     vdW  Elec       q    Type
REMARK                         _______ _______ _______ _____ _____    ______ ____
ROOT
ATOM      1  C   LIG A   1      -6.125   3.868 132.631  0.00  0.00    +0.012 C 
ATOM      2  C   LIG A   1      -6.769   3.985 131.220  0.00  0.00    -0.025 C 
ATOM      3  C   LIG A   1      -8.265   4.488 130.969  0.00  0.00    +0.008 C 
ATOM      4  C   LIG A   1      -8.667   5.799 131.700  0.00  0.00    +0.027 C 
ATOM      5  C   LIG A   1     -10.099   6.282 131.361  0.00  0.00    +0.019 C 
ATOM      6  C   LIG A   1      -7.701   6.820 131.047  0.00  0.00    +0.139 C 
ATOM      7  C   LIG A   1      -6.220   6.515 131.186  0.00  0.00    +0.075 C 
ATOM      8  C   LIG A   1      -5.919   5.144 130.548  0.00  0.00    +0.015 C 
ATOM      9  O   LIG A   1      -8.072   7.703 130.318  0.00  0.00    -0.297 OA
ATOM     10  C   LIG A   1      -8.628   5.682 133.232  0.00  0.00    +0.019 C 
ATOM     11  C   LIG A   1      -9.344   3.428 130.999  0.00  0.00    +0.005 C 
ATOM     12  C   LIG A   1      -8.998   2.282 129.998  0.00  0.00    +0.008 C 
ATOM     13  C   LIG A   1      -7.854   1.419 130.640  0.00  0.00    -0.023 C 
ATOM     14  C   LIG A   1      -6.586   2.565 130.515  0.00  0.00    +0.002 C 
ATOM     15  C   LIG A   1      -5.052   2.126 130.468  0.00  0.00    +0.005 C 
ATOM     16  C   LIG A   1      -4.727   0.747 129.815  0.00  0.00    +0.009 C 
ATOM     17  C   LIG A   1      -5.629  -0.270 130.539  0.00  0.00    +0.022 C 
ATOM     18  C   LIG A   1      -7.272   0.089 129.913  0.00  0.00    -0.020 C 
ATOM     19  C   LIG A   1      -8.144  -1.172 130.064  0.00  0.00    +0.008 C 
ATOM     20  C   LIG A   1      -7.386  -2.139 130.877  0.00  0.00    +0.011 C 
ATOM     21  C   LIG A   1      -6.876  -1.576 132.251  0.00  0.00    -0.011 C 
ATOM     22  C   LIG A   1      -5.452  -1.455 131.796  0.00  0.00    -0.063 C 
ATOM     23  C   LIG A   1      -4.610  -2.116 132.664  0.00  0.00    -0.021 C 
ATOM     24  C   LIG A   1      -5.181  -3.198 133.794  0.00  0.00    -0.017 C 
ATOM     25  C   LIG A   1      -5.562  -2.700 135.250  0.00  0.00    +0.015 C 
ATOM     26  C   LIG A   1      -6.516  -3.755 133.233  0.00  0.00    +0.011 C 
ATOM     27  C   LIG A   1      -7.471  -2.598 133.197  0.00  0.00    +0.012 C 
ATOM     28  C   LIG A   1      -4.255  -4.418 133.980  0.00  0.00    +0.015 C 
ATOM     29  C   LIG A   1      -6.795  -0.237 133.156  0.00  0.00    +0.016 C 
ATOM     30  C   LIG A   1      -7.386   0.339 128.381  0.00  0.00    +0.012 C 
ATOM     31  C   LIG A   1      -8.828   0.906 131.829  0.00  0.00    +0.012 C 
ENDROOT
TORSDOF 0
ENDMDL
