MODEL 1
REMARK VINA RESULT:      -6.9      0.000      0.000
REMARK  Name = NuBBE_2390
REMARK  11 active torsions:
REMARK  status: ('A' for Active; 'I' for Inactive)
REMARK    1  A    between atoms: C_1  and  C_2
REMARK    2  A    between atoms: C_5  and  C_6
REMARK    3  A    between atoms: C_5  and  C_9
REMARK    4  A    between atoms: C_6  and  O_8
REMARK    5  A    between atoms: C_17  and  C_19
REMARK    6  A    between atoms: C_19  and  C_20
REMARK    7  A    between atoms: C_20  and  C_21
REMARK    8  A    between atoms: C_21  and  C_23
REMARK    9  A    between atoms: C_21  and  C_26
REMARK   10  A    between atoms: C_23  and  C_24
REMARK   11  A    between atoms: C_24  and  O_25
REMARK                            x       y       z     vdW  Elec       q    Type
REMARK                         _______ _______ _______ _____ _____    ______ ____
ROOT
ATOM      1  C   LIG A   1      -6.924  -0.601 126.553  0.00  0.00    +0.012 C 
ATOM      2  C   LIG A   1      -6.778  -2.117 126.290  0.00  0.00    -0.022 C 
ATOM      3  C   LIG A   1      -8.032  -2.753 125.563  0.00  0.00    +0.012 C 
ATOM      4  C   LIG A   1      -8.374  -2.248 124.114  0.00  0.00    +0.068 C 
ATOM      5  C   LIG A   1      -9.337  -3.260 123.426  0.00  0.00    +0.023 C 
ATOM      6  C   LIG A   1      -7.076  -2.281 123.248  0.00  0.00    +0.018 C 
ATOM      7  C   LIG A   1      -5.821  -1.737 123.923  0.00  0.00    +0.002 C 
ATOM      8  C   LIG A   1      -5.581  -2.327 125.316  0.00  0.00    +0.007 C 
ATOM      9  C   LIG A   1      -9.241  -2.859 126.501  0.00  0.00    +0.009 C 
ATOM     10  C   LIG A   1      -8.900  -3.781 127.660  0.00  0.00    +0.031 C 
ATOM     11  C   LIG A   1      -7.812  -3.139 128.475  0.00  0.00    -0.073 C 
ATOM     12  C   LIG A   1      -8.096  -2.857 129.758  0.00  0.00    +0.008 C 
ATOM     13  C   LIG A   1      -6.505  -2.881 127.699  0.00  0.00    +0.021 C 
ENDROOT
BRANCH   4  14
ATOM     14  C   LIG A   1      -9.019  -0.861 124.016  0.00  0.00    +0.311 C 
ATOM     15  O   LIG A   1      -9.845  -0.424 124.832  0.00  0.00    -0.250 OA
BRANCH  14  16
ATOM     16  O   LIG A   1      -8.604  -0.079 123.004  0.00  0.00    -0.480 OA
ATOM     17  H   LIG A   1      -8.963  -0.266 122.127  0.00  0.00    +0.295 HD
ENDBRANCH  14  16
ENDBRANCH   4  14
BRANCH  13  18
ATOM     18  C   LIG A   1      -5.367  -2.214 128.537  0.00  0.00    +0.008 C 
BRANCH  18  19
ATOM     19  C   LIG A   1      -4.249  -3.151 129.046  0.00  0.00    +0.004 C 
BRANCH  19  20
ATOM     20  C   LIG A   1      -4.336  -3.460 130.562  0.00  0.00    -0.012 C 
ATOM     21  C   LIG A   1      -5.212  -4.686 130.841  0.00  0.00    +0.007 C 
BRANCH  20  22
ATOM     22  C   LIG A   1      -4.870  -2.250 131.363  0.00  0.00    +0.031 C 
BRANCH  22  23
ATOM     23  C   LIG A   1      -3.786  -1.448 132.081  0.00  0.00    +0.156 C 
BRANCH  23  24
ATOM     24  O   LIG A   1      -2.536  -2.111 131.935  0.00  0.00    -0.395 OA
ATOM     25  H   LIG A   1      -2.730  -3.059 131.836  0.00  0.00    +0.209 HD
ENDBRANCH  23  24
ENDBRANCH  22  23
ENDBRANCH  20  22
ENDBRANCH  19  20
ENDBRANCH  18  19
ENDBRANCH  13  18
TORSDOF 8
ENDMDL
MODEL 2
REMARK VINA RESULT:      -6.6      2.230      6.753
REMARK  Name = NuBBE_2390
REMARK  11 active torsions:
REMARK  status: ('A' for Active; 'I' for Inactive)
REMARK    1  A    between atoms: C_1  and  C_2
REMARK    2  A    between atoms: C_5  and  C_6
REMARK    3  A    between atoms: C_5  and  C_9
REMARK    4  A    between atoms: C_6  and  O_8
REMARK    5  A    between atoms: C_17  and  C_19
REMARK    6  A    between atoms: C_19  and  C_20
REMARK    7  A    between atoms: C_20  and  C_21
REMARK    8  A    between atoms: C_21  and  C_23
REMARK    9  A    between atoms: C_21  and  C_26
REMARK   10  A    between atoms: C_23  and  C_24
REMARK   11  A    between atoms: C_24  and  O_25
REMARK                            x       y       z     vdW  Elec       q    Type
REMARK                         _______ _______ _______ _____ _____    ______ ____
ROOT
ATOM      1  C   LIG A   1      -5.656  -2.242 126.132  0.00  0.00    +0.012 C 
ATOM      2  C   LIG A   1      -6.933  -1.438 126.465  0.00  0.00    -0.022 C 
ATOM      3  C   LIG A   1      -7.724  -2.003 127.714  0.00  0.00    +0.012 C 
ATOM      4  C   LIG A   1      -7.003  -1.976 129.111  0.00  0.00    +0.068 C 
ATOM      5  C   LIG A   1      -8.058  -2.161 130.242  0.00  0.00    +0.023 C 
ATOM      6  C   LIG A   1      -6.411  -0.552 129.348  0.00  0.00    +0.018 C 
ATOM      7  C   LIG A   1      -5.690   0.067 128.155  0.00  0.00    +0.002 C 
ATOM      8  C   LIG A   1      -6.506   0.008 126.860  0.00  0.00    +0.007 C 
ATOM      9  C   LIG A   1      -8.434  -3.322 127.390  0.00  0.00    +0.009 C 
ATOM     10  C   LIG A   1      -9.463  -3.085 126.297  0.00  0.00    +0.031 C 
ATOM     11  C   LIG A   1      -8.741  -2.695 125.038  0.00  0.00    -0.073 C 
ATOM     12  C   LIG A   1      -8.894  -3.500 123.972  0.00  0.00    +0.008 C 
ATOM     13  C   LIG A   1      -7.902  -1.408 125.159  0.00  0.00    +0.021 C 
ENDROOT
BRANCH   4  14
ATOM     14  C   LIG A   1      -5.909  -3.028 129.327  0.00  0.00    +0.311 C 
ATOM     15  O   LIG A   1      -4.701  -2.816 129.142  0.00  0.00    -0.250 OA
BRANCH  14  16
ATOM     16  O   LIG A   1      -6.313  -4.223 129.792  0.00  0.00    -0.480 OA
ATOM     17  H   LIG A   1      -6.535  -4.898 129.138  0.00  0.00    +0.295 HD
ENDBRANCH  14  16
ENDBRANCH   4  14
BRANCH  13  18
ATOM     18  C   LIG A   1      -7.146  -0.993 123.856  0.00  0.00    +0.008 C 
BRANCH  18  19
ATOM     19  C   LIG A   1      -7.631   0.300 123.163  0.00  0.00    +0.004 C 
BRANCH  19  20
ATOM     20  C   LIG A   1      -9.024   0.779 123.641  0.00  0.00    -0.012 C 
ATOM     21  C   LIG A   1     -10.119   0.438 122.625  0.00  0.00    +0.007 C 
BRANCH  20  22
ATOM     22  C   LIG A   1      -9.041   2.298 123.928  0.00  0.00    +0.031 C 
BRANCH  22  23
ATOM     23  C   LIG A   1      -7.955   3.084 123.196  0.00  0.00    +0.156 C 
BRANCH  23  24
ATOM     24  O   LIG A   1      -8.533   3.769 122.092  0.00  0.00    -0.395 OA
ATOM     25  H   LIG A   1      -8.446   3.184 121.321  0.00  0.00    +0.209 HD
ENDBRANCH  23  24
ENDBRANCH  22  23
ENDBRANCH  20  22
ENDBRANCH  19  20
ENDBRANCH  18  19
ENDBRANCH  13  18
TORSDOF 8
ENDMDL
MODEL 3
REMARK VINA RESULT:      -6.5      3.104      4.203
REMARK  Name = NuBBE_2390
REMARK  11 active torsions:
REMARK  status: ('A' for Active; 'I' for Inactive)
REMARK    1  A    between atoms: C_1  and  C_2
REMARK    2  A    between atoms: C_5  and  C_6
REMARK    3  A    between atoms: C_5  and  C_9
REMARK    4  A    between atoms: C_6  and  O_8
REMARK    5  A    between atoms: C_17  and  C_19
REMARK    6  A    between atoms: C_19  and  C_20
REMARK    7  A    between atoms: C_20  and  C_21
REMARK    8  A    between atoms: C_21  and  C_23
REMARK    9  A    between atoms: C_21  and  C_26
REMARK   10  A    between atoms: C_23  and  C_24
REMARK   11  A    between atoms: C_24  and  O_25
REMARK                            x       y       z     vdW  Elec       q    Type
REMARK                         _______ _______ _______ _____ _____    ______ ____
ROOT
ATOM      1  C   LIG A   1      -8.960   0.553 125.791  0.00  0.00    +0.012 C 
ATOM      2  C   LIG A   1      -7.503   0.061 125.942  0.00  0.00    -0.022 C 
ATOM      3  C   LIG A   1      -7.352  -1.508 125.810  0.00  0.00    +0.012 C 
ATOM      4  C   LIG A   1      -7.729  -2.169 124.434  0.00  0.00    +0.068 C 
ATOM      5  C   LIG A   1      -7.125  -3.602 124.364  0.00  0.00    +0.023 C 
ATOM      6  C   LIG A   1      -7.025  -1.382 123.285  0.00  0.00    +0.018 C 
ATOM      7  C   LIG A   1      -7.086   0.138 123.395  0.00  0.00    +0.002 C 
ATOM      8  C   LIG A   1      -6.666   0.661 124.772  0.00  0.00    +0.007 C 
ATOM      9  C   LIG A   1      -7.905  -2.240 127.040  0.00  0.00    +0.009 C 
ATOM     10  C   LIG A   1      -7.111  -1.830 128.268  0.00  0.00    +0.031 C 
ATOM     11  C   LIG A   1      -7.351  -0.368 128.526  0.00  0.00    -0.073 C 
ATOM     12  C   LIG A   1      -7.915  -0.040 129.701  0.00  0.00    +0.008 C 
ATOM     13  C   LIG A   1      -6.916   0.559 127.374  0.00  0.00    +0.021 C 
ENDROOT
BRANCH   4  14
ATOM     14  C   LIG A   1      -9.227  -2.286 124.130  0.00  0.00    +0.311 C 
ATOM     15  O   LIG A   1      -9.787  -1.713 123.183  0.00  0.00    -0.250 OA
BRANCH  14  16
ATOM     16  O   LIG A   1      -9.935  -3.106 124.926  0.00  0.00    -0.480 OA
ATOM     17  H   LIG A   1      -9.438  -3.677 125.524  0.00  0.00    +0.295 HD
ENDBRANCH  14  16
ENDBRANCH   4  14
BRANCH  13  18
ATOM     18  C   LIG A   1      -7.161   2.081 127.631  0.00  0.00    +0.008 C 
BRANCH  18  19
ATOM     19  C   LIG A   1      -5.943   3.013 127.446  0.00  0.00    +0.004 C 
BRANCH  19  20
ATOM     20  C   LIG A   1      -4.581   2.274 127.479  0.00  0.00    -0.012 C 
ATOM     21  C   LIG A   1      -4.012   2.199 128.900  0.00  0.00    +0.007 C 
BRANCH  20  22
ATOM     22  C   LIG A   1      -3.545   2.938 126.543  0.00  0.00    +0.031 C 
BRANCH  22  23
ATOM     23  C   LIG A   1      -2.235   3.320 127.231  0.00  0.00    +0.156 C 
BRANCH  23  24
ATOM     24  O   LIG A   1      -1.198   2.461 126.776  0.00  0.00    -0.395 OA
ATOM     25  H   LIG A   1      -1.591   1.578 126.665  0.00  0.00    +0.209 HD
ENDBRANCH  23  24
ENDBRANCH  22  23
ENDBRANCH  20  22
ENDBRANCH  19  20
ENDBRANCH  18  19
ENDBRANCH  13  18
TORSDOF 8
ENDMDL
MODEL 4
REMARK VINA RESULT:      -6.4      2.793      4.799
REMARK  Name = NuBBE_2390
REMARK  11 active torsions:
REMARK  status: ('A' for Active; 'I' for Inactive)
REMARK    1  A    between atoms: C_1  and  C_2
REMARK    2  A    between atoms: C_5  and  C_6
REMARK    3  A    between atoms: C_5  and  C_9
REMARK    4  A    between atoms: C_6  and  O_8
REMARK    5  A    between atoms: C_17  and  C_19
REMARK    6  A    between atoms: C_19  and  C_20
REMARK    7  A    between atoms: C_20  and  C_21
REMARK    8  A    between atoms: C_21  and  C_23
REMARK    9  A    between atoms: C_21  and  C_26
REMARK   10  A    between atoms: C_23  and  C_24
REMARK   11  A    between atoms: C_24  and  O_25
REMARK                            x       y       z     vdW  Elec       q    Type
REMARK                         _______ _______ _______ _____ _____    ______ ____
ROOT
ATOM      1  C   LIG A   1      -9.576   0.722 125.658  0.00  0.00    +0.012 C 
ATOM      2  C   LIG A   1      -8.091   0.326 125.813  0.00  0.00    -0.022 C 
ATOM      3  C   LIG A   1      -7.114   1.179 124.905  0.00  0.00    +0.012 C 
ATOM      4  C   LIG A   1      -7.022   2.725 125.178  0.00  0.00    +0.068 C 
ATOM      5  C   LIG A   1      -5.740   3.294 124.503  0.00  0.00    +0.023 C 
ATOM      6  C   LIG A   1      -6.805   2.956 126.706  0.00  0.00    +0.018 C 
ATOM      7  C   LIG A   1      -7.679   2.113 127.630  0.00  0.00    +0.002 C 
ATOM      8  C   LIG A   1      -7.661   0.621 127.281  0.00  0.00    +0.007 C 
ATOM      9  C   LIG A   1      -7.236   0.800 123.424  0.00  0.00    +0.009 C 
ATOM     10  C   LIG A   1      -6.837  -0.654 123.241  0.00  0.00    +0.031 C 
ATOM     11  C   LIG A   1      -7.835  -1.517 123.962  0.00  0.00    -0.073 C 
ATOM     12  C   LIG A   1      -8.534  -2.393 123.220  0.00  0.00    +0.008 C 
ATOM     13  C   LIG A   1      -7.921  -1.257 125.479  0.00  0.00    +0.021 C 
ENDROOT
BRANCH   4  14
ATOM     14  C   LIG A   1      -8.209   3.567 124.696  0.00  0.00    +0.311 C 
ATOM     15  O   LIG A   1      -8.968   4.189 125.454  0.00  0.00    -0.250 OA
BRANCH  14  16
ATOM     16  O   LIG A   1      -8.375   3.656 123.365  0.00  0.00    -0.480 OA
ATOM     17  H   LIG A   1      -9.123   3.180 122.982  0.00  0.00    +0.295 HD
ENDBRANCH  14  16
ENDBRANCH   4  14
BRANCH  13  18
ATOM     18  C   LIG A   1      -8.956  -2.148 126.239  0.00  0.00    +0.008 C 
BRANCH  18  19
ATOM     19  C   LIG A   1      -8.374  -3.198 127.211  0.00  0.00    +0.004 C 
BRANCH  19  20
ATOM     20  C   LIG A   1      -7.593  -2.582 128.399  0.00  0.00    -0.012 C 
ATOM     21  C   LIG A   1      -6.081  -2.588 128.145  0.00  0.00    +0.007 C 
BRANCH  20  22
ATOM     22  C   LIG A   1      -7.896  -3.316 129.726  0.00  0.00    +0.031 C 
BRANCH  22  23
ATOM     23  C   LIG A   1      -7.547  -2.511 130.978  0.00  0.00    +0.156 C 
BRANCH  23  24
ATOM     24  O   LIG A   1      -8.046  -1.187 130.840  0.00  0.00    -0.395 OA
ATOM     25  H   LIG A   1      -7.757  -0.867 129.968  0.00  0.00    +0.209 HD
ENDBRANCH  23  24
ENDBRANCH  22  23
ENDBRANCH  20  22
ENDBRANCH  19  20
ENDBRANCH  18  19
ENDBRANCH  13  18
TORSDOF 8
ENDMDL
MODEL 5
REMARK VINA RESULT:      -6.3      1.483      1.790
REMARK  Name = NuBBE_2390
REMARK  11 active torsions:
REMARK  status: ('A' for Active; 'I' for Inactive)
REMARK    1  A    between atoms: C_1  and  C_2
REMARK    2  A    between atoms: C_5  and  C_6
REMARK    3  A    between atoms: C_5  and  C_9
REMARK    4  A    between atoms: C_6  and  O_8
REMARK    5  A    between atoms: C_17  and  C_19
REMARK    6  A    between atoms: C_19  and  C_20
REMARK    7  A    between atoms: C_20  and  C_21
REMARK    8  A    between atoms: C_21  and  C_23
REMARK    9  A    between atoms: C_21  and  C_26
REMARK   10  A    between atoms: C_23  and  C_24
REMARK   11  A    between atoms: C_24  and  O_25
REMARK                            x       y       z     vdW  Elec       q    Type
REMARK                         _______ _______ _______ _____ _____    ______ ____
ROOT
ATOM      1  C   LIG A   1      -7.844   0.163 127.618  0.00  0.00    +0.012 C 
ATOM      2  C   LIG A   1      -7.244  -0.862 126.629  0.00  0.00    -0.022 C 
ATOM      3  C   LIG A   1      -8.174  -1.152 125.382  0.00  0.00    +0.012 C 
ATOM      4  C   LIG A   1      -8.479   0.040 124.402  0.00  0.00    +0.068 C 
ATOM      5  C   LIG A   1      -9.030  -0.523 123.058  0.00  0.00    +0.023 C 
ATOM      6  C   LIG A   1      -7.136   0.738 124.022  0.00  0.00    +0.018 C 
ATOM      7  C   LIG A   1      -6.173   0.986 125.178  0.00  0.00    +0.002 C 
ATOM      8  C   LIG A   1      -5.934  -0.257 126.041  0.00  0.00    +0.007 C 
ATOM      9  C   LIG A   1      -9.400  -1.988 125.768  0.00  0.00    +0.009 C 
ATOM     10  C   LIG A   1      -8.944  -3.339 126.290  0.00  0.00    +0.031 C 
ATOM     11  C   LIG A   1      -8.184  -3.124 127.569  0.00  0.00    -0.073 C 
ATOM     12  C   LIG A   1      -8.680  -3.699 128.679  0.00  0.00    +0.008 C 
ATOM     13  C   LIG A   1      -6.925  -2.247 127.420  0.00  0.00    +0.021 C 
ENDROOT
BRANCH   4  14
ATOM     14  C   LIG A   1      -9.477   1.089 124.905  0.00  0.00    +0.311 C 
ATOM     15  O   LIG A   1      -9.145   2.151 125.454  0.00  0.00    -0.250 OA
BRANCH  14  16
ATOM     16  O   LIG A   1     -10.777   0.834 124.675  0.00  0.00    -0.480 OA
ATOM     17  H   LIG A   1     -11.419   1.252 125.264  0.00  0.00    +0.295 HD
ENDBRANCH  14  16
ENDBRANCH   4  14
BRANCH  13  18
ATOM     18  C   LIG A   1      -6.127  -2.016 128.744  0.00  0.00    +0.008 C 
BRANCH  18  19
ATOM     19  C   LIG A   1      -4.877  -2.899 128.953  0.00  0.00    +0.004 C 
BRANCH  19  20
ATOM     20  C   LIG A   1      -4.750  -3.471 130.387  0.00  0.00    -0.012 C 
ATOM     21  C   LIG A   1      -5.620  -4.719 130.577  0.00  0.00    +0.007 C 
BRANCH  20  22
ATOM     22  C   LIG A   1      -5.116  -2.419 131.460  0.00  0.00    +0.031 C 
BRANCH  22  23
ATOM     23  C   LIG A   1      -3.978  -1.463 131.811  0.00  0.00    +0.156 C 
BRANCH  23  24
ATOM     24  O   LIG A   1      -2.736  -2.143 131.683  0.00  0.00    -0.395 OA
ATOM     25  H   LIG A   1      -2.778  -2.919 132.269  0.00  0.00    +0.209 HD
ENDBRANCH  23  24
ENDBRANCH  22  23
ENDBRANCH  20  22
ENDBRANCH  19  20
ENDBRANCH  18  19
ENDBRANCH  13  18
TORSDOF 8
ENDMDL
MODEL 6
REMARK VINA RESULT:      -6.3      1.896      3.010
REMARK  Name = NuBBE_2390
REMARK  11 active torsions:
REMARK  status: ('A' for Active; 'I' for Inactive)
REMARK    1  A    between atoms: C_1  and  C_2
REMARK    2  A    between atoms: C_5  and  C_6
REMARK    3  A    between atoms: C_5  and  C_9
REMARK    4  A    between atoms: C_6  and  O_8
REMARK    5  A    between atoms: C_17  and  C_19
REMARK    6  A    between atoms: C_19  and  C_20
REMARK    7  A    between atoms: C_20  and  C_21
REMARK    8  A    between atoms: C_21  and  C_23
REMARK    9  A    between atoms: C_21  and  C_26
REMARK   10  A    between atoms: C_23  and  C_24
REMARK   11  A    between atoms: C_24  and  O_25
REMARK                            x       y       z     vdW  Elec       q    Type
REMARK                         _______ _______ _______ _____ _____    ______ ____
ROOT
ATOM      1  C   LIG A   1      -6.177  -2.237 125.929  0.00  0.00    +0.012 C 
ATOM      2  C   LIG A   1      -7.690  -2.070 126.198  0.00  0.00    -0.022 C 
ATOM      3  C   LIG A   1      -8.381  -0.998 125.262  0.00  0.00    +0.012 C 
ATOM      4  C   LIG A   1      -8.400  -1.279 123.714  0.00  0.00    +0.068 C 
ATOM      5  C   LIG A   1      -9.461  -0.363 123.035  0.00  0.00    +0.023 C 
ATOM      6  C   LIG A   1      -8.912  -2.732 123.471  0.00  0.00    +0.018 C 
ATOM      7  C   LIG A   1      -8.324  -3.799 124.389  0.00  0.00    +0.002 C 
ATOM      8  C   LIG A   1      -8.392  -3.423 125.872  0.00  0.00    +0.007 C 
ATOM      9  C   LIG A   1      -7.982   0.433 125.643  0.00  0.00    +0.009 C 
ATOM     10  C   LIG A   1      -8.453   0.727 127.058  0.00  0.00    +0.031 C 
ATOM     11  C   LIG A   1      -7.703  -0.168 128.005  0.00  0.00    -0.073 C 
ATOM     12  C   LIG A   1      -6.938   0.432 128.934  0.00  0.00    +0.008 C 
ATOM     13  C   LIG A   1      -7.915  -1.674 127.759  0.00  0.00    +0.021 C 
ENDROOT
BRANCH   4  14
ATOM     14  C   LIG A   1      -7.074  -1.073 122.974  0.00  0.00    +0.311 C 
ATOM     15  O   LIG A   1      -6.427  -1.990 122.447  0.00  0.00    -0.250 OA
BRANCH  14  16
ATOM     16  O   LIG A   1      -6.641   0.196 122.867  0.00  0.00    -0.480 OA
ATOM     17  H   LIG A   1      -6.242   0.456 122.027  0.00  0.00    +0.295 HD
ENDBRANCH  14  16
ENDBRANCH   4  14
BRANCH  13  18
ATOM     18  C   LIG A   1      -7.140  -2.614 128.738  0.00  0.00    +0.008 C 
BRANCH  18  19
ATOM     19  C   LIG A   1      -7.948  -3.187 129.923  0.00  0.00    +0.004 C 
BRANCH  19  20
ATOM     20  C   LIG A   1      -7.236  -3.044 131.292  0.00  0.00    -0.012 C 
ATOM     21  C   LIG A   1      -7.530  -1.688 131.943  0.00  0.00    +0.007 C 
BRANCH  20  22
ATOM     22  C   LIG A   1      -5.707  -3.236 131.166  0.00  0.00    +0.031 C 
BRANCH  22  23
ATOM     23  C   LIG A   1      -5.199  -4.575 131.698  0.00  0.00    +0.156 C 
BRANCH  23  24
ATOM     24  O   LIG A   1      -5.604  -5.615 130.818  0.00  0.00    -0.395 OA
ATOM     25  H   LIG A   1      -4.792  -6.021 130.469  0.00  0.00    +0.209 HD
ENDBRANCH  23  24
ENDBRANCH  22  23
ENDBRANCH  20  22
ENDBRANCH  19  20
ENDBRANCH  18  19
ENDBRANCH  13  18
TORSDOF 8
ENDMDL
MODEL 7
REMARK VINA RESULT:      -6.3      2.409      4.143
REMARK  Name = NuBBE_2390
REMARK  11 active torsions:
REMARK  status: ('A' for Active; 'I' for Inactive)
REMARK    1  A    between atoms: C_1  and  C_2
REMARK    2  A    between atoms: C_5  and  C_6
REMARK    3  A    between atoms: C_5  and  C_9
REMARK    4  A    between atoms: C_6  and  O_8
REMARK    5  A    between atoms: C_17  and  C_19
REMARK    6  A    between atoms: C_19  and  C_20
REMARK    7  A    between atoms: C_20  and  C_21
REMARK    8  A    between atoms: C_21  and  C_23
REMARK    9  A    between atoms: C_21  and  C_26
REMARK   10  A    between atoms: C_23  and  C_24
REMARK   11  A    between atoms: C_24  and  O_25
REMARK                            x       y       z     vdW  Elec       q    Type
REMARK                         _______ _______ _______ _____ _____    ______ ____
ROOT
ATOM      1  C   LIG A   1      -9.377   0.264 125.923  0.00  0.00    +0.012 C 
ATOM      2  C   LIG A   1      -7.899  -0.094 125.650  0.00  0.00    -0.022 C 
ATOM      3  C   LIG A   1      -7.365   0.451 124.264  0.00  0.00    +0.012 C 
ATOM      4  C   LIG A   1      -7.319   2.010 124.057  0.00  0.00    +0.068 C 
ATOM      5  C   LIG A   1      -6.396   2.346 122.849  0.00  0.00    +0.023 C 
ATOM      6  C   LIG A   1      -6.619   2.663 125.289  0.00  0.00    +0.018 C 
ATOM      7  C   LIG A   1      -7.051   2.130 126.651  0.00  0.00    +0.002 C 
ATOM      8  C   LIG A   1      -7.024   0.600 126.737  0.00  0.00    +0.007 C 
ATOM      9  C   LIG A   1      -7.949  -0.330 123.080  0.00  0.00    +0.009 C 
ATOM     10  C   LIG A   1      -7.511  -1.782 123.171  0.00  0.00    +0.031 C 
ATOM     11  C   LIG A   1      -8.128  -2.390 124.401  0.00  0.00    -0.073 C 
ATOM     12  C   LIG A   1      -8.959  -3.430 124.216  0.00  0.00    +0.008 C 
ATOM     13  C   LIG A   1      -7.717  -1.708 125.720  0.00  0.00    +0.021 C 
ENDROOT
BRANCH   4  14
ATOM     14  C   LIG A   1      -8.667   2.698 123.811  0.00  0.00    +0.311 C 
ATOM     15  O   LIG A   1      -9.344   2.542 122.783  0.00  0.00    -0.250 OA
BRANCH  14  16
ATOM     16  O   LIG A   1      -9.135   3.468 124.808  0.00  0.00    -0.480 OA
ATOM     17  H   LIG A   1      -8.834   4.386 124.835  0.00  0.00    +0.295 HD
ENDBRANCH  14  16
ENDBRANCH   4  14
BRANCH  13  18
ATOM     18  C   LIG A   1      -8.352  -2.332 127.005  0.00  0.00    +0.008 C 
BRANCH  18  19
ATOM     19  C   LIG A   1      -7.371  -2.741 128.126  0.00  0.00    +0.004 C 
BRANCH  19  20
ATOM     20  C   LIG A   1      -7.905  -2.465 129.554  0.00  0.00    -0.012 C 
ATOM     21  C   LIG A   1      -7.802  -0.980 129.920  0.00  0.00    +0.007 C 
BRANCH  20  22
ATOM     22  C   LIG A   1      -7.166  -3.311 130.617  0.00  0.00    +0.031 C 
BRANCH  22  23
ATOM     23  C   LIG A   1      -5.847  -3.909 130.132  0.00  0.00    +0.156 C 
BRANCH  23  24
ATOM     24  O   LIG A   1      -5.709  -5.226 130.650  0.00  0.00    -0.395 OA
ATOM     25  H   LIG A   1      -4.764  -5.355 130.843  0.00  0.00    +0.209 HD
ENDBRANCH  23  24
ENDBRANCH  22  23
ENDBRANCH  20  22
ENDBRANCH  19  20
ENDBRANCH  18  19
ENDBRANCH  13  18
TORSDOF 8
ENDMDL
MODEL 8
REMARK VINA RESULT:      -6.2      2.244      3.915
REMARK  Name = NuBBE_2390
REMARK  11 active torsions:
REMARK  status: ('A' for Active; 'I' for Inactive)
REMARK    1  A    between atoms: C_1  and  C_2
REMARK    2  A    between atoms: C_5  and  C_6
REMARK    3  A    between atoms: C_5  and  C_9
REMARK    4  A    between atoms: C_6  and  O_8
REMARK    5  A    between atoms: C_17  and  C_19
REMARK    6  A    between atoms: C_19  and  C_20
REMARK    7  A    between atoms: C_20  and  C_21
REMARK    8  A    between atoms: C_21  and  C_23
REMARK    9  A    between atoms: C_21  and  C_26
REMARK   10  A    between atoms: C_23  and  C_24
REMARK   11  A    between atoms: C_24  and  O_25
REMARK                            x       y       z     vdW  Elec       q    Type
REMARK                         _______ _______ _______ _____ _____    ______ ____
ROOT
ATOM      1  C   LIG A   1      -9.171  -1.499 125.623  0.00  0.00    +0.012 C 
ATOM      2  C   LIG A   1      -7.832  -0.730 125.557  0.00  0.00    -0.022 C 
ATOM      3  C   LIG A   1      -7.644   0.093 124.219  0.00  0.00    +0.012 C 
ATOM      4  C   LIG A   1      -8.654   1.264 123.930  0.00  0.00    +0.068 C 
ATOM      5  C   LIG A   1      -8.067   2.195 122.828  0.00  0.00    +0.023 C 
ATOM      6  C   LIG A   1      -8.761   2.164 125.199  0.00  0.00    +0.018 C 
ATOM      7  C   LIG A   1      -8.881   1.421 126.526  0.00  0.00    +0.002 C 
ATOM      8  C   LIG A   1      -7.823   0.327 126.702  0.00  0.00    +0.007 C 
ATOM      9  C   LIG A   1      -7.372  -0.823 123.019  0.00  0.00    +0.009 C 
ATOM     10  C   LIG A   1      -6.074  -1.579 123.248  0.00  0.00    +0.031 C 
ATOM     11  C   LIG A   1      -6.258  -2.497 124.424  0.00  0.00    -0.073 C 
ATOM     12  C   LIG A   1      -6.114  -3.815 124.198  0.00  0.00    +0.008 C 
ATOM     13  C   LIG A   1      -6.603  -1.778 125.743  0.00  0.00    +0.021 C 
ENDROOT
BRANCH   4  14
ATOM     14  C   LIG A   1     -10.059   0.847 123.478  0.00  0.00    +0.311 C 
ATOM     15  O   LIG A   1     -10.279  -0.011 122.611  0.00  0.00    -0.250 OA
BRANCH  14  16
ATOM     16  O   LIG A   1     -11.088   1.430 124.117  0.00  0.00    -0.480 OA
ATOM     17  H   LIG A   1     -11.944   0.985 124.071  0.00  0.00    +0.295 HD
ENDBRANCH  14  16
ENDBRANCH   4  14
BRANCH  13  18
ATOM     18  C   LIG A   1      -6.796  -2.723 126.973  0.00  0.00    +0.008 C 
BRANCH  18  19
ATOM     19  C   LIG A   1      -6.291  -2.192 128.332  0.00  0.00    +0.004 C 
BRANCH  19  20
ATOM     20  C   LIG A   1      -7.282  -2.426 129.501  0.00  0.00    -0.012 C 
ATOM     21  C   LIG A   1      -8.468  -3.297 129.071  0.00  0.00    +0.007 C 
BRANCH  20  22
ATOM     22  C   LIG A   1      -7.805  -1.093 130.085  0.00  0.00    +0.031 C 
BRANCH  22  23
ATOM     23  C   LIG A   1      -7.273  -0.771 131.480  0.00  0.00    +0.156 C 
BRANCH  23  24
ATOM     24  O   LIG A   1      -7.848  -1.668 132.422  0.00  0.00    -0.395 OA
ATOM     25  H   LIG A   1      -7.131  -2.245 132.737  0.00  0.00    +0.209 HD
ENDBRANCH  23  24
ENDBRANCH  22  23
ENDBRANCH  20  22
ENDBRANCH  19  20
ENDBRANCH  18  19
ENDBRANCH  13  18
TORSDOF 8
ENDMDL
MODEL 9
REMARK VINA RESULT:      -6.1      3.321      5.015
REMARK  Name = NuBBE_2390
REMARK  11 active torsions:
REMARK  status: ('A' for Active; 'I' for Inactive)
REMARK    1  A    between atoms: C_1  and  C_2
REMARK    2  A    between atoms: C_5  and  C_6
REMARK    3  A    between atoms: C_5  and  C_9
REMARK    4  A    between atoms: C_6  and  O_8
REMARK    5  A    between atoms: C_17  and  C_19
REMARK    6  A    between atoms: C_19  and  C_20
REMARK    7  A    between atoms: C_20  and  C_21
REMARK    8  A    between atoms: C_21  and  C_23
REMARK    9  A    between atoms: C_21  and  C_26
REMARK   10  A    between atoms: C_23  and  C_24
REMARK   11  A    between atoms: C_24  and  O_25
REMARK                            x       y       z     vdW  Elec       q    Type
REMARK                         _______ _______ _______ _____ _____    ______ ____
ROOT
ATOM      1  C   LIG A   1      -6.545  -0.250 125.685  0.00  0.00    +0.012 C 
ATOM      2  C   LIG A   1      -8.066  -0.428 125.895  0.00  0.00    -0.022 C 
ATOM      3  C   LIG A   1      -8.796  -1.102 124.663  0.00  0.00    +0.012 C 
ATOM      4  C   LIG A   1      -8.390  -2.574 124.285  0.00  0.00    +0.068 C 
ATOM      5  C   LIG A   1      -9.480  -3.191 123.361  0.00  0.00    +0.023 C 
ATOM      6  C   LIG A   1      -8.416  -3.452 125.575  0.00  0.00    +0.018 C 
ATOM      7  C   LIG A   1      -7.780  -2.824 126.811  0.00  0.00    +0.002 C 
ATOM      8  C   LIG A   1      -8.279  -1.403 127.091  0.00  0.00    +0.007 C 
ATOM      9  C   LIG A   1      -8.901  -0.145 123.469  0.00  0.00    +0.009 C 
ATOM     10  C   LIG A   1      -9.739   1.060 123.862  0.00  0.00    +0.031 C 
ATOM     11  C   LIG A   1      -9.004   1.824 124.928  0.00  0.00    -0.073 C 
ATOM     12  C   LIG A   1      -8.662   3.093 124.645  0.00  0.00    +0.008 C 
ATOM     13  C   LIG A   1      -8.736   1.019 126.215  0.00  0.00    +0.021 C 
ENDROOT
BRANCH   4  14
ATOM     14  C   LIG A   1      -7.040  -2.742 123.579  0.00  0.00    +0.311 C 
ATOM     15  O   LIG A   1      -6.673  -2.050 122.617  0.00  0.00    -0.250 OA
BRANCH  14  16
ATOM     16  O   LIG A   1      -6.210  -3.667 124.091  0.00  0.00    -0.480 OA
ATOM     17  H   LIG A   1      -5.631  -3.390 124.812  0.00  0.00    +0.295 HD
ENDBRANCH  14  16
ENDBRANCH   4  14
BRANCH  13  18
ATOM     18  C   LIG A   1      -7.973   1.804 127.331  0.00  0.00    +0.008 C 
BRANCH  18  19
ATOM     19  C   LIG A   1      -8.716   1.985 128.673  0.00  0.00    +0.004 C 
BRANCH  19  20
ATOM     20  C   LIG A   1      -7.859   1.632 129.914  0.00  0.00    -0.012 C 
ATOM     21  C   LIG A   1      -8.006   0.156 130.302  0.00  0.00    +0.007 C 
BRANCH  20  22
ATOM     22  C   LIG A   1      -8.213   2.522 131.128  0.00  0.00    +0.031 C 
BRANCH  22  23
ATOM     23  C   LIG A   1      -9.649   3.042 131.124  0.00  0.00    +0.156 C 
BRANCH  23  24
ATOM     24  O   LIG A   1     -10.446   2.229 131.976  0.00  0.00    -0.395 OA
ATOM     25  H   LIG A   1     -11.036   2.828 132.465  0.00  0.00    +0.209 HD
ENDBRANCH  23  24
ENDBRANCH  22  23
ENDBRANCH  20  22
ENDBRANCH  19  20
ENDBRANCH  18  19
ENDBRANCH  13  18
TORSDOF 8
ENDMDL
