MODEL 1
REMARK VINA RESULT:      -7.6      0.000      0.000
REMARK  Name = NuBBE_2083
REMARK  9 active torsions:
REMARK  status: ('A' for Active; 'I' for Inactive)
REMARK    1  A    between atoms: O_1  and  C_2
REMARK    2  A    between atoms: C_3  and  C_4
REMARK    3  A    between atoms: C_4  and  C_5
REMARK    4  A    between atoms: C_5  and  C_6
REMARK    5  A    between atoms: C_6  and  C_7
REMARK    6  A    between atoms: C_15  and  O_16
REMARK    7  A    between atoms: C_18  and  C_19
REMARK    8  A    between atoms: C_20  and  O_21
REMARK    9  A    between atoms: O_21  and  C_22
REMARK                            x       y       z     vdW  Elec       q    Type
REMARK                         _______ _______ _______ _____ _____    ______ ____
ROOT
ATOM      1  C   LIG A   1      -7.494   1.275 123.672  0.00  0.00    +0.010 C 
ENDROOT
BRANCH   1   2
ATOM      2  C   LIG A   1      -8.274   2.563 123.399  0.00  0.00    +0.039 C 
BRANCH   2   4
ATOM      3  C   LIG A   1      -6.528   3.588 121.834  0.00  0.00    +0.123 A 
ATOM      4  C   LIG A   1      -7.841   3.192 122.099  0.00  0.00    -0.005 A 
ATOM      5  C   LIG A   1      -8.815   3.431 121.117  0.00  0.00    +0.014 A 
ATOM      6  C   LIG A   1      -8.490   4.031 119.892  0.00  0.00    -0.008 A 
ATOM      7  C   LIG A   1      -9.570   4.269 118.875  0.00  0.00    +0.048 C 
ATOM      8  C   LIG A   1      -7.157   4.390 119.636  0.00  0.00    +0.127 A 
ATOM      9  C   LIG A   1      -6.185   4.175 120.616  0.00  0.00    +0.091 A 
BRANCH   3  10
ATOM     10  O   LIG A   1      -5.507   3.446 122.733  0.00  0.00    -0.506 OA
ATOM     11  H   LIG A   1      -5.830   2.966 123.513  0.00  0.00    +0.292 HD
ENDBRANCH   3  10
BRANCH   8  12
ATOM     12  O   LIG A   1      -6.906   5.000 118.433  0.00  0.00    -0.495 OA
ATOM     13  C   LIG A   1      -5.872   5.979 118.443  0.00  0.00    +0.277 C 
ENDBRANCH   8  12
ENDBRANCH   2   4
ENDBRANCH   1   2
BRANCH   1  14
ATOM     14  C   LIG A   1      -8.408   0.070 123.910  0.00  0.00    +0.039 C 
BRANCH  14  15
ATOM     15  C   LIG A   1      -7.687  -1.256 123.982  0.00  0.00    -0.002 A 
ATOM     16  C   LIG A   1      -6.338  -1.329 123.592  0.00  0.00    +0.056 A 
ATOM     17  C   LIG A   1      -5.699  -2.546 123.669  0.00  0.00    +0.167 A 
ATOM     18  O   LIG A   1      -4.405  -2.789 123.333  0.00  0.00    -0.453 OA
ATOM     19  C   LIG A   1      -4.313  -4.203 123.602  0.00  0.00    +0.466 C 
ATOM     20  O   LIG A   1      -5.539  -4.771 124.112  0.00  0.00    -0.453 OA
ATOM     21  C   LIG A   1      -6.347  -3.677 124.114  0.00  0.00    +0.170 A 
ATOM     22  C   LIG A   1      -7.664  -3.653 124.506  0.00  0.00    +0.095 A 
ATOM     23  C   LIG A   1      -8.333  -2.431 124.432  0.00  0.00    +0.124 A 
BRANCH  23  24
ATOM     24  O   LIG A   1      -9.644  -2.357 124.807  0.00  0.00    -0.506 OA
ATOM     25  H   LIG A   1      -9.888  -1.426 124.947  0.00  0.00    +0.292 HD
ENDBRANCH  23  24
ENDBRANCH  14  15
ENDBRANCH   1  14
TORSDOF 7
ENDMDL
MODEL 2
REMARK VINA RESULT:      -7.6      8.731     11.379
REMARK  Name = NuBBE_2083
REMARK  9 active torsions:
REMARK  status: ('A' for Active; 'I' for Inactive)
REMARK    1  A    between atoms: O_1  and  C_2
REMARK    2  A    between atoms: C_3  and  C_4
REMARK    3  A    between atoms: C_4  and  C_5
REMARK    4  A    between atoms: C_5  and  C_6
REMARK    5  A    between atoms: C_6  and  C_7
REMARK    6  A    between atoms: C_15  and  O_16
REMARK    7  A    between atoms: C_18  and  C_19
REMARK    8  A    between atoms: C_20  and  O_21
REMARK    9  A    between atoms: O_21  and  C_22
REMARK                            x       y       z     vdW  Elec       q    Type
REMARK                         _______ _______ _______ _____ _____    ______ ____
ROOT
ATOM      1  C   LIG A   1      -6.768   6.854 131.342  0.00  0.00    +0.010 C 
ENDROOT
BRANCH   1   2
ATOM      2  C   LIG A   1      -5.465   6.264 131.885  0.00  0.00    +0.039 C 
BRANCH   2   4
ATOM      3  C   LIG A   1      -4.599   4.274 130.530  0.00  0.00    +0.123 A 
ATOM      4  C   LIG A   1      -4.648   5.648 130.779  0.00  0.00    -0.005 A 
ATOM      5  C   LIG A   1      -3.862   6.494 129.980  0.00  0.00    +0.014 A 
ATOM      6  C   LIG A   1      -3.060   5.989 128.945  0.00  0.00    -0.008 A 
ATOM      7  C   LIG A   1      -2.233   6.935 128.122  0.00  0.00    +0.048 C 
ATOM      8  C   LIG A   1      -3.054   4.608 128.694  0.00  0.00    +0.127 A 
ATOM      9  C   LIG A   1      -3.817   3.758 129.497  0.00  0.00    +0.091 A 
BRANCH   3  10
ATOM     10  O   LIG A   1      -5.288   3.354 131.271  0.00  0.00    -0.506 OA
ATOM     11  H   LIG A   1      -5.969   2.940 130.717  0.00  0.00    +0.292 HD
ENDBRANCH   3  10
BRANCH   8  12
ATOM     12  O   LIG A   1      -2.227   4.172 127.689  0.00  0.00    -0.495 OA
ATOM     13  C   LIG A   1      -2.879   3.561 126.579  0.00  0.00    +0.277 C 
ENDBRANCH   8  12
ENDBRANCH   2   4
ENDBRANCH   1   2
BRANCH   1  14
ATOM     14  C   LIG A   1      -8.011   6.140 131.883  0.00  0.00    +0.039 C 
BRANCH  14  15
ATOM     15  C   LIG A   1      -9.311   6.586 131.254  0.00  0.00    -0.002 A 
ATOM     16  C   LIG A   1      -9.278   7.341 130.068  0.00  0.00    +0.056 A 
ATOM     17  C   LIG A   1     -10.474   7.734 129.511  0.00  0.00    +0.167 A 
ATOM     18  O   LIG A   1     -10.622   8.463 128.373  0.00  0.00    -0.453 OA
ATOM     19  C   LIG A   1     -12.058   8.572 128.301  0.00  0.00    +0.466 C 
ATOM     20  O   LIG A   1     -12.739   7.892 129.377  0.00  0.00    -0.453 OA
ATOM     21  C   LIG A   1     -11.683   7.407 130.084  0.00  0.00    +0.170 A 
ATOM     22  C   LIG A   1     -11.762   6.671 131.241  0.00  0.00    +0.095 A 
ATOM     23  C   LIG A   1     -10.563   6.266 131.827  0.00  0.00    +0.124 A 
BRANCH  23  24
ATOM     24  O   LIG A   1     -10.590   5.536 132.981  0.00  0.00    -0.506 OA
ATOM     25  H   LIG A   1     -10.302   4.625 132.794  0.00  0.00    +0.292 HD
ENDBRANCH  23  24
ENDBRANCH  14  15
ENDBRANCH   1  14
TORSDOF 7
ENDMDL
MODEL 3
REMARK VINA RESULT:      -7.6      3.349      7.790
REMARK  Name = NuBBE_2083
REMARK  9 active torsions:
REMARK  status: ('A' for Active; 'I' for Inactive)
REMARK    1  A    between atoms: O_1  and  C_2
REMARK    2  A    between atoms: C_3  and  C_4
REMARK    3  A    between atoms: C_4  and  C_5
REMARK    4  A    between atoms: C_5  and  C_6
REMARK    5  A    between atoms: C_6  and  C_7
REMARK    6  A    between atoms: C_15  and  O_16
REMARK    7  A    between atoms: C_18  and  C_19
REMARK    8  A    between atoms: C_20  and  O_21
REMARK    9  A    between atoms: O_21  and  C_22
REMARK                            x       y       z     vdW  Elec       q    Type
REMARK                         _______ _______ _______ _____ _____    ______ ____
ROOT
ATOM      1  C   LIG A   1      -9.228  -2.633 123.738  0.00  0.00    +0.010 C 
ENDROOT
BRANCH   1   2
ATOM      2  C   LIG A   1      -8.206  -3.638 124.274  0.00  0.00    +0.039 C 
BRANCH   2   4
ATOM      3  C   LIG A   1      -6.213  -2.559 125.462  0.00  0.00    +0.123 A 
ATOM      4  C   LIG A   1      -7.503  -3.096 125.492  0.00  0.00    -0.005 A 
ATOM      5  C   LIG A   1      -8.159  -3.171 126.730  0.00  0.00    +0.014 A 
ATOM      6  C   LIG A   1      -7.558  -2.706 127.909  0.00  0.00    -0.008 A 
ATOM      7  C   LIG A   1      -8.301  -2.812 129.211  0.00  0.00    +0.048 C 
ATOM      8  C   LIG A   1      -6.275  -2.139 127.847  0.00  0.00    +0.127 A 
ATOM      9  C   LIG A   1      -5.606  -2.080 126.623  0.00  0.00    +0.091 A 
BRANCH   3  10
ATOM     10  O   LIG A   1      -5.463  -2.476 124.321  0.00  0.00    -0.506 OA
ATOM     11  H   LIG A   1      -4.653  -3.000 124.431  0.00  0.00    +0.292 HD
ENDBRANCH   3  10
BRANCH   8  12
ATOM     12  O   LIG A   1      -5.728  -1.730 129.037  0.00  0.00    -0.495 OA
ATOM     13  C   LIG A   1      -4.453  -2.282 129.350  0.00  0.00    +0.277 C 
ENDBRANCH   8  12
ENDBRANCH   2   4
ENDBRANCH   1   2
BRANCH   1  14
ATOM     14  C   LIG A   1      -8.617  -1.647 122.738  0.00  0.00    +0.039 C 
BRANCH  14  15
ATOM     15  C   LIG A   1      -8.615  -0.208 123.202  0.00  0.00    -0.002 A 
ATOM     16  C   LIG A   1      -7.445   0.332 123.765  0.00  0.00    +0.056 A 
ATOM     17  C   LIG A   1      -7.464   1.645 124.178  0.00  0.00    +0.167 A 
ATOM     18  O   LIG A   1      -6.425   2.319 124.739  0.00  0.00    -0.453 OA
ATOM     19  C   LIG A   1      -7.026   3.610 124.966  0.00  0.00    +0.466 C 
ATOM     20  O   LIG A   1      -8.397   3.690 124.520  0.00  0.00    -0.453 OA
ATOM     21  C   LIG A   1      -8.589   2.428 124.052  0.00  0.00    +0.170 A 
ATOM     22  C   LIG A   1      -9.754   1.943 123.506  0.00  0.00    +0.095 A 
ATOM     23  C   LIG A   1      -9.760   0.614 123.086  0.00  0.00    +0.124 A 
BRANCH  23  24
ATOM     24  O   LIG A   1     -10.896   0.084 122.542  0.00  0.00    -0.506 OA
ATOM     25  H   LIG A   1     -11.295   0.731 121.935  0.00  0.00    +0.292 HD
ENDBRANCH  23  24
ENDBRANCH  14  15
ENDBRANCH   1  14
TORSDOF 7
ENDMDL
MODEL 4
REMARK VINA RESULT:      -7.5      8.456     10.567
REMARK  Name = NuBBE_2083
REMARK  9 active torsions:
REMARK  status: ('A' for Active; 'I' for Inactive)
REMARK    1  A    between atoms: O_1  and  C_2
REMARK    2  A    between atoms: C_3  and  C_4
REMARK    3  A    between atoms: C_4  and  C_5
REMARK    4  A    between atoms: C_5  and  C_6
REMARK    5  A    between atoms: C_6  and  C_7
REMARK    6  A    between atoms: C_15  and  O_16
REMARK    7  A    between atoms: C_18  and  C_19
REMARK    8  A    between atoms: C_20  and  O_21
REMARK    9  A    between atoms: O_21  and  C_22
REMARK                            x       y       z     vdW  Elec       q    Type
REMARK                         _______ _______ _______ _____ _____    ______ ____
ROOT
ATOM      1  C   LIG A   1      -6.861   6.875 131.113  0.00  0.00    +0.010 C 
ENDROOT
BRANCH   1   2
ATOM      2  C   LIG A   1      -8.002   6.068 131.737  0.00  0.00    +0.039 C 
BRANCH   2   4
ATOM      3  C   LIG A   1     -10.555   6.221 131.812  0.00  0.00    +0.123 A 
ATOM      4  C   LIG A   1      -9.336   6.510 131.193  0.00  0.00    -0.005 A 
ATOM      5  C   LIG A   1      -9.361   7.214 129.978  0.00  0.00    +0.014 A 
ATOM      6  C   LIG A   1     -10.568   7.639 129.401  0.00  0.00    -0.008 A 
ATOM      7  C   LIG A   1     -10.541   8.386 128.098  0.00  0.00    +0.048 C 
ATOM      8  C   LIG A   1     -11.777   7.365 130.059  0.00  0.00    +0.127 A 
ATOM      9  C   LIG A   1     -11.762   6.647 131.257  0.00  0.00    +0.091 A 
BRANCH   3  10
ATOM     10  O   LIG A   1     -10.654   5.505 132.972  0.00  0.00    -0.506 OA
ATOM     11  H   LIG A   1     -11.584   5.467 133.249  0.00  0.00    +0.292 HD
ENDBRANCH   3  10
BRANCH   8  12
ATOM     12  O   LIG A   1     -12.924   7.780 129.431  0.00  0.00    -0.495 OA
ATOM     13  C   LIG A   1     -13.512   6.836 128.541  0.00  0.00    +0.277 C 
ENDBRANCH   8  12
ENDBRANCH   2   4
ENDBRANCH   1   2
BRANCH   1  14
ATOM     14  C   LIG A   1      -5.481   6.304 131.450  0.00  0.00    +0.039 C 
BRANCH  14  15
ATOM     15  C   LIG A   1      -4.661   5.900 130.247  0.00  0.00    -0.002 A 
ATOM     16  C   LIG A   1      -4.409   4.536 130.012  0.00  0.00    +0.056 A 
ATOM     17  C   LIG A   1      -3.663   4.189 128.908  0.00  0.00    +0.167 A 
ATOM     18  O   LIG A   1      -3.330   2.925 128.536  0.00  0.00    -0.453 OA
ATOM     19  C   LIG A   1      -2.554   3.184 127.348  0.00  0.00    +0.466 C 
ATOM     20  O   LIG A   1      -2.457   4.587 127.022  0.00  0.00    -0.453 OA
ATOM     21  C   LIG A   1      -3.165   5.138 128.043  0.00  0.00    +0.170 A 
ATOM     22  C   LIG A   1      -3.387   6.481 128.233  0.00  0.00    +0.095 A 
ATOM     23  C   LIG A   1      -4.136   6.856 129.348  0.00  0.00    +0.124 A 
BRANCH  23  24
ATOM     24  O   LIG A   1      -4.379   8.180 129.582  0.00  0.00    -0.506 OA
ATOM     25  H   LIG A   1      -5.201   8.442 129.132  0.00  0.00    +0.292 HD
ENDBRANCH  23  24
ENDBRANCH  14  15
ENDBRANCH   1  14
TORSDOF 7
ENDMDL
MODEL 5
REMARK VINA RESULT:      -7.5      8.609     11.313
REMARK  Name = NuBBE_2083
REMARK  9 active torsions:
REMARK  status: ('A' for Active; 'I' for Inactive)
REMARK    1  A    between atoms: O_1  and  C_2
REMARK    2  A    between atoms: C_3  and  C_4
REMARK    3  A    between atoms: C_4  and  C_5
REMARK    4  A    between atoms: C_5  and  C_6
REMARK    5  A    between atoms: C_6  and  C_7
REMARK    6  A    between atoms: C_15  and  O_16
REMARK    7  A    between atoms: C_18  and  C_19
REMARK    8  A    between atoms: C_20  and  O_21
REMARK    9  A    between atoms: O_21  and  C_22
REMARK                            x       y       z     vdW  Elec       q    Type
REMARK                         _______ _______ _______ _____ _____    ______ ____
ROOT
ATOM      1  C   LIG A   1      -6.962   7.096 130.918  0.00  0.00    +0.010 C 
ENDROOT
BRANCH   1   2
ATOM      2  C   LIG A   1      -5.572   6.746 131.453  0.00  0.00    +0.039 C 
BRANCH   2   4
ATOM      3  C   LIG A   1      -4.134   6.595 129.341  0.00  0.00    +0.123 A 
ATOM      4  C   LIG A   1      -4.773   5.986 130.425  0.00  0.00    -0.005 A 
ATOM      5  C   LIG A   1      -4.699   4.589 130.537  0.00  0.00    +0.014 A 
ATOM      6  C   LIG A   1      -3.991   3.815 129.605  0.00  0.00    -0.008 A 
ATOM      7  C   LIG A   1      -3.945   2.322 129.767  0.00  0.00    +0.048 C 
ATOM      8  C   LIG A   1      -3.330   4.453 128.544  0.00  0.00    +0.127 A 
ATOM      9  C   LIG A   1      -3.416   5.841 128.413  0.00  0.00    +0.091 A 
BRANCH   3  10
ATOM     10  O   LIG A   1      -4.177   7.942 129.107  0.00  0.00    -0.506 OA
ATOM     11  H   LIG A   1      -3.493   8.382 129.638  0.00  0.00    +0.292 HD
ENDBRANCH   3  10
BRANCH   8  12
ATOM     12  O   LIG A   1      -2.680   3.640 127.649  0.00  0.00    -0.495 OA
ATOM     13  C   LIG A   1      -3.184   3.665 126.318  0.00  0.00    +0.277 C 
ENDBRANCH   8  12
ENDBRANCH   2   4
ENDBRANCH   1   2
BRANCH   1  14
ATOM     14  C   LIG A   1      -8.081   6.338 131.639  0.00  0.00    +0.039 C 
BRANCH  14  15
ATOM     15  C   LIG A   1      -9.472   6.662 131.147  0.00  0.00    -0.002 A 
ATOM     16  C   LIG A   1      -9.629   7.416 129.970  0.00  0.00    +0.056 A 
ATOM     17  C   LIG A   1     -10.905   7.697 129.539  0.00  0.00    +0.167 A 
ATOM     18  O   LIG A   1     -11.232   8.409 128.428  0.00  0.00    -0.453 OA
ATOM     19  C   LIG A   1     -12.672   8.386 128.501  0.00  0.00    +0.466 C 
ATOM     20  O   LIG A   1     -13.177   7.647 129.635  0.00  0.00    -0.453 OA
ATOM     21  C   LIG A   1     -12.016   7.262 130.227  0.00  0.00    +0.170 A 
ATOM     22  C   LIG A   1     -11.910   6.522 131.381  0.00  0.00    +0.095 A 
ATOM     23  C   LIG A   1     -10.627   6.230 131.840  0.00  0.00    +0.124 A 
BRANCH  23  24
ATOM     24  O   LIG A   1     -10.470   5.501 132.985  0.00  0.00    -0.506 OA
ATOM     25  H   LIG A   1      -9.656   5.781 133.438  0.00  0.00    +0.292 HD
ENDBRANCH  23  24
ENDBRANCH  14  15
ENDBRANCH   1  14
TORSDOF 7
ENDMDL
MODEL 6
REMARK VINA RESULT:      -7.4     10.278     11.772
REMARK  Name = NuBBE_2083
REMARK  9 active torsions:
REMARK  status: ('A' for Active; 'I' for Inactive)
REMARK    1  A    between atoms: O_1  and  C_2
REMARK    2  A    between atoms: C_3  and  C_4
REMARK    3  A    between atoms: C_4  and  C_5
REMARK    4  A    between atoms: C_5  and  C_6
REMARK    5  A    between atoms: C_6  and  C_7
REMARK    6  A    between atoms: C_15  and  O_16
REMARK    7  A    between atoms: C_18  and  C_19
REMARK    8  A    between atoms: C_20  and  O_21
REMARK    9  A    between atoms: O_21  and  C_22
REMARK                            x       y       z     vdW  Elec       q    Type
REMARK                         _______ _______ _______ _____ _____    ______ ____
ROOT
ATOM      1  C   LIG A   1      -8.302   5.318 130.403  0.00  0.00    +0.010 C 
ENDROOT
BRANCH   1   2
ATOM      2  C   LIG A   1      -9.774   4.946 130.597  0.00  0.00    +0.039 C 
BRANCH   2   4
ATOM      3  C   LIG A   1     -11.709   6.574 130.984  0.00  0.00    +0.123 A 
ATOM      4  C   LIG A   1     -10.677   6.078 130.183  0.00  0.00    -0.005 A 
ATOM      5  C   LIG A   1     -10.501   6.639 128.908  0.00  0.00    +0.014 A 
ATOM      6  C   LIG A   1     -11.318   7.683 128.446  0.00  0.00    -0.008 A 
ATOM      7  C   LIG A   1     -11.091   8.247 127.072  0.00  0.00    +0.048 C 
ATOM      8  C   LIG A   1     -12.327   8.186 129.283  0.00  0.00    +0.127 A 
ATOM      9  C   LIG A   1     -12.522   7.619 130.544  0.00  0.00    +0.091 A 
BRANCH   3  10
ATOM     10  O   LIG A   1     -12.001   6.075 132.223  0.00  0.00    -0.506 OA
ATOM     11  H   LIG A   1     -12.058   5.107 132.174  0.00  0.00    +0.292 HD
ENDBRANCH   3  10
BRANCH   8  12
ATOM     12  O   LIG A   1     -13.112   9.185 128.764  0.00  0.00    -0.495 OA
ATOM     13  C   LIG A   1     -13.311  10.312 129.612  0.00  0.00    +0.277 C 
ENDBRANCH   8  12
ENDBRANCH   2   4
ENDBRANCH   1   2
BRANCH   1  14
ATOM     14  C   LIG A   1      -7.825   6.380 131.398  0.00  0.00    +0.039 C 
BRANCH  14  15
ATOM     15  C   LIG A   1      -7.351   5.827 132.722  0.00  0.00    -0.002 A 
ATOM     16  C   LIG A   1      -6.043   5.321 132.828  0.00  0.00    +0.056 A 
ATOM     17  C   LIG A   1      -5.630   4.825 134.044  0.00  0.00    +0.167 A 
ATOM     18  O   LIG A   1      -4.405   4.303 134.318  0.00  0.00    -0.453 OA
ATOM     19  C   LIG A   1      -4.562   3.948 135.707  0.00  0.00    +0.466 C 
ATOM     20  O   LIG A   1      -5.862   4.283 136.241  0.00  0.00    -0.453 OA
ATOM     21  C   LIG A   1      -6.461   4.814 135.142  0.00  0.00    +0.170 A 
ATOM     22  C   LIG A   1      -7.746   5.299 135.085  0.00  0.00    +0.095 A 
ATOM     23  C   LIG A   1      -8.188   5.801 133.861  0.00  0.00    +0.124 A 
BRANCH  23  24
ATOM     24  O   LIG A   1      -9.459   6.290 133.753  0.00  0.00    -0.506 OA
ATOM     25  H   LIG A   1      -9.512   7.154 134.197  0.00  0.00    +0.292 HD
ENDBRANCH  23  24
ENDBRANCH  14  15
ENDBRANCH   1  14
TORSDOF 7
ENDMDL
MODEL 7
REMARK VINA RESULT:      -7.4     10.783     12.901
REMARK  Name = NuBBE_2083
REMARK  9 active torsions:
REMARK  status: ('A' for Active; 'I' for Inactive)
REMARK    1  A    between atoms: O_1  and  C_2
REMARK    2  A    between atoms: C_3  and  C_4
REMARK    3  A    between atoms: C_4  and  C_5
REMARK    4  A    between atoms: C_5  and  C_6
REMARK    5  A    between atoms: C_6  and  C_7
REMARK    6  A    between atoms: C_15  and  O_16
REMARK    7  A    between atoms: C_18  and  C_19
REMARK    8  A    between atoms: C_20  and  O_21
REMARK    9  A    between atoms: O_21  and  C_22
REMARK                            x       y       z     vdW  Elec       q    Type
REMARK                         _______ _______ _______ _____ _____    ______ ____
ROOT
ATOM      1  C   LIG A   1      -7.314   7.030 130.952  0.00  0.00    +0.010 C 
ENDROOT
BRANCH   1   2
ATOM      2  C   LIG A   1      -6.092   6.119 130.813  0.00  0.00    +0.039 C 
BRANCH   2   4
ATOM      3  C   LIG A   1      -4.090   7.713 130.791  0.00  0.00    +0.123 A 
ATOM      4  C   LIG A   1      -4.873   6.751 131.434  0.00  0.00    -0.005 A 
ATOM      5  C   LIG A   1      -4.478   6.323 132.712  0.00  0.00    +0.014 A 
ATOM      6  C   LIG A   1      -3.343   6.852 133.344  0.00  0.00    -0.008 A 
ATOM      7  C   LIG A   1      -2.960   6.358 134.710  0.00  0.00    +0.048 C 
ATOM      8  C   LIG A   1      -2.592   7.842 132.690  0.00  0.00    +0.127 A 
ATOM      9  C   LIG A   1      -2.966   8.258 131.411  0.00  0.00    +0.091 A 
BRANCH   3  10
ATOM     10  O   LIG A   1      -4.354   8.171 129.529  0.00  0.00    -0.506 OA
ATOM     11  H   LIG A   1      -4.756   9.054 129.585  0.00  0.00    +0.292 HD
ENDBRANCH   3  10
BRANCH   8  12
ATOM     12  O   LIG A   1      -1.476   8.298 133.346  0.00  0.00    -0.495 OA
ATOM     13  C   LIG A   1      -0.241   7.721 132.933  0.00  0.00    +0.277 C 
ENDBRANCH   8  12
ENDBRANCH   2   4
ENDBRANCH   1   2
BRANCH   1  14
ATOM     14  C   LIG A   1      -8.522   6.309 131.557  0.00  0.00    +0.039 C 
BRANCH  14  15
ATOM     15  C   LIG A   1      -9.855   6.736 130.987  0.00  0.00    -0.002 A 
ATOM     16  C   LIG A   1      -9.886   7.489 129.799  0.00  0.00    +0.056 A 
ATOM     17  C   LIG A   1     -11.110   7.865 129.295  0.00  0.00    +0.167 A 
ATOM     18  O   LIG A   1     -11.318   8.590 128.164  0.00  0.00    -0.453 OA
ATOM     19  C   LIG A   1     -12.757   8.679 128.156  0.00  0.00    +0.466 C 
ATOM     20  O   LIG A   1     -13.381   7.992 129.263  0.00  0.00    -0.453 OA
ATOM     21  C   LIG A   1     -12.288   7.523 129.922  0.00  0.00    +0.170 A 
ATOM     22  C   LIG A   1     -12.305   6.788 131.083  0.00  0.00    +0.095 A 
ATOM     23  C   LIG A   1     -11.076   6.401 131.616  0.00  0.00    +0.124 A 
BRANCH  23  24
ATOM     24  O   LIG A   1     -11.041   5.672 132.771  0.00  0.00    -0.506 OA
ATOM     25  H   LIG A   1     -10.137   5.677 133.129  0.00  0.00    +0.292 HD
ENDBRANCH  23  24
ENDBRANCH  14  15
ENDBRANCH   1  14
TORSDOF 7
ENDMDL
MODEL 8
REMARK VINA RESULT:      -7.4     10.226     11.556
REMARK  Name = NuBBE_2083
REMARK  9 active torsions:
REMARK  status: ('A' for Active; 'I' for Inactive)
REMARK    1  A    between atoms: O_1  and  C_2
REMARK    2  A    between atoms: C_3  and  C_4
REMARK    3  A    between atoms: C_4  and  C_5
REMARK    4  A    between atoms: C_5  and  C_6
REMARK    5  A    between atoms: C_6  and  C_7
REMARK    6  A    between atoms: C_15  and  O_16
REMARK    7  A    between atoms: C_18  and  C_19
REMARK    8  A    between atoms: C_20  and  O_21
REMARK    9  A    between atoms: O_21  and  C_22
REMARK                            x       y       z     vdW  Elec       q    Type
REMARK                         _______ _______ _______ _____ _____    ______ ____
ROOT
ATOM      1  C   LIG A   1      -7.807   6.192 131.901  0.00  0.00    +0.010 C 
ENDROOT
BRANCH   1   2
ATOM      2  C   LIG A   1      -8.793   5.408 131.033  0.00  0.00    +0.039 C 
BRANCH   2   4
ATOM      3  C   LIG A   1     -11.084   6.488 131.403  0.00  0.00    +0.123 A 
ATOM      4  C   LIG A   1      -9.951   6.277 130.612  0.00  0.00    -0.005 A 
ATOM      5  C   LIG A   1      -9.910   6.874 129.342  0.00  0.00    +0.014 A 
ATOM      6  C   LIG A   1     -10.961   7.678 128.876  0.00  0.00    -0.008 A 
ATOM      7  C   LIG A   1     -10.871   8.291 127.507  0.00  0.00    +0.048 C 
ATOM      8  C   LIG A   1     -12.073   7.902 129.703  0.00  0.00    +0.127 A 
ATOM      9  C   LIG A   1     -12.131   7.295 130.959  0.00  0.00    +0.091 A 
BRANCH   3  10
ATOM     10  O   LIG A   1     -11.251   5.922 132.637  0.00  0.00    -0.506 OA
ATOM     11  H   LIG A   1     -11.952   5.251 132.590  0.00  0.00    +0.292 HD
ENDBRANCH   3  10
BRANCH   8  12
ATOM     12  O   LIG A   1     -13.081   8.672 129.179  0.00  0.00    -0.495 OA
ATOM     13  C   LIG A   1     -13.164  10.001 129.684  0.00  0.00    +0.277 C 
ENDBRANCH   8  12
ENDBRANCH   2   4
ENDBRANCH   1   2
BRANCH   1  14
ATOM     14  C   LIG A   1      -6.861   7.070 131.077  0.00  0.00    +0.039 C 
BRANCH  14  15
ATOM     15  C   LIG A   1      -5.397   6.733 131.237  0.00  0.00    -0.002 A 
ATOM     16  C   LIG A   1      -5.022   5.685 132.096  0.00  0.00    +0.056 A 
ATOM     17  C   LIG A   1      -3.682   5.392 132.225  0.00  0.00    +0.167 A 
ATOM     18  O   LIG A   1      -3.151   4.416 133.008  0.00  0.00    -0.453 OA
ATOM     19  C   LIG A   1      -1.744   4.594 132.750  0.00  0.00    +0.466 C 
ATOM     20  O   LIG A   1      -1.462   5.651 131.808  0.00  0.00    -0.453 OA
ATOM     21  C   LIG A   1      -2.718   6.097 131.540  0.00  0.00    +0.170 A 
ATOM     22  C   LIG A   1      -3.038   7.129 130.690  0.00  0.00    +0.095 A 
ATOM     23  C   LIG A   1      -4.389   7.446 130.548  0.00  0.00    +0.124 A 
BRANCH  23  24
ATOM     24  O   LIG A   1      -4.757   8.466 129.717  0.00  0.00    -0.506 OA
ATOM     25  H   LIG A   1      -4.999   9.244 130.249  0.00  0.00    +0.292 HD
ENDBRANCH  23  24
ENDBRANCH  14  15
ENDBRANCH   1  14
TORSDOF 7
ENDMDL
MODEL 9
REMARK VINA RESULT:      -7.3      8.444     12.117
REMARK  Name = NuBBE_2083
REMARK  9 active torsions:
REMARK  status: ('A' for Active; 'I' for Inactive)
REMARK    1  A    between atoms: O_1  and  C_2
REMARK    2  A    between atoms: C_3  and  C_4
REMARK    3  A    between atoms: C_4  and  C_5
REMARK    4  A    between atoms: C_5  and  C_6
REMARK    5  A    between atoms: C_6  and  C_7
REMARK    6  A    between atoms: C_15  and  O_16
REMARK    7  A    between atoms: C_18  and  C_19
REMARK    8  A    between atoms: C_20  and  O_21
REMARK    9  A    between atoms: O_21  and  C_22
REMARK                            x       y       z     vdW  Elec       q    Type
REMARK                         _______ _______ _______ _____ _____    ______ ____
ROOT
ATOM      1  C   LIG A   1      -7.888   4.934 130.537  0.00  0.00    +0.010 C 
ENDROOT
BRANCH   1   2
ATOM      2  C   LIG A   1      -9.048   4.070 130.039  0.00  0.00    +0.039 C 
BRANCH   2   4
ATOM      3  C   LIG A   1      -9.305   2.100 131.651  0.00  0.00    +0.123 A 
ATOM      4  C   LIG A   1      -8.859   2.629 130.437  0.00  0.00    -0.005 A 
ATOM      5  C   LIG A   1      -8.163   1.781 129.561  0.00  0.00    +0.014 A 
ATOM      6  C   LIG A   1      -7.931   0.433 129.874  0.00  0.00    -0.008 A 
ATOM      7  C   LIG A   1      -7.177  -0.432 128.905  0.00  0.00    +0.048 C 
ATOM      8  C   LIG A   1      -8.418  -0.083 131.086  0.00  0.00    +0.127 A 
ATOM      9  C   LIG A   1      -9.094   0.758 131.972  0.00  0.00    +0.091 A 
BRANCH   3  10
ATOM     10  O   LIG A   1      -9.955   2.842 132.598  0.00  0.00    -0.506 OA
ATOM     11  H   LIG A   1      -9.635   3.759 132.562  0.00  0.00    +0.292 HD
ENDBRANCH   3  10
BRANCH   8  12
ATOM     12  O   LIG A   1      -8.134  -1.400 131.348  0.00  0.00    -0.495 OA
ATOM     13  C   LIG A   1      -7.659  -1.675 132.663  0.00  0.00    +0.277 C 
ENDBRANCH   8  12
ENDBRANCH   2   4
ENDBRANCH   1   2
BRANCH   1  14
ATOM     14  C   LIG A   1      -8.359   6.149 131.341  0.00  0.00    +0.039 C 
BRANCH  14  15
ATOM     15  C   LIG A   1      -9.718   6.674 130.942  0.00  0.00    -0.002 A 
ATOM     16  C   LIG A   1      -9.837   7.474 129.791  0.00  0.00    +0.056 A 
ATOM     17  C   LIG A   1     -11.085   7.939 129.443  0.00  0.00    +0.167 A 
ATOM     18  O   LIG A   1     -11.374   8.719 128.368  0.00  0.00    -0.453 OA
ATOM     19  C   LIG A   1     -12.797   8.890 128.528  0.00  0.00    +0.466 C 
ATOM     20  O   LIG A   1     -13.333   8.197 129.676  0.00  0.00    -0.453 OA
ATOM     21  C   LIG A   1     -12.203   7.640 130.189  0.00  0.00    +0.170 A 
ATOM     22  C   LIG A   1     -12.135   6.862 131.320  0.00  0.00    +0.095 A 
ATOM     23  C   LIG A   1     -10.880   6.384 131.695  0.00  0.00    +0.124 A 
BRANCH  23  24
ATOM     24  O   LIG A   1     -10.760   5.610 132.814  0.00  0.00    -0.506 OA
ATOM     25  H   LIG A   1     -10.912   6.157 133.604  0.00  0.00    +0.292 HD
ENDBRANCH  23  24
ENDBRANCH  14  15
ENDBRANCH   1  14
TORSDOF 7
ENDMDL
