MODEL 1
REMARK VINA RESULT:      -6.7      0.000      0.000
REMARK  Name = NuBBE_662
REMARK  6 active torsions:
REMARK  status: ('A' for Active; 'I' for Inactive)
REMARK    1  A    between atoms: C_1  and  O_2
REMARK    2  A    between atoms: O_2  and  C_3
REMARK    3  A    between atoms: C_8  and  C_9
REMARK    4  A    between atoms: C_9  and  C_10
REMARK    5  A    between atoms: C_11  and  C_12
REMARK    6  A    between atoms: C_11  and  C_13
REMARK                            x       y       z     vdW  Elec       q    Type
REMARK                         _______ _______ _______ _____ _____    ______ ____
ROOT
ATOM      1  C   LIG A   1      -6.857   2.638 125.027  0.00  0.00    +0.127 A 
ATOM      2  C   LIG A   1      -7.671   1.963 124.105  0.00  0.00    +0.046 A 
ATOM      3  C   LIG A   1      -7.602   2.250 122.740  0.00  0.00    +0.015 A 
ATOM      4  C   LIG A   1      -6.714   3.216 122.279  0.00  0.00    +0.018 A 
ATOM      5  C   LIG A   1      -5.889   3.870 123.195  0.00  0.00    +0.146 A 
ATOM      6  C   LIG A   1      -5.924   3.590 124.573  0.00  0.00    +0.041 A 
ATOM      7  O   LIG A   1      -4.974   4.847 122.732  0.00  0.00    -0.422 OA
ATOM      8  C   LIG A   1      -4.874   5.185 121.392  0.00  0.00    +0.337 A 
ATOM      9  O   LIG A   1      -4.086   6.036 120.983  0.00  0.00    -0.245 OA
ATOM     10  C   LIG A   1      -5.757   4.471 120.456  0.00  0.00    +0.092 A 
ATOM     11  C   LIG A   1      -6.625   3.541 120.867  0.00  0.00    +0.018 A 
ENDROOT
BRANCH   1  13
ATOM     12  C   LIG A   1      -7.102   1.013 126.735  0.00  0.00    +0.277 C 
ATOM     13  O   LIG A   1      -6.885   2.376 126.374  0.00  0.00    -0.495 OA
ENDBRANCH   1  13
BRANCH   6  14
ATOM     14  C   LIG A   1      -4.986   4.312 125.521  0.00  0.00    +0.069 C 
BRANCH  14  15
ATOM     15  C   LIG A   1      -3.659   3.617 125.696  0.00  0.00    -0.023 C 
ATOM     16  C   LIG A   1      -2.770   3.769 126.699  0.00  0.00    -0.079 C 
ATOM     17  C   LIG A   1      -2.935   4.687 127.881  0.00  0.00    +0.038 C 
ATOM     18  C   LIG A   1      -1.487   2.977 126.723  0.00  0.00    +0.038 C 
ENDBRANCH  14  15
ENDBRANCH   6  14
TORSDOF 3
ENDMDL
MODEL 2
REMARK VINA RESULT:      -6.6      6.131      8.747
REMARK  Name = NuBBE_662
REMARK  6 active torsions:
REMARK  status: ('A' for Active; 'I' for Inactive)
REMARK    1  A    between atoms: C_1  and  O_2
REMARK    2  A    between atoms: O_2  and  C_3
REMARK    3  A    between atoms: C_8  and  C_9
REMARK    4  A    between atoms: C_9  and  C_10
REMARK    5  A    between atoms: C_11  and  C_12
REMARK    6  A    between atoms: C_11  and  C_13
REMARK                            x       y       z     vdW  Elec       q    Type
REMARK                         _______ _______ _______ _____ _____    ______ ____
ROOT
ATOM      1  C   LIG A   1      -7.946  -2.519 127.291  0.00  0.00    +0.127 A 
ATOM      2  C   LIG A   1      -8.594  -3.175 128.349  0.00  0.00    +0.046 A 
ATOM      3  C   LIG A   1      -7.889  -3.576 129.485  0.00  0.00    +0.015 A 
ATOM      4  C   LIG A   1      -6.524  -3.324 129.579  0.00  0.00    +0.018 A 
ATOM      5  C   LIG A   1      -5.886  -2.653 128.535  0.00  0.00    +0.146 A 
ATOM      6  C   LIG A   1      -6.573  -2.221 127.386  0.00  0.00    +0.041 A 
ATOM      7  O   LIG A   1      -4.498  -2.383 128.628  0.00  0.00    -0.422 OA
ATOM      8  C   LIG A   1      -3.745  -2.773 129.723  0.00  0.00    +0.337 A 
ATOM      9  O   LIG A   1      -2.539  -2.546 129.808  0.00  0.00    -0.245 OA
ATOM     10  C   LIG A   1      -4.453  -3.475 130.805  0.00  0.00    +0.092 A 
ATOM     11  C   LIG A   1      -5.762  -3.736 130.745  0.00  0.00    +0.018 A 
ENDROOT
BRANCH   1  13
ATOM     12  C   LIG A   1      -9.182  -3.127 125.363  0.00  0.00    +0.277 C 
ATOM     13  O   LIG A   1      -8.606  -2.097 126.163  0.00  0.00    -0.495 OA
ENDBRANCH   1  13
BRANCH   6  14
ATOM     14  C   LIG A   1      -5.835  -1.472 126.293  0.00  0.00    +0.069 C 
BRANCH  14  15
ATOM     15  C   LIG A   1      -5.166  -2.381 125.293  0.00  0.00    -0.023 C 
ATOM     16  C   LIG A   1      -5.415  -2.482 123.970  0.00  0.00    -0.079 C 
ATOM     17  C   LIG A   1      -6.438  -1.682 123.209  0.00  0.00    +0.038 C 
ATOM     18  C   LIG A   1      -4.635  -3.443 123.107  0.00  0.00    +0.038 C 
ENDBRANCH  14  15
ENDBRANCH   6  14
TORSDOF 3
ENDMDL
MODEL 3
REMARK VINA RESULT:      -6.5      5.326      6.609
REMARK  Name = NuBBE_662
REMARK  6 active torsions:
REMARK  status: ('A' for Active; 'I' for Inactive)
REMARK    1  A    between atoms: C_1  and  O_2
REMARK    2  A    between atoms: O_2  and  C_3
REMARK    3  A    between atoms: C_8  and  C_9
REMARK    4  A    between atoms: C_9  and  C_10
REMARK    5  A    between atoms: C_11  and  C_12
REMARK    6  A    between atoms: C_11  and  C_13
REMARK                            x       y       z     vdW  Elec       q    Type
REMARK                         _______ _______ _______ _____ _____    ______ ____
ROOT
ATOM      1  C   LIG A   1      -7.862  -1.611 126.980  0.00  0.00    +0.127 A 
ATOM      2  C   LIG A   1      -7.893  -0.371 127.637  0.00  0.00    +0.046 A 
ATOM      3  C   LIG A   1      -8.399   0.765 127.003  0.00  0.00    +0.015 A 
ATOM      4  C   LIG A   1      -8.884   0.676 125.703  0.00  0.00    +0.018 A 
ATOM      5  C   LIG A   1      -8.872  -0.563 125.059  0.00  0.00    +0.146 A 
ATOM      6  C   LIG A   1      -8.384  -1.728 125.678  0.00  0.00    +0.041 A 
ATOM      7  O   LIG A   1      -9.374  -0.664 123.738  0.00  0.00    -0.422 OA
ATOM      8  C   LIG A   1      -9.873   0.433 123.055  0.00  0.00    +0.337 A 
ATOM      9  O   LIG A   1     -10.306   0.354 121.907  0.00  0.00    -0.245 OA
ATOM     10  C   LIG A   1      -9.872   1.720 123.767  0.00  0.00    +0.092 A 
ATOM     11  C   LIG A   1      -9.410   1.842 125.015  0.00  0.00    +0.018 A 
ENDROOT
BRANCH   1  13
ATOM     12  C   LIG A   1      -8.122  -3.220 128.700  0.00  0.00    +0.277 C 
ATOM     13  O   LIG A   1      -7.384  -2.753 127.573  0.00  0.00    -0.495 OA
ENDBRANCH   1  13
BRANCH   6  14
ATOM     14  C   LIG A   1      -8.419  -3.053 124.941  0.00  0.00    +0.069 C 
BRANCH  14  15
ATOM     15  C   LIG A   1      -7.049  -3.618 124.661  0.00  0.00    -0.023 C 
ATOM     16  C   LIG A   1      -6.131  -3.165 123.783  0.00  0.00    -0.079 C 
ATOM     17  C   LIG A   1      -6.295  -1.967 122.886  0.00  0.00    +0.038 C 
ATOM     18  C   LIG A   1      -4.794  -3.849 123.639  0.00  0.00    +0.038 C 
ENDBRANCH  14  15
ENDBRANCH   6  14
TORSDOF 3
ENDMDL
MODEL 4
REMARK VINA RESULT:      -6.2      5.370      7.255
REMARK  Name = NuBBE_662
REMARK  6 active torsions:
REMARK  status: ('A' for Active; 'I' for Inactive)
REMARK    1  A    between atoms: C_1  and  O_2
REMARK    2  A    between atoms: O_2  and  C_3
REMARK    3  A    between atoms: C_8  and  C_9
REMARK    4  A    between atoms: C_9  and  C_10
REMARK    5  A    between atoms: C_11  and  C_12
REMARK    6  A    between atoms: C_11  and  C_13
REMARK                            x       y       z     vdW  Elec       q    Type
REMARK                         _______ _______ _______ _____ _____    ______ ____
ROOT
ATOM      1  C   LIG A   1      -6.637  -2.974 123.940  0.00  0.00    +0.127 A 
ATOM      2  C   LIG A   1      -6.007  -2.115 123.027  0.00  0.00    +0.046 A 
ATOM      3  C   LIG A   1      -6.486  -0.822 122.808  0.00  0.00    +0.015 A 
ATOM      4  C   LIG A   1      -7.603  -0.370 123.504  0.00  0.00    +0.018 A 
ATOM      5  C   LIG A   1      -8.216  -1.219 124.427  0.00  0.00    +0.146 A 
ATOM      6  C   LIG A   1      -7.745  -2.520 124.681  0.00  0.00    +0.041 A 
ATOM      7  O   LIG A   1      -9.347  -0.762 125.147  0.00  0.00    -0.422 OA
ATOM      8  C   LIG A   1      -9.876   0.505 124.959  0.00  0.00    +0.337 A 
ATOM      9  O   LIG A   1     -10.861   0.907 125.576  0.00  0.00    -0.245 OA
ATOM     10  C   LIG A   1      -9.201   1.371 123.980  0.00  0.00    +0.092 A 
ATOM     11  C   LIG A   1      -8.129   0.967 123.292  0.00  0.00    +0.018 A 
ENDROOT
BRANCH   1  13
ATOM     12  C   LIG A   1      -4.828  -4.503 123.854  0.00  0.00    +0.277 C 
ATOM     13  O   LIG A   1      -6.190  -4.247 124.193  0.00  0.00    -0.495 OA
ENDBRANCH   1  13
BRANCH   6  14
ATOM     14  C   LIG A   1      -8.433  -3.390 125.715  0.00  0.00    +0.069 C 
BRANCH  14  15
ATOM     15  C   LIG A   1      -7.985  -3.110 127.127  0.00  0.00    -0.023 C 
ATOM     16  C   LIG A   1      -8.564  -3.517 128.276  0.00  0.00    -0.079 C 
ATOM     17  C   LIG A   1      -9.807  -4.360 128.378  0.00  0.00    +0.038 C 
ATOM     18  C   LIG A   1      -7.969  -3.153 129.614  0.00  0.00    +0.038 C 
ENDBRANCH  14  15
ENDBRANCH   6  14
TORSDOF 3
ENDMDL
MODEL 5
REMARK VINA RESULT:      -6.1      2.208      4.487
REMARK  Name = NuBBE_662
REMARK  6 active torsions:
REMARK  status: ('A' for Active; 'I' for Inactive)
REMARK    1  A    between atoms: C_1  and  O_2
REMARK    2  A    between atoms: O_2  and  C_3
REMARK    3  A    between atoms: C_8  and  C_9
REMARK    4  A    between atoms: C_9  and  C_10
REMARK    5  A    between atoms: C_11  and  C_12
REMARK    6  A    between atoms: C_11  and  C_13
REMARK                            x       y       z     vdW  Elec       q    Type
REMARK                         _______ _______ _______ _____ _____    ______ ____
ROOT
ATOM      1  C   LIG A   1      -7.153   3.034 125.178  0.00  0.00    +0.127 A 
ATOM      2  C   LIG A   1      -5.888   3.597 125.404  0.00  0.00    +0.046 A 
ATOM      3  C   LIG A   1      -5.131   4.111 124.348  0.00  0.00    +0.015 A 
ATOM      4  C   LIG A   1      -5.633   4.069 123.052  0.00  0.00    +0.018 A 
ATOM      5  C   LIG A   1      -6.901   3.528 122.833  0.00  0.00    +0.146 A 
ATOM      6  C   LIG A   1      -7.693   3.019 123.878  0.00  0.00    +0.041 A 
ATOM      7  O   LIG A   1      -7.423   3.492 121.516  0.00  0.00    -0.422 OA
ATOM      8  C   LIG A   1      -6.710   3.971 120.430  0.00  0.00    +0.337 A 
ATOM      9  O   LIG A   1      -7.155   3.938 119.283  0.00  0.00    -0.245 OA
ATOM     10  C   LIG A   1      -5.380   4.537 120.700  0.00  0.00    +0.092 A 
ATOM     11  C   LIG A   1      -4.866   4.588 121.933  0.00  0.00    +0.018 A 
ENDROOT
BRANCH   1  13
ATOM     12  C   LIG A   1      -7.237   2.140 127.372  0.00  0.00    +0.277 C 
ATOM     13  O   LIG A   1      -7.933   2.531 126.190  0.00  0.00    -0.495 OA
ENDBRANCH   1  13
BRANCH   6  14
ATOM     14  C   LIG A   1      -9.075   2.467 123.587  0.00  0.00    +0.069 C 
BRANCH  14  15
ATOM     15  C   LIG A   1      -9.053   1.069 123.020  0.00  0.00    -0.023 C 
ATOM     16  C   LIG A   1      -9.136  -0.098 123.692  0.00  0.00    -0.079 C 
ATOM     17  C   LIG A   1      -9.273  -0.240 125.184  0.00  0.00    +0.038 C 
ATOM     18  C   LIG A   1      -9.111  -1.416 122.958  0.00  0.00    +0.038 C 
ENDBRANCH  14  15
ENDBRANCH   6  14
TORSDOF 3
ENDMDL
MODEL 6
REMARK VINA RESULT:      -6.0      2.917      5.204
REMARK  Name = NuBBE_662
REMARK  6 active torsions:
REMARK  status: ('A' for Active; 'I' for Inactive)
REMARK    1  A    between atoms: C_1  and  O_2
REMARK    2  A    between atoms: O_2  and  C_3
REMARK    3  A    between atoms: C_8  and  C_9
REMARK    4  A    between atoms: C_9  and  C_10
REMARK    5  A    between atoms: C_11  and  C_12
REMARK    6  A    between atoms: C_11  and  C_13
REMARK                            x       y       z     vdW  Elec       q    Type
REMARK                         _______ _______ _______ _____ _____    ______ ____
ROOT
ATOM      1  C   LIG A   1      -8.593   0.855 123.931  0.00  0.00    +0.127 A 
ATOM      2  C   LIG A   1      -8.867   2.071 123.288  0.00  0.00    +0.046 A 
ATOM      3  C   LIG A   1      -8.039   3.181 123.466  0.00  0.00    +0.015 A 
ATOM      4  C   LIG A   1      -6.922   3.087 124.289  0.00  0.00    +0.018 A 
ATOM      5  C   LIG A   1      -6.639   1.869 124.911  0.00  0.00    +0.146 A 
ATOM      6  C   LIG A   1      -7.445   0.729 124.736  0.00  0.00    +0.041 A 
ATOM      7  O   LIG A   1      -5.497   1.762 125.742  0.00  0.00    -0.422 OA
ATOM      8  C   LIG A   1      -4.649   2.834 125.968  0.00  0.00    +0.337 A 
ATOM      9  O   LIG A   1      -3.659   2.750 126.693  0.00  0.00    -0.245 OA
ATOM     10  C   LIG A   1      -4.978   4.099 125.294  0.00  0.00    +0.092 A 
ATOM     11  C   LIG A   1      -6.045   4.225 124.500  0.00  0.00    +0.018 A 
ENDROOT
BRANCH   1  13
ATOM     12  C   LIG A   1      -9.974  -0.421 122.486  0.00  0.00    +0.277 C 
ATOM     13  O   LIG A   1      -9.376  -0.262 123.771  0.00  0.00    -0.495 OA
ENDBRANCH   1  13
BRANCH   6  14
ATOM     14  C   LIG A   1      -7.077  -0.576 125.415  0.00  0.00    +0.069 C 
BRANCH  14  15
ATOM     15  C   LIG A   1      -6.030  -1.363 124.667  0.00  0.00    -0.023 C 
ATOM     16  C   LIG A   1      -6.116  -2.630 124.210  0.00  0.00    -0.079 C 
ATOM     17  C   LIG A   1      -7.312  -3.533 124.357  0.00  0.00    +0.038 C 
ATOM     18  C   LIG A   1      -4.968  -3.264 123.465  0.00  0.00    +0.038 C 
ENDBRANCH  14  15
ENDBRANCH   6  14
TORSDOF 3
ENDMDL
MODEL 7
REMARK VINA RESULT:      -6.0      4.002      6.815
REMARK  Name = NuBBE_662
REMARK  6 active torsions:
REMARK  status: ('A' for Active; 'I' for Inactive)
REMARK    1  A    between atoms: C_1  and  O_2
REMARK    2  A    between atoms: O_2  and  C_3
REMARK    3  A    between atoms: C_8  and  C_9
REMARK    4  A    between atoms: C_9  and  C_10
REMARK    5  A    between atoms: C_11  and  C_12
REMARK    6  A    between atoms: C_11  and  C_13
REMARK                            x       y       z     vdW  Elec       q    Type
REMARK                         _______ _______ _______ _____ _____    ______ ____
ROOT
ATOM      1  C   LIG A   1      -8.522   1.001 127.188  0.00  0.00    +0.127 A 
ATOM      2  C   LIG A   1      -7.804   0.172 128.063  0.00  0.00    +0.046 A 
ATOM      3  C   LIG A   1      -7.649  -1.190 127.797  0.00  0.00    +0.015 A 
ATOM      4  C   LIG A   1      -8.209  -1.741 126.649  0.00  0.00    +0.018 A 
ATOM      5  C   LIG A   1      -8.905  -0.909 125.769  0.00  0.00    +0.146 A 
ATOM      6  C   LIG A   1      -9.062   0.469 126.002  0.00  0.00    +0.041 A 
ATOM      7  O   LIG A   1      -9.469  -1.460 124.592  0.00  0.00    -0.422 OA
ATOM      8  C   LIG A   1      -9.361  -2.807 124.287  0.00  0.00    +0.337 A 
ATOM      9  O   LIG A   1      -9.853  -3.294 123.269  0.00  0.00    -0.245 OA
ATOM     10  C   LIG A   1      -8.618  -3.650 125.236  0.00  0.00    +0.092 A 
ATOM     11  C   LIG A   1      -8.071  -3.155 126.350  0.00  0.00    +0.018 A 
ENDROOT
BRANCH   1  13
ATOM     12  C   LIG A   1      -7.772   2.939 128.328  0.00  0.00    +0.277 C 
ATOM     13  O   LIG A   1      -8.685   2.347 127.407  0.00  0.00    -0.495 OA
ENDBRANCH   1  13
BRANCH   6  14
ATOM     14  C   LIG A   1      -9.805   1.330 124.999  0.00  0.00    +0.069 C 
BRANCH  14  15
ATOM     15  C   LIG A   1      -8.967   1.718 123.807  0.00  0.00    -0.023 C 
ATOM     16  C   LIG A   1      -8.184   2.808 123.664  0.00  0.00    -0.079 C 
ATOM     17  C   LIG A   1      -7.985   3.883 124.700  0.00  0.00    +0.038 C 
ATOM     18  C   LIG A   1      -7.397   3.036 122.398  0.00  0.00    +0.038 C 
ENDBRANCH  14  15
ENDBRANCH   6  14
TORSDOF 3
ENDMDL
MODEL 8
REMARK VINA RESULT:      -6.0      5.461      6.774
REMARK  Name = NuBBE_662
REMARK  6 active torsions:
REMARK  status: ('A' for Active; 'I' for Inactive)
REMARK    1  A    between atoms: C_1  and  O_2
REMARK    2  A    between atoms: O_2  and  C_3
REMARK    3  A    between atoms: C_8  and  C_9
REMARK    4  A    between atoms: C_9  and  C_10
REMARK    5  A    between atoms: C_11  and  C_12
REMARK    6  A    between atoms: C_11  and  C_13
REMARK                            x       y       z     vdW  Elec       q    Type
REMARK                         _______ _______ _______ _____ _____    ______ ____
ROOT
ATOM      1  C   LIG A   1      -7.384  -2.814 128.614  0.00  0.00    +0.127 A 
ATOM      2  C   LIG A   1      -8.582  -3.522 128.435  0.00  0.00    +0.046 A 
ATOM      3  C   LIG A   1      -9.122  -3.710 127.162  0.00  0.00    +0.015 A 
ATOM      4  C   LIG A   1      -8.468  -3.194 126.048  0.00  0.00    +0.018 A 
ATOM      5  C   LIG A   1      -7.266  -2.508 126.226  0.00  0.00    +0.146 A 
ATOM      6  C   LIG A   1      -6.688  -2.318 127.494  0.00  0.00    +0.041 A 
ATOM      7  O   LIG A   1      -6.588  -1.988 125.095  0.00  0.00    -0.422 OA
ATOM      8  C   LIG A   1      -7.086  -2.130 123.810  0.00  0.00    +0.337 A 
ATOM      9  O   LIG A   1      -6.507  -1.677 122.824  0.00  0.00    -0.245 OA
ATOM     10  C   LIG A   1      -8.354  -2.862 123.663  0.00  0.00    +0.092 A 
ATOM     11  C   LIG A   1      -9.010  -3.367 124.712  0.00  0.00    +0.018 A 
ENDROOT
BRANCH   1  13
ATOM     12  C   LIG A   1      -7.567  -1.820 130.758  0.00  0.00    +0.277 C 
ATOM     13  O   LIG A   1      -6.813  -2.618 129.847  0.00  0.00    -0.495 OA
ENDBRANCH   1  13
BRANCH   6  14
ATOM     14  C   LIG A   1      -5.366  -1.588 127.627  0.00  0.00    +0.069 C 
BRANCH  14  15
ATOM     15  C   LIG A   1      -5.521  -0.120 127.936  0.00  0.00    -0.023 C 
ATOM     16  C   LIG A   1      -5.067   0.552 129.014  0.00  0.00    -0.079 C 
ATOM     17  C   LIG A   1      -4.290  -0.048 130.155  0.00  0.00    +0.038 C 
ATOM     18  C   LIG A   1      -5.303   2.035 129.158  0.00  0.00    +0.038 C 
ENDBRANCH  14  15
ENDBRANCH   6  14
TORSDOF 3
ENDMDL
MODEL 9
REMARK VINA RESULT:      -6.0      4.512      7.975
REMARK  Name = NuBBE_662
REMARK  6 active torsions:
REMARK  status: ('A' for Active; 'I' for Inactive)
REMARK    1  A    between atoms: C_1  and  O_2
REMARK    2  A    between atoms: O_2  and  C_3
REMARK    3  A    between atoms: C_8  and  C_9
REMARK    4  A    between atoms: C_9  and  C_10
REMARK    5  A    between atoms: C_11  and  C_12
REMARK    6  A    between atoms: C_11  and  C_13
REMARK                            x       y       z     vdW  Elec       q    Type
REMARK                         _______ _______ _______ _____ _____    ______ ____
ROOT
ATOM      1  C   LIG A   1      -8.300  -2.565 125.723  0.00  0.00    +0.127 A 
ATOM      2  C   LIG A   1      -9.176  -3.254 126.575  0.00  0.00    +0.046 A 
ATOM      3  C   LIG A   1      -8.796  -3.592 127.875  0.00  0.00    +0.015 A 
ATOM      4  C   LIG A   1      -7.533  -3.243 128.341  0.00  0.00    +0.018 A 
ATOM      5  C   LIG A   1      -6.671  -2.539 127.499  0.00  0.00    +0.146 A 
ATOM      6  C   LIG A   1      -7.032  -2.169 126.191  0.00  0.00    +0.041 A 
ATOM      7  O   LIG A   1      -5.386  -2.170 127.970  0.00  0.00    -0.422 OA
ATOM      8  C   LIG A   1      -4.950  -2.495 129.244  0.00  0.00    +0.337 A 
ATOM      9  O   LIG A   1      -3.835  -2.183 129.658  0.00  0.00    -0.245 OA
ATOM     10  C   LIG A   1      -5.887  -3.234 130.103  0.00  0.00    +0.092 A 
ATOM     11  C   LIG A   1      -7.106  -3.589 129.685  0.00  0.00    +0.018 A 
ENDROOT
BRANCH   1  13
ATOM     12  C   LIG A   1      -9.310  -3.199 123.675  0.00  0.00    +0.277 C 
ATOM     13  O   LIG A   1      -8.640  -2.202 124.443  0.00  0.00    -0.495 OA
ENDBRANCH   1  13
BRANCH   6  14
ATOM     14  C   LIG A   1      -6.066  -1.380 125.328  0.00  0.00    +0.069 C 
BRANCH  14  15
ATOM     15  C   LIG A   1      -6.122   0.107 125.572  0.00  0.00    -0.023 C 
ATOM     16  C   LIG A   1      -6.603   1.063 124.751  0.00  0.00    -0.079 C 
ATOM     17  C   LIG A   1      -7.201   0.827 123.390  0.00  0.00    +0.038 C 
ATOM     18  C   LIG A   1      -6.594   2.514 125.164  0.00  0.00    +0.038 C 
ENDBRANCH  14  15
ENDBRANCH   6  14
TORSDOF 3
ENDMDL
