MODEL 1
REMARK VINA RESULT:      -6.4      0.000      0.000
REMARK  Name = NuBBE_2050
REMARK  3 active torsions:
REMARK  status: ('A' for Active; 'I' for Inactive)
REMARK    1  A    between atoms: C_1  and  C_2
REMARK    2  A    between atoms: C_8  and  C_10
REMARK    3  A    between atoms: C_11  and  O_14
REMARK                            x       y       z     vdW  Elec       q    Type
REMARK                         _______ _______ _______ _____ _____    ______ ____
ROOT
ATOM      1  C   LIG A   1      -8.808   4.177 118.801  0.00  0.00    +0.044 C 
ATOM      2  C   LIG A   1      -7.576   4.271 119.660  0.00  0.00    -0.046 A 
ATOM      3  C   LIG A   1      -7.505   3.792 120.987  0.00  0.00    -0.024 A 
ATOM      4  C   LIG A   1      -6.318   3.977 121.728  0.00  0.00    +0.104 A 
ATOM      5  C   LIG A   1      -6.249   3.596 123.166  0.00  0.00    +0.343 C 
ATOM      6  O   LIG A   1      -5.263   3.865 123.837  0.00  0.00    -0.245 OA
ATOM      7  O   LIG A   1      -7.343   3.002 123.702  0.00  0.00    -0.458 OA
ATOM      8  C   LIG A   1      -8.224   2.280 122.829  0.00  0.00    +0.178 C 
ATOM      9  C   LIG A   1      -8.685   3.158 121.673  0.00  0.00    +0.080 C 
ATOM     10  C   LIG A   1      -9.410   1.815 123.664  0.00  0.00    +0.052 C 
ATOM     11  C   LIG A   1      -5.204   4.587 121.131  0.00  0.00    +0.131 A 
ATOM     12  C   LIG A   1      -5.263   5.024 119.814  0.00  0.00    +0.046 A 
ATOM     13  C   LIG A   1      -6.441   4.872 119.087  0.00  0.00    +0.007 A 
ENDROOT
BRANCH  11  14
ATOM     14  O   LIG A   1      -4.017   4.807 121.779  0.00  0.00    -0.506 OA
ATOM     15  H   LIG A   1      -3.586   3.939 121.946  0.00  0.00    +0.292 HD
ENDBRANCH  11  14
TORSDOF 1
ENDMDL
MODEL 2
REMARK VINA RESULT:      -6.1      7.971      9.852
REMARK  Name = NuBBE_2050
REMARK  3 active torsions:
REMARK  status: ('A' for Active; 'I' for Inactive)
REMARK    1  A    between atoms: C_1  and  C_2
REMARK    2  A    between atoms: C_8  and  C_10
REMARK    3  A    between atoms: C_11  and  O_14
REMARK                            x       y       z     vdW  Elec       q    Type
REMARK                         _______ _______ _______ _____ _____    ______ ____
ROOT
ATOM      1  C   LIG A   1     -13.079   8.211 131.472  0.00  0.00    +0.044 C 
ATOM      2  C   LIG A   1     -12.613   7.774 130.109  0.00  0.00    -0.046 A 
ATOM      3  C   LIG A   1     -11.376   7.135 129.870  0.00  0.00    -0.024 A 
ATOM      4  C   LIG A   1     -11.006   6.813 128.546  0.00  0.00    +0.104 A 
ATOM      5  C   LIG A   1      -9.661   6.252 128.244  0.00  0.00    +0.343 C 
ATOM      6  O   LIG A   1      -9.299   6.085 127.088  0.00  0.00    -0.245 OA
ATOM      7  O   LIG A   1      -8.846   5.999 129.297  0.00  0.00    -0.458 OA
ATOM      8  C   LIG A   1      -9.443   5.733 130.575  0.00  0.00    +0.178 C 
ATOM      9  C   LIG A   1     -10.393   6.855 130.975  0.00  0.00    +0.080 C 
ATOM     10  C   LIG A   1      -8.312   5.593 131.585  0.00  0.00    +0.052 C 
ATOM     11  C   LIG A   1     -11.886   7.082 127.486  0.00  0.00    +0.131 A 
ATOM     12  C   LIG A   1     -13.118   7.676 127.727  0.00  0.00    +0.046 A 
ATOM     13  C   LIG A   1     -13.475   8.024 129.027  0.00  0.00    +0.007 A 
ENDROOT
BRANCH  11  14
ATOM     14  O   LIG A   1     -11.605   6.804 126.173  0.00  0.00    -0.506 OA
ATOM     15  H   LIG A   1     -10.737   7.208 125.948  0.00  0.00    +0.292 HD
ENDBRANCH  11  14
TORSDOF 1
ENDMDL
MODEL 3
REMARK VINA RESULT:      -6.1      4.572      7.382
REMARK  Name = NuBBE_2050
REMARK  3 active torsions:
REMARK  status: ('A' for Active; 'I' for Inactive)
REMARK    1  A    between atoms: C_1  and  C_2
REMARK    2  A    between atoms: C_8  and  C_10
REMARK    3  A    between atoms: C_11  and  O_14
REMARK                            x       y       z     vdW  Elec       q    Type
REMARK                         _______ _______ _______ _____ _____    ______ ____
ROOT
ATOM      1  C   LIG A   1      -4.981  -2.898 123.459  0.00  0.00    +0.044 C 
ATOM      2  C   LIG A   1      -6.379  -2.779 124.004  0.00  0.00    -0.046 A 
ATOM      3  C   LIG A   1      -7.080  -1.556 124.109  0.00  0.00    -0.024 A 
ATOM      4  C   LIG A   1      -8.368  -1.543 124.686  0.00  0.00    +0.104 A 
ATOM      5  C   LIG A   1      -9.084  -0.260 124.924  0.00  0.00    +0.343 C 
ATOM      6  O   LIG A   1     -10.146  -0.240 125.530  0.00  0.00    -0.245 OA
ATOM      7  O   LIG A   1      -8.478   0.875 124.499  0.00  0.00    -0.458 OA
ATOM      8  C   LIG A   1      -7.549   0.786 123.408  0.00  0.00    +0.178 C 
ATOM      9  C   LIG A   1      -6.466  -0.245 123.700  0.00  0.00    +0.080 C 
ATOM     10  C   LIG A   1      -6.944   2.170 123.212  0.00  0.00    +0.052 C 
ATOM     11  C   LIG A   1      -8.964  -2.743 125.103  0.00  0.00    +0.131 A 
ATOM     12  C   LIG A   1      -8.289  -3.949 124.964  0.00  0.00    +0.046 A 
ATOM     13  C   LIG A   1      -7.006  -3.965 124.424  0.00  0.00    +0.007 A 
ENDROOT
BRANCH  11  14
ATOM     14  O   LIG A   1     -10.208  -2.819 125.674  0.00  0.00    -0.506 OA
ATOM     15  H   LIG A   1     -10.109  -3.144 126.596  0.00  0.00    +0.292 HD
ENDBRANCH  11  14
TORSDOF 1
ENDMDL
MODEL 4
REMARK VINA RESULT:      -5.9      9.535     11.121
REMARK  Name = NuBBE_2050
REMARK  3 active torsions:
REMARK  status: ('A' for Active; 'I' for Inactive)
REMARK    1  A    between atoms: C_1  and  C_2
REMARK    2  A    between atoms: C_8  and  C_10
REMARK    3  A    between atoms: C_11  and  O_14
REMARK                            x       y       z     vdW  Elec       q    Type
REMARK                         _______ _______ _______ _____ _____    ______ ____
ROOT
ATOM      1  C   LIG A   1      -6.092   7.317 130.627  0.00  0.00    +0.044 C 
ATOM      2  C   LIG A   1      -7.276   6.682 131.304  0.00  0.00    -0.046 A 
ATOM      3  C   LIG A   1      -8.614   6.878 130.894  0.00  0.00    -0.024 A 
ATOM      4  C   LIG A   1      -9.659   6.281 131.630  0.00  0.00    +0.104 A 
ATOM      5  C   LIG A   1     -11.083   6.565 131.301  0.00  0.00    +0.343 C 
ATOM      6  O   LIG A   1     -11.985   6.143 132.012  0.00  0.00    -0.245 OA
ATOM      7  O   LIG A   1     -11.324   7.357 130.228  0.00  0.00    -0.458 OA
ATOM      8  C   LIG A   1     -10.342   7.407 129.183  0.00  0.00    +0.178 C 
ATOM      9  C   LIG A   1      -8.973   7.775 129.740  0.00  0.00    +0.080 C 
ATOM     10  C   LIG A   1     -10.811   8.443 128.168  0.00  0.00    +0.052 C 
ATOM     11  C   LIG A   1      -9.365   5.458 132.729  0.00  0.00    +0.131 A 
ATOM     12  C   LIG A   1      -8.048   5.235 133.108  0.00  0.00    +0.046 A 
ATOM     13  C   LIG A   1      -7.013   5.847 132.404  0.00  0.00    +0.007 A 
ENDROOT
BRANCH  11  14
ATOM     14  O   LIG A   1     -10.319   4.843 133.497  0.00  0.00    -0.506 OA
ATOM     15  H   LIG A   1     -11.118   5.415 133.520  0.00  0.00    +0.292 HD
ENDBRANCH  11  14
TORSDOF 1
ENDMDL
MODEL 5
REMARK VINA RESULT:      -5.9      6.996      8.959
REMARK  Name = NuBBE_2050
REMARK  3 active torsions:
REMARK  status: ('A' for Active; 'I' for Inactive)
REMARK    1  A    between atoms: C_1  and  C_2
REMARK    2  A    between atoms: C_8  and  C_10
REMARK    3  A    between atoms: C_11  and  O_14
REMARK                            x       y       z     vdW  Elec       q    Type
REMARK                         _______ _______ _______ _____ _____    ______ ____
ROOT
ATOM      1  C   LIG A   1      -9.746  -4.338 128.429  0.00  0.00    +0.044 C 
ATOM      2  C   LIG A   1      -8.519  -3.506 128.170  0.00  0.00    -0.046 A 
ATOM      3  C   LIG A   1      -8.140  -3.042 126.891  0.00  0.00    -0.024 A 
ATOM      4  C   LIG A   1      -6.939  -2.314 126.745  0.00  0.00    +0.104 A 
ATOM      5  C   LIG A   1      -6.447  -1.915 125.398  0.00  0.00    +0.343 C 
ATOM      6  O   LIG A   1      -5.352  -1.390 125.263  0.00  0.00    -0.245 OA
ATOM      7  O   LIG A   1      -7.236  -2.217 124.337  0.00  0.00    -0.458 OA
ATOM      8  C   LIG A   1      -8.648  -2.354 124.553  0.00  0.00    +0.178 C 
ATOM      9  C   LIG A   1      -8.934  -3.367 125.655  0.00  0.00    +0.080 C 
ATOM     10  C   LIG A   1      -9.269  -2.796 123.234  0.00  0.00    +0.052 C 
ATOM     11  C   LIG A   1      -6.158  -2.013 127.872  0.00  0.00    +0.131 A 
ATOM     12  C   LIG A   1      -6.551  -2.438 129.134  0.00  0.00    +0.046 A 
ATOM     13  C   LIG A   1      -7.719  -3.183 129.281  0.00  0.00    +0.007 A 
ENDROOT
BRANCH  11  14
ATOM     14  O   LIG A   1      -4.980  -1.314 127.818  0.00  0.00    -0.506 OA
ATOM     15  H   LIG A   1      -4.824  -1.036 126.888  0.00  0.00    +0.292 HD
ENDBRANCH  11  14
TORSDOF 1
ENDMDL
MODEL 6
REMARK VINA RESULT:      -5.8      4.292      7.296
REMARK  Name = NuBBE_2050
REMARK  3 active torsions:
REMARK  status: ('A' for Active; 'I' for Inactive)
REMARK    1  A    between atoms: C_1  and  C_2
REMARK    2  A    between atoms: C_8  and  C_10
REMARK    3  A    between atoms: C_11  and  O_14
REMARK                            x       y       z     vdW  Elec       q    Type
REMARK                         _______ _______ _______ _____ _____    ______ ____
ROOT
ATOM      1  C   LIG A   1      -5.606  -1.741 126.301  0.00  0.00    +0.044 C 
ATOM      2  C   LIG A   1      -6.799  -1.993 125.419  0.00  0.00    -0.046 A 
ATOM      3  C   LIG A   1      -7.398  -1.004 124.607  0.00  0.00    -0.024 A 
ATOM      4  C   LIG A   1      -8.549  -1.327 123.856  0.00  0.00    +0.104 A 
ATOM      5  C   LIG A   1      -9.277  -0.280 123.087  0.00  0.00    +0.343 C 
ATOM      6  O   LIG A   1     -10.337  -0.535 122.535  0.00  0.00    -0.245 OA
ATOM      7  O   LIG A   1      -8.745   0.967 123.083  0.00  0.00    -0.458 OA
ATOM      8  C   LIG A   1      -7.331   1.107 123.289  0.00  0.00    +0.178 C 
ATOM      9  C   LIG A   1      -6.898   0.415 124.575  0.00  0.00    +0.080 C 
ATOM     10  C   LIG A   1      -7.027   2.598 123.345  0.00  0.00    +0.052 C 
ATOM     11  C   LIG A   1      -9.060  -2.634 123.880  0.00  0.00    +0.131 A 
ATOM     12  C   LIG A   1      -8.447  -3.615 124.649  0.00  0.00    +0.046 A 
ATOM     13  C   LIG A   1      -7.330  -3.295 125.416  0.00  0.00    +0.007 A 
ENDROOT
BRANCH  11  14
ATOM     14  O   LIG A   1     -10.172  -3.030 123.184  0.00  0.00    -0.506 OA
ATOM     15  H   LIG A   1     -10.546  -3.827 123.621  0.00  0.00    +0.292 HD
ENDBRANCH  11  14
TORSDOF 1
ENDMDL
MODEL 7
REMARK VINA RESULT:      -5.7      8.557     10.215
REMARK  Name = NuBBE_2050
REMARK  3 active torsions:
REMARK  status: ('A' for Active; 'I' for Inactive)
REMARK    1  A    between atoms: C_1  and  C_2
REMARK    2  A    between atoms: C_8  and  C_10
REMARK    3  A    between atoms: C_11  and  O_14
REMARK                            x       y       z     vdW  Elec       q    Type
REMARK                         _______ _______ _______ _____ _____    ______ ____
ROOT
ATOM      1  C   LIG A   1     -10.886   7.648 126.472  0.00  0.00    +0.044 C 
ATOM      2  C   LIG A   1     -11.367   7.738 127.895  0.00  0.00    -0.046 A 
ATOM      3  C   LIG A   1     -10.780   7.031 128.969  0.00  0.00    -0.024 A 
ATOM      4  C   LIG A   1     -11.341   7.141 130.259  0.00  0.00    +0.104 A 
ATOM      5  C   LIG A   1     -10.825   6.317 131.387  0.00  0.00    +0.343 C 
ATOM      6  O   LIG A   1     -11.387   6.325 132.473  0.00  0.00    -0.245 OA
ATOM      7  O   LIG A   1      -9.756   5.523 131.135  0.00  0.00    -0.458 OA
ATOM      8  C   LIG A   1      -8.862   5.898 130.077  0.00  0.00    +0.178 C 
ATOM      9  C   LIG A   1      -9.618   6.096 128.770  0.00  0.00    +0.080 C 
ATOM     10  C   LIG A   1      -7.828   4.787 129.943  0.00  0.00    +0.052 C 
ATOM     11  C   LIG A   1     -12.441   7.984 130.479  0.00  0.00    +0.131 A 
ATOM     12  C   LIG A   1     -12.994   8.707 129.429  0.00  0.00    +0.046 A 
ATOM     13  C   LIG A   1     -12.465   8.580 128.147  0.00  0.00    +0.007 A 
ENDROOT
BRANCH  11  14
ATOM     14  O   LIG A   1     -13.047   8.145 131.697  0.00  0.00    -0.506 OA
ATOM     15  H   LIG A   1     -13.274   7.258 132.053  0.00  0.00    +0.292 HD
ENDBRANCH  11  14
TORSDOF 1
ENDMDL
MODEL 8
REMARK VINA RESULT:      -5.6      1.938      5.021
REMARK  Name = NuBBE_2050
REMARK  3 active torsions:
REMARK  status: ('A' for Active; 'I' for Inactive)
REMARK    1  A    between atoms: C_1  and  C_2
REMARK    2  A    between atoms: C_8  and  C_10
REMARK    3  A    between atoms: C_11  and  O_14
REMARK                            x       y       z     vdW  Elec       q    Type
REMARK                         _______ _______ _______ _____ _____    ______ ____
ROOT
ATOM      1  C   LIG A   1      -4.778   3.822 125.104  0.00  0.00    +0.044 C 
ATOM      2  C   LIG A   1      -6.052   3.332 124.470  0.00  0.00    -0.046 A 
ATOM      3  C   LIG A   1      -6.408   3.586 123.127  0.00  0.00    -0.024 A 
ATOM      4  C   LIG A   1      -7.652   3.129 122.641  0.00  0.00    +0.104 A 
ATOM      5  C   LIG A   1      -8.113   3.484 121.271  0.00  0.00    +0.343 C 
ATOM      6  O   LIG A   1      -9.239   3.188 120.894  0.00  0.00    -0.245 OA
ATOM      7  O   LIG A   1      -7.259   4.195 120.495  0.00  0.00    -0.458 OA
ATOM      8  C   LIG A   1      -5.851   4.086 120.753  0.00  0.00    +0.178 C 
ATOM      9  C   LIG A   1      -5.539   4.403 122.209  0.00  0.00    +0.080 C 
ATOM     10  C   LIG A   1      -5.143   5.061 119.821  0.00  0.00    +0.052 C 
ATOM     11  C   LIG A   1      -8.502   2.385 123.474  0.00  0.00    +0.131 A 
ATOM     12  C   LIG A   1      -8.134   2.104 124.784  0.00  0.00    +0.046 A 
ATOM     13  C   LIG A   1      -6.921   2.578 125.278  0.00  0.00    +0.007 A 
ENDROOT
BRANCH  11  14
ATOM     14  O   LIG A   1      -9.725   1.907 123.084  0.00  0.00    -0.506 OA
ATOM     15  H   LIG A   1      -9.925   2.256 122.187  0.00  0.00    +0.292 HD
ENDBRANCH  11  14
TORSDOF 1
ENDMDL
MODEL 9
REMARK VINA RESULT:      -5.5      3.948      5.756
REMARK  Name = NuBBE_2050
REMARK  3 active torsions:
REMARK  status: ('A' for Active; 'I' for Inactive)
REMARK    1  A    between atoms: C_1  and  C_2
REMARK    2  A    between atoms: C_8  and  C_10
REMARK    3  A    between atoms: C_11  and  O_14
REMARK                            x       y       z     vdW  Elec       q    Type
REMARK                         _______ _______ _______ _____ _____    ______ ____
ROOT
ATOM      1  C   LIG A   1      -5.367  -0.108 125.799  0.00  0.00    +0.044 C 
ATOM      2  C   LIG A   1      -6.471   0.612 125.072  0.00  0.00    -0.046 A 
ATOM      3  C   LIG A   1      -7.545  -0.042 124.428  0.00  0.00    -0.024 A 
ATOM      4  C   LIG A   1      -8.501   0.722 123.726  0.00  0.00    +0.104 A 
ATOM      5  C   LIG A   1      -9.575   0.060 122.935  0.00  0.00    +0.343 C 
ATOM      6  O   LIG A   1     -10.329   0.718 122.233  0.00  0.00    -0.245 OA
ATOM      7  O   LIG A   1      -9.633  -1.293 122.982  0.00  0.00    -0.458 OA
ATOM      8  C   LIG A   1      -9.105  -1.960 124.138  0.00  0.00    +0.178 C 
ATOM      9  C   LIG A   1      -7.663  -1.542 124.395  0.00  0.00    +0.080 C 
ATOM     10  C   LIG A   1      -9.199  -3.458 123.881  0.00  0.00    +0.052 C 
ATOM     11  C   LIG A   1      -8.410   2.123 123.713  0.00  0.00    +0.131 A 
ATOM     12  C   LIG A   1      -7.375   2.767 124.378  0.00  0.00    +0.046 A 
ATOM     13  C   LIG A   1      -6.410   2.017 125.047  0.00  0.00    +0.007 A 
ENDROOT
BRANCH  11  14
ATOM     14  O   LIG A   1      -9.294   2.937 123.055  0.00  0.00    -0.506 OA
ATOM     15  H   LIG A   1      -9.541   2.509 122.205  0.00  0.00    +0.292 HD
ENDBRANCH  11  14
TORSDOF 1
ENDMDL
