MODEL 1
REMARK VINA RESULT:      -6.7      0.000      0.000
REMARK  Name = NuBBE_1235
REMARK  7 active torsions:
REMARK  status: ('A' for Active; 'I' for Inactive)
REMARK    1  A    between atoms: C_1  and  N_2
REMARK    2  A    between atoms: C_5  and  O_6
REMARK    3  A    between atoms: O_6  and  C_7
REMARK    4  A    between atoms: C_8  and  O_9
REMARK    5  A    between atoms: O_9  and  C_10
REMARK    6  A    between atoms: C_11  and  O_12
REMARK    7  A    between atoms: O_12  and  C_13
REMARK                            x       y       z     vdW  Elec       q    Type
REMARK                         _______ _______ _______ _____ _____    ______ ____
ROOT
ATOM      1  C   LIG A   1      -5.714   3.912 125.837  0.00  0.00    +0.149 C 
ATOM      2  N   LIG A   1      -6.404   3.197 124.761  0.00  0.00    -0.343 N 
ATOM      3  C   LIG A   1      -7.224   2.089 125.071  0.00  0.00    +0.060 A 
ATOM      4  C   LIG A   1      -8.161   1.599 124.133  0.00  0.00    +0.091 A 
ATOM      5  C   LIG A   1      -8.951   0.450 124.410  0.00  0.00    +0.178 A 
ATOM      6  C   LIG A   1      -8.780  -0.220 125.649  0.00  0.00    +0.204 A 
ATOM      7  C   LIG A   1      -7.884   0.294 126.602  0.00  0.00    +0.167 A 
ATOM      8  C   LIG A   1      -7.112   1.417 126.290  0.00  0.00    +0.076 A 
ATOM      9  C   LIG A   1      -6.174   3.585 123.430  0.00  0.00    +0.053 A 
ATOM     10  C   LIG A   1      -5.048   4.315 123.017  0.00  0.00    +0.026 A 
ATOM     11  C   LIG A   1      -4.853   4.638 121.670  0.00  0.00    +0.002 A 
ATOM     12  C   LIG A   1      -5.788   4.244 120.714  0.00  0.00    +0.001 A 
ATOM     13  C   LIG A   1      -6.919   3.528 121.103  0.00  0.00    +0.014 A 
ATOM     14  C   LIG A   1      -7.096   3.190 122.449  0.00  0.00    +0.046 A 
ATOM     15  C   LIG A   1      -8.286   2.416 122.892  0.00  0.00    +0.201 A 
ATOM     16  O   LIG A   1      -9.347   2.526 122.266  0.00  0.00    -0.286 OA
ENDROOT
BRANCH   5  17
ATOM     17  O   LIG A   1      -9.797   0.016 123.409  0.00  0.00    -0.491 OA
ATOM     18  C   LIG A   1      -9.349  -1.047 122.565  0.00  0.00    +0.277 C 
ENDBRANCH   5  17
BRANCH   6  19
ATOM     19  O   LIG A   1      -9.589  -1.297 125.901  0.00  0.00    -0.488 OA
ATOM     20  C   LIG A   1      -9.074  -2.611 125.762  0.00  0.00    +0.277 C 
ENDBRANCH   6  19
BRANCH   7  21
ATOM     21  O   LIG A   1      -7.834  -0.314 127.830  0.00  0.00    -0.491 OA
ATOM     22  C   LIG A   1      -7.763   0.525 128.974  0.00  0.00    +0.277 C 
ENDBRANCH   7  21
TORSDOF 3
ENDMDL
MODEL 2
REMARK VINA RESULT:      -6.6      2.095      5.948
REMARK  Name = NuBBE_1235
REMARK  7 active torsions:
REMARK  status: ('A' for Active; 'I' for Inactive)
REMARK    1  A    between atoms: C_1  and  N_2
REMARK    2  A    between atoms: C_5  and  O_6
REMARK    3  A    between atoms: O_6  and  C_7
REMARK    4  A    between atoms: C_8  and  O_9
REMARK    5  A    between atoms: O_9  and  C_10
REMARK    6  A    between atoms: C_11  and  O_12
REMARK    7  A    between atoms: O_12  and  C_13
REMARK                            x       y       z     vdW  Elec       q    Type
REMARK                         _______ _______ _______ _____ _____    ______ ____
ROOT
ATOM      1  C   LIG A   1      -5.320  -0.634 127.244  0.00  0.00    +0.149 C 
ATOM      2  N   LIG A   1      -6.687  -0.830 126.756  0.00  0.00    -0.343 N 
ATOM      3  C   LIG A   1      -7.259   0.117 125.877  0.00  0.00    +0.060 A 
ATOM      4  C   LIG A   1      -8.412  -0.201 125.125  0.00  0.00    +0.091 A 
ATOM      5  C   LIG A   1      -9.031   0.761 124.281  0.00  0.00    +0.178 A 
ATOM      6  C   LIG A   1      -8.481   2.067 124.208  0.00  0.00    +0.204 A 
ATOM      7  C   LIG A   1      -7.306   2.370 124.917  0.00  0.00    +0.167 A 
ATOM      8  C   LIG A   1      -6.733   1.404 125.750  0.00  0.00    +0.076 A 
ATOM      9  C   LIG A   1      -7.430  -1.922 127.236  0.00  0.00    +0.053 A 
ATOM     10  C   LIG A   1      -7.133  -2.600 128.430  0.00  0.00    +0.026 A 
ATOM     11  C   LIG A   1      -7.934  -3.655 128.877  0.00  0.00    +0.002 A 
ATOM     12  C   LIG A   1      -9.041  -4.058 128.132  0.00  0.00    +0.001 A 
ATOM     13  C   LIG A   1      -9.349  -3.408 126.938  0.00  0.00    +0.014 A 
ATOM     14  C   LIG A   1      -8.555  -2.338 126.508  0.00  0.00    +0.046 A 
ATOM     15  C   LIG A   1      -8.865  -1.617 125.245  0.00  0.00    +0.201 A 
ATOM     16  O   LIG A   1      -9.420  -2.224 124.321  0.00  0.00    -0.286 OA
ENDROOT
BRANCH   5  17
ATOM     17  O   LIG A   1     -10.186   0.374 123.631  0.00  0.00    -0.491 OA
ATOM     18  C   LIG A   1     -10.098   0.046 122.242  0.00  0.00    +0.277 C 
ENDBRANCH   5  17
BRANCH   6  19
ATOM     19  O   LIG A   1      -9.076   2.956 123.350  0.00  0.00    -0.488 OA
ATOM     20  C   LIG A   1      -8.548   3.135 122.046  0.00  0.00    +0.277 C 
ENDBRANCH   6  19
BRANCH   7  21
ATOM     21  O   LIG A   1      -6.743   3.605 124.729  0.00  0.00    -0.491 OA
ATOM     22  C   LIG A   1      -5.356   3.742 125.003  0.00  0.00    +0.277 C 
ENDBRANCH   7  21
TORSDOF 3
ENDMDL
MODEL 3
REMARK VINA RESULT:      -6.1      2.236      6.178
REMARK  Name = NuBBE_1235
REMARK  7 active torsions:
REMARK  status: ('A' for Active; 'I' for Inactive)
REMARK    1  A    between atoms: C_1  and  N_2
REMARK    2  A    between atoms: C_5  and  O_6
REMARK    3  A    between atoms: O_6  and  C_7
REMARK    4  A    between atoms: C_8  and  O_9
REMARK    5  A    between atoms: O_9  and  C_10
REMARK    6  A    between atoms: C_11  and  O_12
REMARK    7  A    between atoms: O_12  and  C_13
REMARK                            x       y       z     vdW  Elec       q    Type
REMARK                         _______ _______ _______ _____ _____    ______ ____
ROOT
ATOM      1  C   LIG A   1      -9.585   0.993 122.708  0.00  0.00    +0.149 C 
ATOM      2  N   LIG A   1      -8.610   0.434 123.646  0.00  0.00    -0.343 N 
ATOM      3  C   LIG A   1      -7.593   1.261 124.174  0.00  0.00    +0.060 A 
ATOM      4  C   LIG A   1      -6.864   0.867 125.319  0.00  0.00    +0.091 A 
ATOM      5  C   LIG A   1      -5.800   1.662 125.826  0.00  0.00    +0.178 A 
ATOM      6  C   LIG A   1      -5.461   2.865 125.156  0.00  0.00    +0.204 A 
ATOM      7  C   LIG A   1      -6.216   3.283 124.046  0.00  0.00    +0.167 A 
ATOM      8  C   LIG A   1      -7.246   2.469 123.565  0.00  0.00    +0.076 A 
ATOM      9  C   LIG A   1      -8.663  -0.938 123.945  0.00  0.00    +0.053 A 
ATOM     10  C   LIG A   1      -9.296  -1.888 123.126  0.00  0.00    +0.026 A 
ATOM     11  C   LIG A   1      -9.281  -3.247 123.455  0.00  0.00    +0.002 A 
ATOM     12  C   LIG A   1      -8.641  -3.679 124.614  0.00  0.00    +0.001 A 
ATOM     13  C   LIG A   1      -8.015  -2.753 125.449  0.00  0.00    +0.014 A 
ATOM     14  C   LIG A   1      -8.015  -1.397 125.101  0.00  0.00    +0.046 A 
ATOM     15  C   LIG A   1      -7.346  -0.388 125.964  0.00  0.00    +0.201 A 
ATOM     16  O   LIG A   1      -7.271  -0.587 127.182  0.00  0.00    -0.286 OA
ENDROOT
BRANCH   5  17
ATOM     17  O   LIG A   1      -5.111   1.165 126.914  0.00  0.00    -0.491 OA
ATOM     18  C   LIG A   1      -5.382   1.733 128.197  0.00  0.00    +0.277 C 
ENDBRANCH   5  17
BRANCH   6  19
ATOM     19  O   LIG A   1      -4.460   3.629 125.697  0.00  0.00    -0.488 OA
ATOM     20  C   LIG A   1      -4.788   4.731 126.528  0.00  0.00    +0.277 C 
ENDBRANCH   6  19
BRANCH   7  21
ATOM     21  O   LIG A   1      -5.931   4.507 123.499  0.00  0.00    -0.491 OA
ATOM     22  C   LIG A   1      -5.131   4.531 122.326  0.00  0.00    +0.277 C 
ENDBRANCH   7  21
TORSDOF 3
ENDMDL
MODEL 4
REMARK VINA RESULT:      -6.0      1.923      4.081
REMARK  Name = NuBBE_1235
REMARK  7 active torsions:
REMARK  status: ('A' for Active; 'I' for Inactive)
REMARK    1  A    between atoms: C_1  and  N_2
REMARK    2  A    between atoms: C_5  and  O_6
REMARK    3  A    between atoms: O_6  and  C_7
REMARK    4  A    between atoms: C_8  and  O_9
REMARK    5  A    between atoms: O_9  and  C_10
REMARK    6  A    between atoms: C_11  and  O_12
REMARK    7  A    between atoms: O_12  and  C_13
REMARK                            x       y       z     vdW  Elec       q    Type
REMARK                         _______ _______ _______ _____ _____    ______ ____
ROOT
ATOM      1  C   LIG A   1      -6.318   0.541 128.832  0.00  0.00    +0.149 C 
ATOM      2  N   LIG A   1      -6.374   1.427 127.668  0.00  0.00    -0.343 N 
ATOM      3  C   LIG A   1      -7.397   1.258 126.707  0.00  0.00    +0.060 A 
ATOM      4  C   LIG A   1      -7.691   2.281 125.778  0.00  0.00    +0.091 A 
ATOM      5  C   LIG A   1      -8.677   2.101 124.770  0.00  0.00    +0.178 A 
ATOM      6  C   LIG A   1      -9.366   0.863 124.695  0.00  0.00    +0.204 A 
ATOM      7  C   LIG A   1      -9.109  -0.137 125.649  0.00  0.00    +0.167 A 
ATOM      8  C   LIG A   1      -8.121   0.068 126.616  0.00  0.00    +0.076 A 
ATOM      9  C   LIG A   1      -5.359   2.383 127.492  0.00  0.00    +0.053 A 
ATOM     10  C   LIG A   1      -4.096   2.297 128.100  0.00  0.00    +0.026 A 
ATOM     11  C   LIG A   1      -3.111   3.259 127.855  0.00  0.00    +0.002 A 
ATOM     12  C   LIG A   1      -3.377   4.331 127.005  0.00  0.00    +0.001 A 
ATOM     13  C   LIG A   1      -4.628   4.444 126.399  0.00  0.00    +0.014 A 
ATOM     14  C   LIG A   1      -5.601   3.465 126.631  0.00  0.00    +0.046 A 
ATOM     15  C   LIG A   1      -6.939   3.551 125.990  0.00  0.00    +0.201 A 
ATOM     16  O   LIG A   1      -7.410   4.662 125.718  0.00  0.00    -0.286 OA
ENDROOT
BRANCH   5  17
ATOM     17  O   LIG A   1      -8.853   3.137 123.874  0.00  0.00    -0.491 OA
ATOM     18  C   LIG A   1      -8.137   3.086 122.639  0.00  0.00    +0.277 C 
ENDBRANCH   5  17
BRANCH   6  19
ATOM     19  O   LIG A   1     -10.342   0.741 123.740  0.00  0.00    -0.488 OA
ATOM     20  C   LIG A   1     -10.052   0.077 122.520  0.00  0.00    +0.277 C 
ENDBRANCH   6  19
BRANCH   7  21
ATOM     21  O   LIG A   1      -9.878  -1.271 125.612  0.00  0.00    -0.491 OA
ATOM     22  C   LIG A   1      -9.211  -2.509 125.413  0.00  0.00    +0.277 C 
ENDBRANCH   7  21
TORSDOF 3
ENDMDL
MODEL 5
REMARK VINA RESULT:      -6.0      3.712      5.511
REMARK  Name = NuBBE_1235
REMARK  7 active torsions:
REMARK  status: ('A' for Active; 'I' for Inactive)
REMARK    1  A    between atoms: C_1  and  N_2
REMARK    2  A    between atoms: C_5  and  O_6
REMARK    3  A    between atoms: O_6  and  C_7
REMARK    4  A    between atoms: C_8  and  O_9
REMARK    5  A    between atoms: O_9  and  C_10
REMARK    6  A    between atoms: C_11  and  O_12
REMARK    7  A    between atoms: O_12  and  C_13
REMARK                            x       y       z     vdW  Elec       q    Type
REMARK                         _______ _______ _______ _____ _____    ______ ____
ROOT
ATOM      1  C   LIG A   1      -9.114   0.855 124.313  0.00  0.00    +0.149 C 
ATOM      2  N   LIG A   1      -8.230   0.062 125.168  0.00  0.00    -0.343 N 
ATOM      3  C   LIG A   1      -8.188   0.315 126.558  0.00  0.00    +0.060 A 
ATOM      4  C   LIG A   1      -7.630  -0.630 127.448  0.00  0.00    +0.091 A 
ATOM      5  C   LIG A   1      -7.529  -0.363 128.840  0.00  0.00    +0.178 A 
ATOM      6  C   LIG A   1      -7.988   0.885 129.336  0.00  0.00    +0.204 A 
ATOM      7  C   LIG A   1      -8.587   1.806 128.460  0.00  0.00    +0.167 A 
ATOM      8  C   LIG A   1      -8.656   1.517 127.094  0.00  0.00    +0.076 A 
ATOM      9  C   LIG A   1      -7.384  -0.890 124.574  0.00  0.00    +0.053 A 
ATOM     10  C   LIG A   1      -7.015  -0.864 123.219  0.00  0.00    +0.026 A 
ATOM     11  C   LIG A   1      -6.136  -1.815 122.693  0.00  0.00    +0.002 A 
ATOM     12  C   LIG A   1      -5.616  -2.816 123.513  0.00  0.00    +0.001 A 
ATOM     13  C   LIG A   1      -5.976  -2.868 124.859  0.00  0.00    +0.014 A 
ATOM     14  C   LIG A   1      -6.840  -1.899 125.383  0.00  0.00    +0.046 A 
ATOM     15  C   LIG A   1      -7.231  -1.921 126.817  0.00  0.00    +0.201 A 
ATOM     16  O   LIG A   1      -7.280  -3.002 127.415  0.00  0.00    -0.286 OA
ENDROOT
BRANCH   5  17
ATOM     17  O   LIG A   1      -6.918  -1.324 129.620  0.00  0.00    -0.491 OA
ATOM     18  C   LIG A   1      -5.530  -1.163 129.921  0.00  0.00    +0.277 C 
ENDBRANCH   5  17
BRANCH   6  19
ATOM     19  O   LIG A   1      -7.916   1.091 130.690  0.00  0.00    -0.488 OA
ATOM     20  C   LIG A   1      -8.954   0.611 131.529  0.00  0.00    +0.277 C 
ENDBRANCH   6  19
BRANCH   7  21
ATOM     21  O   LIG A   1      -9.122   2.948 128.997  0.00  0.00    -0.491 OA
ATOM     22  C   LIG A   1      -8.316   4.118 128.985  0.00  0.00    +0.277 C 
ENDBRANCH   7  21
TORSDOF 3
ENDMDL
MODEL 6
REMARK VINA RESULT:      -6.0      4.474      6.536
REMARK  Name = NuBBE_1235
REMARK  7 active torsions:
REMARK  status: ('A' for Active; 'I' for Inactive)
REMARK    1  A    between atoms: C_1  and  N_2
REMARK    2  A    between atoms: C_5  and  O_6
REMARK    3  A    between atoms: O_6  and  C_7
REMARK    4  A    between atoms: C_8  and  O_9
REMARK    5  A    between atoms: O_9  and  C_10
REMARK    6  A    between atoms: C_11  and  O_12
REMARK    7  A    between atoms: O_12  and  C_13
REMARK                            x       y       z     vdW  Elec       q    Type
REMARK                         _______ _______ _______ _____ _____    ______ ____
ROOT
ATOM      1  C   LIG A   1      -8.633   1.020 126.526  0.00  0.00    +0.149 C 
ATOM      2  N   LIG A   1      -8.265  -0.349 126.893  0.00  0.00    -0.343 N 
ATOM      3  C   LIG A   1      -7.774  -0.617 128.191  0.00  0.00    +0.060 A 
ATOM      4  C   LIG A   1      -7.738  -1.939 128.690  0.00  0.00    +0.091 A 
ATOM      5  C   LIG A   1      -7.193  -2.229 129.970  0.00  0.00    +0.178 A 
ATOM      6  C   LIG A   1      -6.665  -1.168 130.750  0.00  0.00    +0.204 A 
ATOM      7  C   LIG A   1      -6.743   0.153 130.275  0.00  0.00    +0.167 A 
ATOM      8  C   LIG A   1      -7.272   0.400 129.005  0.00  0.00    +0.076 A 
ATOM      9  C   LIG A   1      -8.338  -1.358 125.918  0.00  0.00    +0.053 A 
ATOM     10  C   LIG A   1      -8.340  -1.105 124.536  0.00  0.00    +0.026 A 
ATOM     11  C   LIG A   1      -8.373  -2.153 123.611  0.00  0.00    +0.002 A 
ATOM     12  C   LIG A   1      -8.416  -3.474 124.054  0.00  0.00    +0.001 A 
ATOM     13  C   LIG A   1      -8.427  -3.750 125.420  0.00  0.00    +0.014 A 
ATOM     14  C   LIG A   1      -8.371  -2.696 126.339  0.00  0.00    +0.046 A 
ATOM     15  C   LIG A   1      -8.368  -2.958 127.803  0.00  0.00    +0.201 A 
ATOM     16  O   LIG A   1      -8.939  -3.965 128.239  0.00  0.00    -0.286 OA
ENDROOT
BRANCH   5  17
ATOM     17  O   LIG A   1      -7.151  -3.557 130.347  0.00  0.00    -0.491 OA
ATOM     18  C   LIG A   1      -5.907  -4.250 130.230  0.00  0.00    +0.277 C 
ENDBRANCH   5  17
BRANCH   6  19
ATOM     19  O   LIG A   1      -6.188  -1.478 131.997  0.00  0.00    -0.488 OA
ATOM     20  C   LIG A   1      -7.087  -1.562 133.092  0.00  0.00    +0.277 C 
ENDBRANCH   6  19
BRANCH   7  21
ATOM     21  O   LIG A   1      -6.329   1.160 131.107  0.00  0.00    -0.491 OA
ATOM     22  C   LIG A   1      -7.331   1.945 131.736  0.00  0.00    +0.277 C 
ENDBRANCH   7  21
TORSDOF 3
ENDMDL
MODEL 7
REMARK VINA RESULT:      -5.8      2.773      6.219
REMARK  Name = NuBBE_1235
REMARK  7 active torsions:
REMARK  status: ('A' for Active; 'I' for Inactive)
REMARK    1  A    between atoms: C_1  and  N_2
REMARK    2  A    between atoms: C_5  and  O_6
REMARK    3  A    between atoms: O_6  and  C_7
REMARK    4  A    between atoms: C_8  and  O_9
REMARK    5  A    between atoms: O_9  and  C_10
REMARK    6  A    between atoms: C_11  and  O_12
REMARK    7  A    between atoms: O_12  and  C_13
REMARK                            x       y       z     vdW  Elec       q    Type
REMARK                         _______ _______ _______ _____ _____    ______ ____
ROOT
ATOM      1  C   LIG A   1      -6.541  -0.143 130.230  0.00  0.00    +0.149 C 
ATOM      2  N   LIG A   1      -7.168  -0.190 128.908  0.00  0.00    -0.343 N 
ATOM      3  C   LIG A   1      -7.287   0.995 128.148  0.00  0.00    +0.060 A 
ATOM      4  C   LIG A   1      -7.559   0.940 126.762  0.00  0.00    +0.091 A 
ATOM      5  C   LIG A   1      -7.738   2.125 125.997  0.00  0.00    +0.178 A 
ATOM      6  C   LIG A   1      -7.653   3.383 126.648  0.00  0.00    +0.204 A 
ATOM      7  C   LIG A   1      -7.335   3.441 128.016  0.00  0.00    +0.167 A 
ATOM      8  C   LIG A   1      -7.180   2.255 128.740  0.00  0.00    +0.076 A 
ATOM      9  C   LIG A   1      -7.708  -1.405 128.454  0.00  0.00    +0.053 A 
ATOM     10  C   LIG A   1      -8.062  -2.465 129.306  0.00  0.00    +0.026 A 
ATOM     11  C   LIG A   1      -8.635  -3.636 128.799  0.00  0.00    +0.002 A 
ATOM     12  C   LIG A   1      -8.854  -3.771 127.429  0.00  0.00    +0.001 A 
ATOM     13  C   LIG A   1      -8.500  -2.737 126.563  0.00  0.00    +0.014 A 
ATOM     14  C   LIG A   1      -7.948  -1.559 127.080  0.00  0.00    +0.046 A 
ATOM     15  C   LIG A   1      -7.573  -0.435 126.184  0.00  0.00    +0.201 A 
ATOM     16  O   LIG A   1      -7.223  -0.677 125.022  0.00  0.00    -0.286 OA
ENDROOT
BRANCH   5  17
ATOM     17  O   LIG A   1      -8.056   1.967 124.663  0.00  0.00    -0.491 OA
ATOM     18  C   LIG A   1      -9.432   2.047 124.286  0.00  0.00    +0.277 C 
ENDBRANCH   5  17
BRANCH   6  19
ATOM     19  O   LIG A   1      -7.786   4.505 125.872  0.00  0.00    -0.488 OA
ATOM     20  C   LIG A   1      -6.655   5.028 125.193  0.00  0.00    +0.277 C 
ENDBRANCH   6  19
BRANCH   7  21
ATOM     21  O   LIG A   1      -7.147   4.676 128.579  0.00  0.00    -0.491 OA
ATOM     22  C   LIG A   1      -7.725   4.908 129.856  0.00  0.00    +0.277 C 
ENDBRANCH   7  21
TORSDOF 3
ENDMDL
MODEL 8
REMARK VINA RESULT:      -5.7      1.787      1.953
REMARK  Name = NuBBE_1235
REMARK  7 active torsions:
REMARK  status: ('A' for Active; 'I' for Inactive)
REMARK    1  A    between atoms: C_1  and  N_2
REMARK    2  A    between atoms: C_5  and  O_6
REMARK    3  A    between atoms: O_6  and  C_7
REMARK    4  A    between atoms: C_8  and  O_9
REMARK    5  A    between atoms: O_9  and  C_10
REMARK    6  A    between atoms: C_11  and  O_12
REMARK    7  A    between atoms: O_12  and  C_13
REMARK                            x       y       z     vdW  Elec       q    Type
REMARK                         _______ _______ _______ _____ _____    ______ ____
ROOT
ATOM      1  C   LIG A   1      -5.840   3.259 127.037  0.00  0.00    +0.149 C 
ATOM      2  N   LIG A   1      -6.192   2.434 125.880  0.00  0.00    -0.343 N 
ATOM      3  C   LIG A   1      -6.563   1.084 126.070  0.00  0.00    +0.060 A 
ATOM      4  C   LIG A   1      -7.231   0.369 125.050  0.00  0.00    +0.091 A 
ATOM      5  C   LIG A   1      -7.558  -1.006 125.206  0.00  0.00    +0.178 A 
ATOM      6  C   LIG A   1      -7.192  -1.668 126.406  0.00  0.00    +0.204 A 
ATOM      7  C   LIG A   1      -6.571  -0.946 127.440  0.00  0.00    +0.167 A 
ATOM      8  C   LIG A   1      -6.250   0.401 127.247  0.00  0.00    +0.076 A 
ATOM      9  C   LIG A   1      -6.081   2.987 124.592  0.00  0.00    +0.053 A 
ATOM     10  C   LIG A   1      -5.285   4.104 124.292  0.00  0.00    +0.026 A 
ATOM     11  C   LIG A   1      -5.182   4.584 122.982  0.00  0.00    +0.002 A 
ATOM     12  C   LIG A   1      -5.882   3.960 121.952  0.00  0.00    +0.001 A 
ATOM     13  C   LIG A   1      -6.688   2.856 122.228  0.00  0.00    +0.014 A 
ATOM     14  C   LIG A   1      -6.768   2.367 123.537  0.00  0.00    +0.046 A 
ATOM     15  C   LIG A   1      -7.608   1.185 123.860  0.00  0.00    +0.201 A 
ATOM     16  O   LIG A   1      -8.619   0.956 123.184  0.00  0.00    -0.286 OA
ENDROOT
BRANCH   5  17
ATOM     17  O   LIG A   1      -8.160  -1.632 124.133  0.00  0.00    -0.491 OA
ATOM     18  C   LIG A   1      -7.325  -2.332 123.208  0.00  0.00    +0.277 C 
ENDBRANCH   5  17
BRANCH   6  19
ATOM     19  O   LIG A   1      -7.562  -2.981 126.541  0.00  0.00    -0.488 OA
ATOM     20  C   LIG A   1      -8.842  -3.300 127.064  0.00  0.00    +0.277 C 
ENDBRANCH   6  19
BRANCH   7  21
ATOM     21  O   LIG A   1      -6.339  -1.593 128.626  0.00  0.00    -0.491 OA
ATOM     22  C   LIG A   1      -5.031  -2.100 128.852  0.00  0.00    +0.277 C 
ENDBRANCH   7  21
TORSDOF 3
ENDMDL
MODEL 9
REMARK VINA RESULT:      -5.7      2.794      5.564
REMARK  Name = NuBBE_1235
REMARK  7 active torsions:
REMARK  status: ('A' for Active; 'I' for Inactive)
REMARK    1  A    between atoms: C_1  and  N_2
REMARK    2  A    between atoms: C_5  and  O_6
REMARK    3  A    between atoms: O_6  and  C_7
REMARK    4  A    between atoms: C_8  and  O_9
REMARK    5  A    between atoms: O_9  and  C_10
REMARK    6  A    between atoms: C_11  and  O_12
REMARK    7  A    between atoms: O_12  and  C_13
REMARK                            x       y       z     vdW  Elec       q    Type
REMARK                         _______ _______ _______ _____ _____    ______ ____
ROOT
ATOM      1  C   LIG A   1      -5.917   2.564 126.012  0.00  0.00    +0.149 C 
ATOM      2  N   LIG A   1      -6.111   1.314 126.751  0.00  0.00    -0.343 N 
ATOM      3  C   LIG A   1      -7.011   0.343 126.258  0.00  0.00    +0.060 A 
ATOM      4  C   LIG A   1      -6.969  -0.987 126.734  0.00  0.00    +0.091 A 
ATOM      5  C   LIG A   1      -7.906  -1.960 126.290  0.00  0.00    +0.178 A 
ATOM      6  C   LIG A   1      -8.907  -1.576 125.359  0.00  0.00    +0.204 A 
ATOM      7  C   LIG A   1      -8.919  -0.267 124.848  0.00  0.00    +0.167 A 
ATOM      8  C   LIG A   1      -7.992   0.668 125.319  0.00  0.00    +0.076 A 
ATOM      9  C   LIG A   1      -5.450   1.140 127.979  0.00  0.00    +0.053 A 
ATOM     10  C   LIG A   1      -4.951   2.203 128.750  0.00  0.00    +0.026 A 
ATOM     11  C   LIG A   1      -4.338   1.970 129.986  0.00  0.00    +0.002 A 
ATOM     12  C   LIG A   1      -4.204   0.669 130.466  0.00  0.00    +0.001 A 
ATOM     13  C   LIG A   1      -4.681  -0.403 129.712  0.00  0.00    +0.014 A 
ATOM     14  C   LIG A   1      -5.314  -0.160 128.487  0.00  0.00    +0.046 A 
ATOM     15  C   LIG A   1      -5.844  -1.281 127.667  0.00  0.00    +0.201 A 
ATOM     16  O   LIG A   1      -5.299  -2.390 127.732  0.00  0.00    -0.286 OA
ENDROOT
BRANCH   5  17
ATOM     17  O   LIG A   1      -7.821  -3.216 126.855  0.00  0.00    -0.491 OA
ATOM     18  C   LIG A   1      -8.641  -3.501 127.989  0.00  0.00    +0.277 C 
ENDBRANCH   5  17
BRANCH   6  19
ATOM     19  O   LIG A   1      -9.765  -2.550 124.918  0.00  0.00    -0.488 OA
ATOM     20  C   LIG A   1      -9.419  -3.332 123.786  0.00  0.00    +0.277 C 
ENDBRANCH   6  19
BRANCH   7  21
ATOM     21  O   LIG A   1      -9.828   0.030 123.866  0.00  0.00    -0.491 OA
ATOM     22  C   LIG A   1     -10.255   1.380 123.755  0.00  0.00    +0.277 C 
ENDBRANCH   7  21
TORSDOF 3
ENDMDL
