MODEL 1
REMARK VINA RESULT:      -6.4      0.000      0.000
REMARK  Name = NuBBE_671
REMARK  3 active torsions:
REMARK  status: ('A' for Active; 'I' for Inactive)
REMARK    1  A    between atoms: O_1  and  C_2
REMARK    2  A    between atoms: C_5  and  O_6
REMARK    3  A    between atoms: C_7  and  C_8
REMARK                            x       y       z     vdW  Elec       q    Type
REMARK                         _______ _______ _______ _____ _____    ______ ____
ROOT
ATOM      1  C   LIG A   1     -11.703   8.396 128.519  0.00  0.00    +0.131 A 
ATOM      2  C   LIG A   1     -11.271   7.291 129.266  0.00  0.00    +0.106 A 
ATOM      3  C   LIG A   1     -11.779   7.087 130.559  0.00  0.00    +0.002 A 
ATOM      4  C   LIG A   1     -11.307   5.919 131.377  0.00  0.00    +0.186 C 
ATOM      5  C   LIG A   1     -10.797   4.812 130.446  0.00  0.00    +0.206 C 
ATOM      6  C   LIG A   1     -10.089   3.695 131.204  0.00  0.00    +0.055 C 
ATOM      7  O   LIG A   1      -9.847   5.345 129.497  0.00  0.00    -0.455 OA
ATOM      8  C   LIG A   1     -10.227   6.390 128.718  0.00  0.00    +0.343 C 
ATOM      9  O   LIG A   1      -9.697   6.629 127.642  0.00  0.00    -0.245 OA
ATOM     10  C   LIG A   1     -12.694   8.005 131.096  0.00  0.00    +0.007 A 
ATOM     11  C   LIG A   1     -13.115   9.104 130.344  0.00  0.00    +0.004 A 
ATOM     12  C   LIG A   1     -12.625   9.295 129.054  0.00  0.00    +0.046 A 
ENDROOT
BRANCH   1  13
ATOM     13  O   LIG A   1     -11.257   8.677 127.255  0.00  0.00    -0.506 OA
ATOM     14  H   LIG A   1     -11.777   9.431 126.896  0.00  0.00    +0.292 HD
ENDBRANCH   1  13
BRANCH   4  15
ATOM     15  O   LIG A   1     -10.295   6.384 132.264  0.00  0.00    -0.384 OA
ATOM     16  H   LIG A   1     -10.688   6.457 133.152  0.00  0.00    +0.210 HD
ENDBRANCH   4  15
TORSDOF 2
ENDMDL
MODEL 2
REMARK VINA RESULT:      -6.2      8.277      9.943
REMARK  Name = NuBBE_671
REMARK  3 active torsions:
REMARK  status: ('A' for Active; 'I' for Inactive)
REMARK    1  A    between atoms: O_1  and  C_2
REMARK    2  A    between atoms: C_5  and  O_6
REMARK    3  A    between atoms: C_7  and  C_8
REMARK                            x       y       z     vdW  Elec       q    Type
REMARK                         _______ _______ _______ _____ _____    ______ ____
ROOT
ATOM      1  C   LIG A   1      -6.440   4.562 119.863  0.00  0.00    +0.131 A 
ATOM      2  C   LIG A   1      -6.537   4.051 121.166  0.00  0.00    +0.106 A 
ATOM      3  C   LIG A   1      -7.756   3.513 121.610  0.00  0.00    +0.002 A 
ATOM      4  C   LIG A   1      -7.879   2.983 123.010  0.00  0.00    +0.186 C 
ATOM      5  C   LIG A   1      -6.494   2.572 123.527  0.00  0.00    +0.206 C 
ATOM      6  C   LIG A   1      -6.503   2.245 125.016  0.00  0.00    +0.055 C 
ATOM      7  O   LIG A   1      -5.544   3.643 123.337  0.00  0.00    -0.455 OA
ATOM      8  C   LIG A   1      -5.378   4.149 122.088  0.00  0.00    +0.343 C 
ATOM      9  O   LIG A   1      -4.353   4.721 121.745  0.00  0.00    -0.245 OA
ATOM     10  C   LIG A   1      -8.867   3.517 120.753  0.00  0.00    +0.007 A 
ATOM     11  C   LIG A   1      -8.760   4.032 119.460  0.00  0.00    +0.004 A 
ATOM     12  C   LIG A   1      -7.544   4.547 119.013  0.00  0.00    +0.046 A 
ENDROOT
BRANCH   1  13
ATOM     13  O   LIG A   1      -5.295   5.109 119.349  0.00  0.00    -0.506 OA
ATOM     14  H   LIG A   1      -4.526   4.573 119.647  0.00  0.00    +0.292 HD
ENDBRANCH   1  13
BRANCH   4  15
ATOM     15  O   LIG A   1      -8.474   3.997 123.814  0.00  0.00    -0.384 OA
ATOM     16  H   LIG A   1      -9.329   3.658 124.134  0.00  0.00    +0.210 HD
ENDBRANCH   4  15
TORSDOF 2
ENDMDL
MODEL 3
REMARK VINA RESULT:      -5.9      1.553      3.869
REMARK  Name = NuBBE_671
REMARK  3 active torsions:
REMARK  status: ('A' for Active; 'I' for Inactive)
REMARK    1  A    between atoms: O_1  and  C_2
REMARK    2  A    between atoms: C_5  and  O_6
REMARK    3  A    between atoms: C_7  and  C_8
REMARK                            x       y       z     vdW  Elec       q    Type
REMARK                         _______ _______ _______ _____ _____    ______ ____
ROOT
ATOM      1  C   LIG A   1      -9.384   5.701 129.231  0.00  0.00    +0.131 A 
ATOM      2  C   LIG A   1     -10.440   6.620 129.160  0.00  0.00    +0.106 A 
ATOM      3  C   LIG A   1     -11.105   7.004 130.335  0.00  0.00    +0.002 A 
ATOM      4  C   LIG A   1     -12.253   7.972 130.269  0.00  0.00    +0.186 C 
ATOM      5  C   LIG A   1     -12.125   8.834 129.006  0.00  0.00    +0.206 C 
ATOM      6  C   LIG A   1     -13.370   9.675 128.749  0.00  0.00    +0.055 C 
ATOM      7  O   LIG A   1     -11.930   8.002 127.841  0.00  0.00    -0.455 OA
ATOM      8  C   LIG A   1     -10.897   7.122 127.839  0.00  0.00    +0.343 C 
ATOM      9  O   LIG A   1     -10.398   6.702 126.805  0.00  0.00    -0.245 OA
ATOM     10  C   LIG A   1     -10.720   6.444 131.563  0.00  0.00    +0.007 A 
ATOM     11  C   LIG A   1      -9.669   5.528 131.621  0.00  0.00    +0.004 A 
ATOM     12  C   LIG A   1      -8.997   5.161 130.457  0.00  0.00    +0.046 A 
ENDROOT
BRANCH   1  13
ATOM     13  O   LIG A   1      -8.684   5.266 128.138  0.00  0.00    -0.506 OA
ATOM     14  H   LIG A   1      -8.731   4.284 128.102  0.00  0.00    +0.292 HD
ENDBRANCH   1  13
BRANCH   4  15
ATOM     15  O   LIG A   1     -13.462   7.220 130.287  0.00  0.00    -0.384 OA
ATOM     16  H   LIG A   1     -13.698   7.058 131.218  0.00  0.00    +0.210 HD
ENDBRANCH   4  15
TORSDOF 2
ENDMDL
MODEL 4
REMARK VINA RESULT:      -5.9      1.310      1.741
REMARK  Name = NuBBE_671
REMARK  3 active torsions:
REMARK  status: ('A' for Active; 'I' for Inactive)
REMARK    1  A    between atoms: O_1  and  C_2
REMARK    2  A    between atoms: C_5  and  O_6
REMARK    3  A    between atoms: C_7  and  C_8
REMARK                            x       y       z     vdW  Elec       q    Type
REMARK                         _______ _______ _______ _____ _____    ______ ____
ROOT
ATOM      1  C   LIG A   1     -10.742   6.887 128.807  0.00  0.00    +0.131 A 
ATOM      2  C   LIG A   1     -10.311   6.196 129.948  0.00  0.00    +0.106 A 
ATOM      3  C   LIG A   1     -11.028   6.326 131.149  0.00  0.00    +0.002 A 
ATOM      4  C   LIG A   1     -10.565   5.607 132.384  0.00  0.00    +0.186 C 
ATOM      5  C   LIG A   1      -9.732   4.382 131.984  0.00  0.00    +0.206 C 
ATOM      6  C   LIG A   1      -9.036   3.738 133.176  0.00  0.00    +0.055 C 
ATOM      7  O   LIG A   1      -8.701   4.755 131.043  0.00  0.00    -0.455 OA
ATOM      8  C   LIG A   1      -9.064   5.392 129.901  0.00  0.00    +0.343 C 
ATOM      9  O   LIG A   1      -8.374   5.369 128.892  0.00  0.00    -0.245 OA
ATOM     10  C   LIG A   1     -12.150   7.167 131.197  0.00  0.00    +0.007 A 
ATOM     11  C   LIG A   1     -12.567   7.854 130.055  0.00  0.00    +0.004 A 
ATOM     12  C   LIG A   1     -11.867   7.708 128.859  0.00  0.00    +0.046 A 
ENDROOT
BRANCH   1  13
ATOM     13  O   LIG A   1     -10.102   6.824 127.598  0.00  0.00    -0.506 OA
ATOM     14  H   LIG A   1     -10.724   7.116 126.894  0.00  0.00    +0.292 HD
ENDBRANCH   1  13
BRANCH   4  15
ATOM     15  O   LIG A   1      -9.821   6.528 133.175  0.00  0.00    -0.384 OA
ATOM     16  H   LIG A   1      -9.571   6.076 134.001  0.00  0.00    +0.210 HD
ENDBRANCH   4  15
TORSDOF 2
ENDMDL
MODEL 5
REMARK VINA RESULT:      -5.5      2.191      4.156
REMARK  Name = NuBBE_671
REMARK  3 active torsions:
REMARK  status: ('A' for Active; 'I' for Inactive)
REMARK    1  A    between atoms: O_1  and  C_2
REMARK    2  A    between atoms: C_5  and  O_6
REMARK    3  A    between atoms: C_7  and  C_8
REMARK                            x       y       z     vdW  Elec       q    Type
REMARK                         _______ _______ _______ _____ _____    ______ ____
ROOT
ATOM      1  C   LIG A   1      -7.686   5.398 130.467  0.00  0.00    +0.131 A 
ATOM      2  C   LIG A   1      -8.998   5.881 130.360  0.00  0.00    +0.106 A 
ATOM      3  C   LIG A   1      -9.700   6.243 131.521  0.00  0.00    +0.002 A 
ATOM      4  C   LIG A   1     -11.114   6.741 131.420  0.00  0.00    +0.186 C 
ATOM      5  C   LIG A   1     -11.352   7.335 130.026  0.00  0.00    +0.206 C 
ATOM      6  C   LIG A   1     -12.822   7.647 129.770  0.00  0.00    +0.055 C 
ATOM      7  O   LIG A   1     -10.934   6.406 129.001  0.00  0.00    -0.455 OA
ATOM      8  C   LIG A   1      -9.661   5.937 129.032  0.00  0.00    +0.343 C 
ATOM      9  O   LIG A   1      -9.095   5.514 128.034  0.00  0.00    -0.245 OA
ATOM     10  C   LIG A   1      -9.089   6.092 132.774  0.00  0.00    +0.007 A 
ATOM     11  C   LIG A   1      -7.783   5.607 132.869  0.00  0.00    +0.004 A 
ATOM     12  C   LIG A   1      -7.080   5.266 131.715  0.00  0.00    +0.046 A 
ENDROOT
BRANCH   1  13
ATOM     13  O   LIG A   1      -6.930   5.017 129.391  0.00  0.00    -0.506 OA
ATOM     14  H   LIG A   1      -5.990   4.949 129.672  0.00  0.00    +0.292 HD
ENDBRANCH   1  13
BRANCH   4  15
ATOM     15  O   LIG A   1     -11.986   5.649 131.696  0.00  0.00    -0.384 OA
ATOM     16  H   LIG A   1     -12.578   5.917 132.421  0.00  0.00    +0.210 HD
ENDBRANCH   4  15
TORSDOF 2
ENDMDL
MODEL 6
REMARK VINA RESULT:      -5.5      9.010     10.977
REMARK  Name = NuBBE_671
REMARK  3 active torsions:
REMARK  status: ('A' for Active; 'I' for Inactive)
REMARK    1  A    between atoms: O_1  and  C_2
REMARK    2  A    between atoms: C_5  and  O_6
REMARK    3  A    between atoms: C_7  and  C_8
REMARK                            x       y       z     vdW  Elec       q    Type
REMARK                         _______ _______ _______ _____ _____    ______ ____
ROOT
ATOM      1  C   LIG A   1      -8.958  -2.579 123.709  0.00  0.00    +0.131 A 
ATOM      2  C   LIG A   1      -8.484  -1.259 123.705  0.00  0.00    +0.106 A 
ATOM      3  C   LIG A   1      -7.260  -0.961 124.326  0.00  0.00    +0.002 A 
ATOM      4  C   LIG A   1      -6.752   0.453 124.347  0.00  0.00    +0.186 C 
ATOM      5  C   LIG A   1      -7.358   1.234 123.174  0.00  0.00    +0.206 C 
ATOM      6  C   LIG A   1      -7.075   2.729 123.263  0.00  0.00    +0.055 C 
ATOM      7  O   LIG A   1      -8.794   1.078 123.148  0.00  0.00    -0.455 OA
ATOM      8  C   LIG A   1      -9.309  -0.177 123.111  0.00  0.00    +0.343 C 
ATOM      9  O   LIG A   1     -10.426  -0.413 122.673  0.00  0.00    -0.245 OA
ATOM     10  C   LIG A   1      -6.542  -1.982 124.965  0.00  0.00    +0.007 A 
ATOM     11  C   LIG A   1      -7.025  -3.291 124.966  0.00  0.00    +0.004 A 
ATOM     12  C   LIG A   1      -8.230  -3.590 124.332  0.00  0.00    +0.046 A 
ENDROOT
BRANCH   1  13
ATOM     13  O   LIG A   1     -10.141  -2.959 123.134  0.00  0.00    -0.506 OA
ATOM     14  H   LIG A   1     -10.797  -3.137 123.845  0.00  0.00    +0.292 HD
ENDBRANCH   1  13
BRANCH   4  15
ATOM     15  O   LIG A   1      -7.093   1.024 125.606  0.00  0.00    -0.384 OA
ATOM     16  H   LIG A   1      -7.665   0.391 126.075  0.00  0.00    +0.210 HD
ENDBRANCH   4  15
TORSDOF 2
ENDMDL
MODEL 7
REMARK VINA RESULT:      -5.4     10.344     11.289
REMARK  Name = NuBBE_671
REMARK  3 active torsions:
REMARK  status: ('A' for Active; 'I' for Inactive)
REMARK    1  A    between atoms: O_1  and  C_2
REMARK    2  A    between atoms: C_5  and  O_6
REMARK    3  A    between atoms: C_7  and  C_8
REMARK                            x       y       z     vdW  Elec       q    Type
REMARK                         _______ _______ _______ _____ _____    ______ ____
ROOT
ATOM      1  C   LIG A   1      -6.818  -2.109 128.265  0.00  0.00    +0.131 A 
ATOM      2  C   LIG A   1      -7.204  -2.235 126.923  0.00  0.00    +0.106 A 
ATOM      3  C   LIG A   1      -8.299  -3.050 126.591  0.00  0.00    +0.002 A 
ATOM      4  C   LIG A   1      -8.709  -3.210 125.155  0.00  0.00    +0.186 C 
ATOM      5  C   LIG A   1      -8.240  -1.994 124.347  0.00  0.00    +0.206 C 
ATOM      6  C   LIG A   1      -8.413  -2.191 122.846  0.00  0.00    +0.055 C 
ATOM      7  O   LIG A   1      -6.837  -1.741 124.581  0.00  0.00    -0.455 OA
ATOM      8  C   LIG A   1      -6.413  -1.569 125.859  0.00  0.00    +0.343 C 
ATOM      9  O   LIG A   1      -5.391  -0.955 126.132  0.00  0.00    -0.245 OA
ATOM     10  C   LIG A   1      -8.975  -3.747 127.604  0.00  0.00    +0.007 A 
ATOM     11  C   LIG A   1      -8.579  -3.616 128.936  0.00  0.00    +0.004 A 
ATOM     12  C   LIG A   1      -7.505  -2.792 129.267  0.00  0.00    +0.046 A 
ENDROOT
BRANCH   1  13
ATOM     13  O   LIG A   1      -5.762  -1.342 128.679  0.00  0.00    -0.506 OA
ATOM     14  H   LIG A   1      -4.951  -1.900 128.693  0.00  0.00    +0.292 HD
ENDBRANCH   1  13
BRANCH   4  15
ATOM     15  O   LIG A   1      -8.147  -4.426 124.671  0.00  0.00    -0.384 OA
ATOM     16  H   LIG A   1      -8.882  -5.032 124.467  0.00  0.00    +0.210 HD
ENDBRANCH   4  15
TORSDOF 2
ENDMDL
MODEL 8
REMARK VINA RESULT:      -5.3      7.074      8.759
REMARK  Name = NuBBE_671
REMARK  3 active torsions:
REMARK  status: ('A' for Active; 'I' for Inactive)
REMARK    1  A    between atoms: O_1  and  C_2
REMARK    2  A    between atoms: C_5  and  O_6
REMARK    3  A    between atoms: C_7  and  C_8
REMARK                            x       y       z     vdW  Elec       q    Type
REMARK                         _______ _______ _______ _____ _____    ______ ____
ROOT
ATOM      1  C   LIG A   1      -5.753   4.078 122.126  0.00  0.00    +0.131 A 
ATOM      2  C   LIG A   1      -6.390   3.570 123.267  0.00  0.00    +0.106 A 
ATOM      3  C   LIG A   1      -7.708   3.094 123.170  0.00  0.00    +0.002 A 
ATOM      4  C   LIG A   1      -8.408   2.567 124.390  0.00  0.00    +0.186 C 
ATOM      5  C   LIG A   1      -7.370   2.085 125.411  0.00  0.00    +0.206 C 
ATOM      6  C   LIG A   1      -7.993   1.754 126.762  0.00  0.00    +0.055 C 
ATOM      7  O   LIG A   1      -6.375   3.106 125.644  0.00  0.00    -0.455 OA
ATOM      8  C   LIG A   1      -5.698   3.606 124.580  0.00  0.00    +0.343 C 
ATOM      9  O   LIG A   1      -4.597   4.126 124.691  0.00  0.00    -0.245 OA
ATOM     10  C   LIG A   1      -8.378   3.157 121.939  0.00  0.00    +0.007 A 
ATOM     11  C   LIG A   1      -7.734   3.668 120.811  0.00  0.00    +0.004 A 
ATOM     12  C   LIG A   1      -6.420   4.122 120.903  0.00  0.00    +0.046 A 
ENDROOT
BRANCH   1  13
ATOM     13  O   LIG A   1      -4.474   4.568 122.128  0.00  0.00    -0.506 OA
ATOM     14  H   LIG A   1      -4.100   4.482 121.222  0.00  0.00    +0.292 HD
ENDBRANCH   1  13
BRANCH   4  15
ATOM     15  O   LIG A   1      -9.230   3.608 124.909  0.00  0.00    -0.384 OA
ATOM     16  H   LIG A   1     -10.079   3.581 124.433  0.00  0.00    +0.210 HD
ENDBRANCH   4  15
TORSDOF 2
ENDMDL
MODEL 9
REMARK VINA RESULT:      -5.2      7.853      9.580
REMARK  Name = NuBBE_671
REMARK  3 active torsions:
REMARK  status: ('A' for Active; 'I' for Inactive)
REMARK    1  A    between atoms: O_1  and  C_2
REMARK    2  A    between atoms: C_5  and  O_6
REMARK    3  A    between atoms: C_7  and  C_8
REMARK                            x       y       z     vdW  Elec       q    Type
REMARK                         _______ _______ _______ _____ _____    ______ ____
ROOT
ATOM      1  C   LIG A   1      -8.286   2.250 124.924  0.00  0.00    +0.131 A 
ATOM      2  C   LIG A   1      -8.404   0.924 124.485  0.00  0.00    +0.106 A 
ATOM      3  C   LIG A   1      -7.310   0.052 124.612  0.00  0.00    +0.002 A 
ATOM      4  C   LIG A   1      -7.417  -1.365 124.126  0.00  0.00    +0.186 C 
ATOM      5  C   LIG A   1      -8.890  -1.795 124.116  0.00  0.00    +0.206 C 
ATOM      6  C   LIG A   1      -9.100  -3.134 123.418  0.00  0.00    +0.055 C 
ATOM      7  O   LIG A   1      -9.697  -0.823 123.415  0.00  0.00    -0.455 OA
ATOM      8  C   LIG A   1      -9.653   0.470 123.824  0.00  0.00    +0.343 C 
ATOM      9  O   LIG A   1     -10.565   1.256 123.606  0.00  0.00    -0.245 OA
ATOM     10  C   LIG A   1      -6.106   0.527 125.153  0.00  0.00    +0.007 A 
ATOM     11  C   LIG A   1      -5.999   1.851 125.583  0.00  0.00    +0.004 A 
ATOM     12  C   LIG A   1      -7.091   2.710 125.475  0.00  0.00    +0.046 A 
ENDROOT
BRANCH   1  13
ATOM     13  O   LIG A   1      -9.297   3.170 124.834  0.00  0.00    -0.506 OA
ATOM     14  H   LIG A   1     -10.132   2.701 124.606  0.00  0.00    +0.292 HD
ENDBRANCH   1  13
BRANCH   4  15
ATOM     15  O   LIG A   1      -6.828  -1.432 122.831  0.00  0.00    -0.384 OA
ATOM     16  H   LIG A   1      -5.878  -1.242 122.927  0.00  0.00    +0.210 HD
ENDBRANCH   4  15
TORSDOF 2
ENDMDL
