MODEL 1
REMARK VINA RESULT:      -7.8      0.000      0.000
REMARK  Name = NuBBE_1692
REMARK  12 active torsions:
REMARK  status: ('A' for Active; 'I' for Inactive)
REMARK    1  A    between atoms: C_1  and  O_2
REMARK    2  A    between atoms: O_2  and  C_3
REMARK    3  A    between atoms: C_4  and  C_5
REMARK    4  A    between atoms: C_6  and  C_7
REMARK    5  A    between atoms: C_7  and  C_8
REMARK    6  A    between atoms: C_7  and  O_9
REMARK    7  A    between atoms: C_7  and  C_10
REMARK    8  A    between atoms: C_11  and  O_12
REMARK    9  A    between atoms: O_12  and  C_13
REMARK   10  A    between atoms: C_17  and  C_18
REMARK   11  A    between atoms: C_20  and  O_21
REMARK   12  A    between atoms: O_21  and  C_22
REMARK                            x       y       z     vdW  Elec       q    Type
REMARK                         _______ _______ _______ _____ _____    ______ ____
ROOT
ATOM      1  C   LIG A   1      -8.191   0.185 124.320  0.00  0.00    +0.145 A 
ATOM      2  C   LIG A   1      -8.086   1.607 124.319  0.00  0.00    +0.059 A 
ATOM      3  C   LIG A   1      -8.264   2.322 125.534  0.00  0.00    +0.134 A 
ATOM      4  C   LIG A   1      -8.360   1.614 126.744  0.00  0.00    +0.093 A 
ATOM      5  C   LIG A   1      -8.374   0.221 126.747  0.00  0.00    +0.146 A 
ATOM      6  O   LIG A   1      -8.338  -0.423 127.971  0.00  0.00    -0.454 OA
ATOM      7  C   LIG A   1      -7.978  -1.768 127.949  0.00  0.00    +0.140 A 
ATOM      8  C   LIG A   1      -8.105  -2.560 126.880  0.00  0.00    +0.098 A 
ATOM      9  C   LIG A   1      -8.406  -0.485 125.540  0.00  0.00    +0.106 A 
ATOM     10  C   LIG A   1      -8.709  -1.909 125.736  0.00  0.00    +0.197 A 
ATOM     11  O   LIG A   1      -9.557  -2.542 125.077  0.00  0.00    -0.287 OA
ENDROOT
BRANCH   7  12
ATOM     12  C   LIG A   1      -7.521  -2.323 129.230  0.00  0.00    +0.025 A 
ATOM     13  C   LIG A   1      -7.803  -1.638 130.433  0.00  0.00    +0.061 A 
ATOM     14  C   LIG A   1      -7.321  -2.107 131.664  0.00  0.00    +0.166 A 
ATOM     15  C   LIG A   1      -6.584  -3.277 131.655  0.00  0.00    +0.208 A 
ATOM     16  O   LIG A   1      -6.048  -3.922 132.728  0.00  0.00    -0.449 OA
ATOM     17  C   LIG A   1      -5.391  -5.035 132.107  0.00  0.00    +0.467 C 
ATOM     18  O   LIG A   1      -5.573  -5.074 130.680  0.00  0.00    -0.452 OA
ATOM     19  C   LIG A   1      -6.314  -3.949 130.483  0.00  0.00    +0.171 A 
ATOM     20  C   LIG A   1      -6.759  -3.499 129.257  0.00  0.00    +0.061 A 
BRANCH  14  21
ATOM     21  O   LIG A   1      -7.660  -1.365 132.761  0.00  0.00    -0.491 OA
ATOM     22  C   LIG A   1      -6.816  -0.249 133.038  0.00  0.00    +0.277 C 
ENDBRANCH  14  21
ENDBRANCH   7  12
BRANCH   1  24
ATOM     23  C   LIG A   1      -6.769  -1.164 122.934  0.00  0.00    +0.277 C 
ATOM     24  O   LIG A   1      -7.953  -0.401 123.095  0.00  0.00    -0.494 OA
ENDBRANCH   1  24
BRANCH   2  25
ATOM     25  C   LIG A   1      -7.756   2.287 123.039  0.00  0.00    +0.014 C 
ATOM     26  C   LIG A   1      -6.560   2.863 122.801  0.00  0.00    +0.007 C 
BRANCH  26  27
ATOM     27  C   LIG A   1      -6.067   3.432 121.486  0.00  0.00    +0.079 C 
ATOM     28  C   LIG A   1      -5.053   4.542 121.774  0.00  0.00    +0.045 C 
ATOM     29  C   LIG A   1      -7.186   3.958 120.588  0.00  0.00    +0.045 C 
BRANCH  27  30
ATOM     30  O   LIG A   1      -5.404   2.395 120.754  0.00  0.00    -0.385 OA
ATOM     31  H   LIG A   1      -5.027   1.756 121.380  0.00  0.00    +0.211 HD
ENDBRANCH  27  30
ENDBRANCH  26  27
ENDBRANCH   2  25
BRANCH   3  32
ATOM     32  O   LIG A   1      -8.307   3.690 125.705  0.00  0.00    -0.494 OA
ATOM     33  C   LIG A   1      -7.671   4.207 126.869  0.00  0.00    +0.277 C 
ENDBRANCH   3  32
TORSDOF 7
ENDMDL
MODEL 2
REMARK VINA RESULT:      -7.8      1.037      2.018
REMARK  Name = NuBBE_1692
REMARK  12 active torsions:
REMARK  status: ('A' for Active; 'I' for Inactive)
REMARK    1  A    between atoms: C_1  and  O_2
REMARK    2  A    between atoms: O_2  and  C_3
REMARK    3  A    between atoms: C_4  and  C_5
REMARK    4  A    between atoms: C_6  and  C_7
REMARK    5  A    between atoms: C_7  and  C_8
REMARK    6  A    between atoms: C_7  and  O_9
REMARK    7  A    between atoms: C_7  and  C_10
REMARK    8  A    between atoms: C_11  and  O_12
REMARK    9  A    between atoms: O_12  and  C_13
REMARK   10  A    between atoms: C_17  and  C_18
REMARK   11  A    between atoms: C_20  and  O_21
REMARK   12  A    between atoms: O_21  and  C_22
REMARK                            x       y       z     vdW  Elec       q    Type
REMARK                         _______ _______ _______ _____ _____    ______ ____
ROOT
ATOM      1  C   LIG A   1      -8.305   0.194 124.494  0.00  0.00    +0.145 A 
ATOM      2  C   LIG A   1      -8.207   1.617 124.504  0.00  0.00    +0.059 A 
ATOM      3  C   LIG A   1      -8.271   2.312 125.741  0.00  0.00    +0.134 A 
ATOM      4  C   LIG A   1      -8.249   1.587 126.945  0.00  0.00    +0.093 A 
ATOM      5  C   LIG A   1      -8.256   0.194 126.928  0.00  0.00    +0.146 A 
ATOM      6  O   LIG A   1      -8.101  -0.468 128.134  0.00  0.00    -0.454 OA
ATOM      7  C   LIG A   1      -7.739  -1.809 128.058  0.00  0.00    +0.140 A 
ATOM      8  C   LIG A   1      -7.965  -2.587 126.994  0.00  0.00    +0.098 A 
ATOM      9  C   LIG A   1      -8.400  -0.495 125.720  0.00  0.00    +0.106 A 
ATOM     10  C   LIG A   1      -8.678  -1.923 125.923  0.00  0.00    +0.197 A 
ATOM     11  O   LIG A   1      -9.582  -2.551 125.338  0.00  0.00    -0.287 OA
ENDROOT
BRANCH   7  12
ATOM     12  C   LIG A   1      -7.160  -2.381 129.281  0.00  0.00    +0.025 A 
ATOM     13  C   LIG A   1      -5.908  -3.031 129.228  0.00  0.00    +0.061 A 
ATOM     14  C   LIG A   1      -5.361  -3.647 130.364  0.00  0.00    +0.166 A 
ATOM     15  C   LIG A   1      -6.084  -3.567 131.540  0.00  0.00    +0.208 A 
ATOM     16  O   LIG A   1      -5.733  -4.063 132.759  0.00  0.00    -0.449 OA
ATOM     17  C   LIG A   1      -6.865  -3.703 133.563  0.00  0.00    +0.467 C 
ATOM     18  O   LIG A   1      -7.860  -2.959 132.837  0.00  0.00    -0.452 OA
ATOM     19  C   LIG A   1      -7.303  -2.927 131.594  0.00  0.00    +0.171 A 
ATOM     20  C   LIG A   1      -7.872  -2.331 130.487  0.00  0.00    +0.061 A 
BRANCH  14  21
ATOM     21  O   LIG A   1      -4.143  -4.242 130.194  0.00  0.00    -0.491 OA
ATOM     22  C   LIG A   1      -3.247  -3.575 129.306  0.00  0.00    +0.277 C 
ENDBRANCH  14  21
ENDBRANCH   7  12
BRANCH   1  24
ATOM     23  C   LIG A   1      -6.991  -1.078 122.939  0.00  0.00    +0.277 C 
ATOM     24  O   LIG A   1      -8.183  -0.373 123.244  0.00  0.00    -0.494 OA
ENDBRANCH   1  24
BRANCH   2  25
ATOM     25  C   LIG A   1      -8.004   2.316 123.209  0.00  0.00    +0.014 C 
ATOM     26  C   LIG A   1      -6.871   2.984 122.905  0.00  0.00    +0.007 C 
BRANCH  26  27
ATOM     27  C   LIG A   1      -6.499   3.586 121.566  0.00  0.00    +0.079 C 
ATOM     28  C   LIG A   1      -7.773   3.798 120.746  0.00  0.00    +0.045 C 
ATOM     29  C   LIG A   1      -5.493   2.750 120.776  0.00  0.00    +0.045 C 
BRANCH  27  30
ATOM     30  O   LIG A   1      -5.889   4.863 121.788  0.00  0.00    -0.385 OA
ATOM     31  H   LIG A   1      -5.610   4.924 122.716  0.00  0.00    +0.211 HD
ENDBRANCH  27  30
ENDBRANCH  26  27
ENDBRANCH   2  25
BRANCH   3  32
ATOM     32  O   LIG A   1      -8.303   3.677 125.936  0.00  0.00    -0.494 OA
ATOM     33  C   LIG A   1      -7.390   4.207 126.891  0.00  0.00    +0.277 C 
ENDBRANCH   3  32
TORSDOF 7
ENDMDL
MODEL 3
REMARK VINA RESULT:      -7.2      3.318      9.517
REMARK  Name = NuBBE_1692
REMARK  12 active torsions:
REMARK  status: ('A' for Active; 'I' for Inactive)
REMARK    1  A    between atoms: C_1  and  O_2
REMARK    2  A    between atoms: O_2  and  C_3
REMARK    3  A    between atoms: C_4  and  C_5
REMARK    4  A    between atoms: C_6  and  C_7
REMARK    5  A    between atoms: C_7  and  C_8
REMARK    6  A    between atoms: C_7  and  O_9
REMARK    7  A    between atoms: C_7  and  C_10
REMARK    8  A    between atoms: C_11  and  O_12
REMARK    9  A    between atoms: O_12  and  C_13
REMARK   10  A    between atoms: C_17  and  C_18
REMARK   11  A    between atoms: C_20  and  O_21
REMARK   12  A    between atoms: O_21  and  C_22
REMARK                            x       y       z     vdW  Elec       q    Type
REMARK                         _______ _______ _______ _____ _____    ______ ____
ROOT
ATOM      1  C   LIG A   1      -5.815  -2.423 131.756  0.00  0.00    +0.145 A 
ATOM      2  C   LIG A   1      -6.802  -1.793 132.570  0.00  0.00    +0.059 A 
ATOM      3  C   LIG A   1      -7.622  -0.776 132.012  0.00  0.00    +0.134 A 
ATOM      4  C   LIG A   1      -7.577  -0.532 130.629  0.00  0.00    +0.093 A 
ATOM      5  C   LIG A   1      -6.670  -1.216 129.823  0.00  0.00    +0.146 A 
ATOM      6  O   LIG A   1      -6.756  -1.033 128.453  0.00  0.00    -0.454 OA
ATOM      7  C   LIG A   1      -6.116  -1.983 127.663  0.00  0.00    +0.140 A 
ATOM      8  C   LIG A   1      -5.102  -2.746 128.084  0.00  0.00    +0.098 A 
ATOM      9  C   LIG A   1      -5.720  -2.066 130.396  0.00  0.00    +0.106 A 
ATOM     10  C   LIG A   1      -4.678  -2.464 129.439  0.00  0.00    +0.197 A 
ATOM     11  O   LIG A   1      -3.456  -2.429 129.680  0.00  0.00    -0.287 OA
ENDROOT
BRANCH   7  12
ATOM     12  C   LIG A   1      -6.559  -2.048 126.264  0.00  0.00    +0.025 A 
ATOM     13  C   LIG A   1      -5.683  -2.543 125.273  0.00  0.00    +0.061 A 
ATOM     14  C   LIG A   1      -6.051  -2.552 123.919  0.00  0.00    +0.166 A 
ATOM     15  C   LIG A   1      -7.313  -2.084 123.600  0.00  0.00    +0.208 A 
ATOM     16  O   LIG A   1      -7.884  -2.029 122.365  0.00  0.00    -0.449 OA
ATOM     17  C   LIG A   1      -9.159  -1.439 122.653  0.00  0.00    +0.467 C 
ATOM     18  O   LIG A   1      -9.360  -1.187 124.055  0.00  0.00    -0.452 OA
ATOM     19  C   LIG A   1      -8.170  -1.606 124.567  0.00  0.00    +0.171 A 
ATOM     20  C   LIG A   1      -7.824  -1.568 125.903  0.00  0.00    +0.061 A 
BRANCH  14  21
ATOM     21  O   LIG A   1      -5.125  -3.058 123.051  0.00  0.00    -0.491 OA
ATOM     22  C   LIG A   1      -4.295  -4.097 123.568  0.00  0.00    +0.277 C 
ENDBRANCH  14  21
ENDBRANCH   7  12
BRANCH   1  24
ATOM     23  C   LIG A   1      -3.844  -3.110 132.942  0.00  0.00    +0.277 C 
ATOM     24  O   LIG A   1      -5.113  -3.424 132.391  0.00  0.00    -0.494 OA
ENDBRANCH   1  24
BRANCH   2  25
ATOM     25  C   LIG A   1      -6.955  -2.256 133.974  0.00  0.00    +0.014 C 
ATOM     26  C   LIG A   1      -8.009  -2.986 134.395  0.00  0.00    +0.007 C 
BRANCH  26  27
ATOM     27  C   LIG A   1      -8.180  -3.642 135.750  0.00  0.00    +0.079 C 
ATOM     28  C   LIG A   1      -6.939  -3.360 136.599  0.00  0.00    +0.045 C 
ATOM     29  C   LIG A   1      -8.440  -5.146 135.674  0.00  0.00    +0.045 C 
BRANCH  27  30
ATOM     30  O   LIG A   1      -9.315  -3.061 136.403  0.00  0.00    -0.385 OA
ATOM     31  H   LIG A   1      -9.140  -2.119 136.563  0.00  0.00    +0.211 HD
ENDBRANCH  27  30
ENDBRANCH  26  27
ENDBRANCH   2  25
BRANCH   3  32
ATOM     32  O   LIG A   1      -8.545   0.013 132.667  0.00  0.00    -0.494 OA
ATOM     33  C   LIG A   1      -9.361   0.849 131.854  0.00  0.00    +0.277 C 
ENDBRANCH   3  32
TORSDOF 7
ENDMDL
MODEL 4
REMARK VINA RESULT:      -7.1      4.372      7.028
REMARK  Name = NuBBE_1692
REMARK  12 active torsions:
REMARK  status: ('A' for Active; 'I' for Inactive)
REMARK    1  A    between atoms: C_1  and  O_2
REMARK    2  A    between atoms: O_2  and  C_3
REMARK    3  A    between atoms: C_4  and  C_5
REMARK    4  A    between atoms: C_6  and  C_7
REMARK    5  A    between atoms: C_7  and  C_8
REMARK    6  A    between atoms: C_7  and  O_9
REMARK    7  A    between atoms: C_7  and  C_10
REMARK    8  A    between atoms: C_11  and  O_12
REMARK    9  A    between atoms: O_12  and  C_13
REMARK   10  A    between atoms: C_17  and  C_18
REMARK   11  A    between atoms: C_20  and  O_21
REMARK   12  A    between atoms: O_21  and  C_22
REMARK                            x       y       z     vdW  Elec       q    Type
REMARK                         _______ _______ _______ _____ _____    ______ ____
ROOT
ATOM      1  C   LIG A   1      -7.382  -0.447 128.231  0.00  0.00    +0.145 A 
ATOM      2  C   LIG A   1      -8.183  -0.065 127.115  0.00  0.00    +0.059 A 
ATOM      3  C   LIG A   1      -8.463   1.311 126.896  0.00  0.00    +0.134 A 
ATOM      4  C   LIG A   1      -7.805   2.283 127.669  0.00  0.00    +0.093 A 
ATOM      5  C   LIG A   1      -6.954   1.902 128.703  0.00  0.00    +0.146 A 
ATOM      6  O   LIG A   1      -6.233   2.894 129.345  0.00  0.00    -0.454 OA
ATOM      7  C   LIG A   1      -5.138   2.473 130.094  0.00  0.00    +0.140 A 
ATOM      8  C   LIG A   1      -5.002   1.241 130.595  0.00  0.00    +0.098 A 
ATOM      9  C   LIG A   1      -6.833   0.555 129.057  0.00  0.00    +0.106 A 
ATOM     10  C   LIG A   1      -6.133   0.375 130.335  0.00  0.00    +0.197 A 
ATOM     11  O   LIG A   1      -6.535  -0.362 131.256  0.00  0.00    -0.287 OA
ENDROOT
BRANCH   7  12
ATOM     12  C   LIG A   1      -4.143   3.509 130.401  0.00  0.00    +0.025 A 
ATOM     13  C   LIG A   1      -3.699   4.381 129.382  0.00  0.00    +0.061 A 
ATOM     14  C   LIG A   1      -2.700   5.334 129.628  0.00  0.00    +0.166 A 
ATOM     15  C   LIG A   1      -2.189   5.404 130.912  0.00  0.00    +0.208 A 
ATOM     16  O   LIG A   1      -1.242   6.266 131.377  0.00  0.00    -0.449 OA
ATOM     17  C   LIG A   1      -1.109   5.850 132.743  0.00  0.00    +0.467 C 
ATOM     18  O   LIG A   1      -2.002   4.780 133.098  0.00  0.00    -0.452 OA
ATOM     19  C   LIG A   1      -2.627   4.559 131.907  0.00  0.00    +0.171 A 
ATOM     20  C   LIG A   1      -3.593   3.599 131.687  0.00  0.00    +0.061 A 
BRANCH  14  21
ATOM     21  O   LIG A   1      -2.353   6.124 128.568  0.00  0.00    -0.491 OA
ATOM     22  C   LIG A   1      -3.224   7.224 128.306  0.00  0.00    +0.277 C 
ENDBRANCH  14  21
ENDBRANCH   7  12
BRANCH   1  24
ATOM     23  C   LIG A   1      -5.840  -2.272 127.992  0.00  0.00    +0.277 C 
ATOM     24  O   LIG A   1      -7.138  -1.801 128.316  0.00  0.00    -0.494 OA
ENDBRANCH   1  24
BRANCH   2  25
ATOM     25  C   LIG A   1      -8.666  -1.130 126.199  0.00  0.00    +0.014 C 
ATOM     26  C   LIG A   1      -8.131  -1.348 124.979  0.00  0.00    +0.007 C 
BRANCH  26  27
ATOM     27  C   LIG A   1      -8.434  -2.499 124.042  0.00  0.00    +0.079 C 
ATOM     28  C   LIG A   1      -7.576  -3.702 124.440  0.00  0.00    +0.045 C 
ATOM     29  C   LIG A   1      -8.222  -2.160 122.567  0.00  0.00    +0.045 C 
BRANCH  27  30
ATOM     30  O   LIG A   1      -9.812  -2.861 124.188  0.00  0.00    -0.385 OA
ATOM     31  H   LIG A   1      -9.867  -3.778 124.502  0.00  0.00    +0.211 HD
ENDBRANCH  27  30
ENDBRANCH  26  27
ENDBRANCH   2  25
BRANCH   3  32
ATOM     32  O   LIG A   1      -9.300   1.856 125.944  0.00  0.00    -0.494 OA
ATOM     33  C   LIG A   1      -8.674   2.503 124.841  0.00  0.00    +0.277 C 
ENDBRANCH   3  32
TORSDOF 7
ENDMDL
MODEL 5
REMARK VINA RESULT:      -7.1      8.019     11.437
REMARK  Name = NuBBE_1692
REMARK  12 active torsions:
REMARK  status: ('A' for Active; 'I' for Inactive)
REMARK    1  A    between atoms: C_1  and  O_2
REMARK    2  A    between atoms: O_2  and  C_3
REMARK    3  A    between atoms: C_4  and  C_5
REMARK    4  A    between atoms: C_6  and  C_7
REMARK    5  A    between atoms: C_7  and  C_8
REMARK    6  A    between atoms: C_7  and  O_9
REMARK    7  A    between atoms: C_7  and  C_10
REMARK    8  A    between atoms: C_11  and  O_12
REMARK    9  A    between atoms: O_12  and  C_13
REMARK   10  A    between atoms: C_17  and  C_18
REMARK   11  A    between atoms: C_20  and  O_21
REMARK   12  A    between atoms: O_21  and  C_22
REMARK                            x       y       z     vdW  Elec       q    Type
REMARK                         _______ _______ _______ _____ _____    ______ ____
ROOT
ATOM      1  C   LIG A   1      -4.908   6.255 132.881  0.00  0.00    +0.145 A 
ATOM      2  C   LIG A   1      -3.688   6.435 132.164  0.00  0.00    +0.059 A 
ATOM      3  C   LIG A   1      -3.680   6.284 130.751  0.00  0.00    +0.134 A 
ATOM      4  C   LIG A   1      -4.897   6.139 130.064  0.00  0.00    +0.093 A 
ATOM      5  C   LIG A   1      -6.097   6.052 130.767  0.00  0.00    +0.146 A 
ATOM      6  O   LIG A   1      -7.273   6.042 130.038  0.00  0.00    -0.454 OA
ATOM      7  C   LIG A   1      -8.438   6.331 130.743  0.00  0.00    +0.140 A 
ATOM      8  C   LIG A   1      -8.572   6.172 132.064  0.00  0.00    +0.098 A 
ATOM      9  C   LIG A   1      -6.092   5.994 132.163  0.00  0.00    +0.106 A 
ATOM     10  C   LIG A   1      -7.402   5.614 132.709  0.00  0.00    +0.197 A 
ATOM     11  O   LIG A   1      -7.570   4.740 133.582  0.00  0.00    -0.287 OA
ENDROOT
BRANCH   7  12
ATOM     12  C   LIG A   1      -9.587   6.746 129.929  0.00  0.00    +0.025 A 
ATOM     13  C   LIG A   1     -10.699   7.363 130.545  0.00  0.00    +0.061 A 
ATOM     14  C   LIG A   1     -11.839   7.707 129.805  0.00  0.00    +0.166 A 
ATOM     15  C   LIG A   1     -11.820   7.444 128.447  0.00  0.00    +0.208 A 
ATOM     16  O   LIG A   1     -12.798   7.718 127.540  0.00  0.00    -0.449 OA
ATOM     17  C   LIG A   1     -12.231   7.203 126.327  0.00  0.00    +0.467 C 
ATOM     18  O   LIG A   1     -10.908   6.668 126.505  0.00  0.00    -0.452 OA
ATOM     19  C   LIG A   1     -10.734   6.848 127.845  0.00  0.00    +0.171 A 
ATOM     20  C   LIG A   1      -9.608   6.481 128.553  0.00  0.00    +0.061 A 
BRANCH  14  21
ATOM     21  O   LIG A   1     -12.850   8.303 130.506  0.00  0.00    -0.491 OA
ATOM     22  C   LIG A   1     -13.076   9.681 130.215  0.00  0.00    +0.277 C 
ENDBRANCH  14  21
ENDBRANCH   7  12
BRANCH   1  24
ATOM     23  C   LIG A   1      -4.608   5.352 135.085  0.00  0.00    +0.277 C 
ATOM     24  O   LIG A   1      -4.804   6.473 134.238  0.00  0.00    -0.494 OA
ENDBRANCH   1  24
BRANCH   2  25
ATOM     25  C   LIG A   1      -2.472   6.812 132.930  0.00  0.00    +0.014 C 
ATOM     26  C   LIG A   1      -1.952   8.057 132.916  0.00  0.00    +0.007 C 
BRANCH  26  27
ATOM     27  C   LIG A   1      -0.824   8.584 133.779  0.00  0.00    +0.079 C 
ATOM     28  C   LIG A   1      -1.314   8.691 135.225  0.00  0.00    +0.045 C 
ATOM     29  C   LIG A   1      -0.268   9.927 133.308  0.00  0.00    +0.045 C 
BRANCH  27  30
ATOM     30  O   LIG A   1       0.262   7.651 133.740  0.00  0.00    -0.385 OA
ATOM     31  H   LIG A   1      -0.060   6.778 134.017  0.00  0.00    +0.211 HD
ENDBRANCH  27  30
ENDBRANCH  26  27
ENDBRANCH   2  25
BRANCH   3  32
ATOM     32  O   LIG A   1      -2.587   6.312 129.910  0.00  0.00    -0.494 OA
ATOM     33  C   LIG A   1      -2.842   6.613 128.543  0.00  0.00    +0.277 C 
ENDBRANCH   3  32
TORSDOF 7
ENDMDL
MODEL 6
REMARK VINA RESULT:      -7.0      8.472     12.099
REMARK  Name = NuBBE_1692
REMARK  12 active torsions:
REMARK  status: ('A' for Active; 'I' for Inactive)
REMARK    1  A    between atoms: C_1  and  O_2
REMARK    2  A    between atoms: O_2  and  C_3
REMARK    3  A    between atoms: C_4  and  C_5
REMARK    4  A    between atoms: C_6  and  C_7
REMARK    5  A    between atoms: C_7  and  C_8
REMARK    6  A    between atoms: C_7  and  O_9
REMARK    7  A    between atoms: C_7  and  C_10
REMARK    8  A    between atoms: C_11  and  O_12
REMARK    9  A    between atoms: O_12  and  C_13
REMARK   10  A    between atoms: C_17  and  C_18
REMARK   11  A    between atoms: C_20  and  O_21
REMARK   12  A    between atoms: O_21  and  C_22
REMARK                            x       y       z     vdW  Elec       q    Type
REMARK                         _______ _______ _______ _____ _____    ______ ____
ROOT
ATOM      1  C   LIG A   1      -4.428   5.993 134.253  0.00  0.00    +0.145 A 
ATOM      2  C   LIG A   1      -3.250   6.441 133.585  0.00  0.00    +0.059 A 
ATOM      3  C   LIG A   1      -3.256   6.565 132.169  0.00  0.00    +0.134 A 
ATOM      4  C   LIG A   1      -4.465   6.421 131.467  0.00  0.00    +0.093 A 
ATOM      5  C   LIG A   1      -5.633   6.070 132.140  0.00  0.00    +0.146 A 
ATOM      6  O   LIG A   1      -6.817   6.069 131.423  0.00  0.00    -0.454 OA
ATOM      7  C   LIG A   1      -7.990   6.087 132.172  0.00  0.00    +0.140 A 
ATOM      8  C   LIG A   1      -8.078   5.664 133.437  0.00  0.00    +0.098 A 
ATOM      9  C   LIG A   1      -5.592   5.745 133.499  0.00  0.00    +0.106 A 
ATOM     10  C   LIG A   1      -6.841   5.125 133.962  0.00  0.00    +0.197 A 
ATOM     11  O   LIG A   1      -6.894   4.087 134.650  0.00  0.00    -0.287 OA
ENDROOT
BRANCH   7  12
ATOM     12  C   LIG A   1      -9.195   6.521 131.453  0.00  0.00    +0.025 A 
ATOM     13  C   LIG A   1      -9.072   7.175 130.206  0.00  0.00    +0.061 A 
ATOM     14  C   LIG A   1     -10.200   7.662 129.529  0.00  0.00    +0.166 A 
ATOM     15  C   LIG A   1     -11.435   7.453 130.116  0.00  0.00    +0.208 A 
ATOM     16  O   LIG A   1     -12.653   7.813 129.625  0.00  0.00    -0.449 OA
ATOM     17  C   LIG A   1     -13.535   7.366 130.664  0.00  0.00    +0.467 C 
ATOM     18  O   LIG A   1     -12.849   6.706 131.742  0.00  0.00    -0.452 OA
ATOM     19  C   LIG A   1     -11.555   6.811 131.329  0.00  0.00    +0.171 A 
ATOM     20  C   LIG A   1     -10.461   6.340 132.025  0.00  0.00    +0.061 A 
BRANCH  14  21
ATOM     21  O   LIG A   1      -9.960   8.273 128.330  0.00  0.00    -0.491 OA
ATOM     22  C   LIG A   1     -10.560   7.657 127.191  0.00  0.00    +0.277 C 
ENDBRANCH  14  21
ENDBRANCH   7  12
BRANCH   1  24
ATOM     23  C   LIG A   1      -5.048   6.909 136.384  0.00  0.00    +0.277 C 
ATOM     24  O   LIG A   1      -4.319   5.957 135.627  0.00  0.00    -0.494 OA
ENDBRANCH   1  24
BRANCH   2  25
ATOM     25  C   LIG A   1      -2.065   6.796 134.408  0.00  0.00    +0.014 C 
ATOM     26  C   LIG A   1      -1.680   8.070 134.628  0.00  0.00    +0.007 C 
BRANCH  26  27
ATOM     27  C   LIG A   1      -0.597   8.544 135.576  0.00  0.00    +0.079 C 
ATOM     28  C   LIG A   1      -0.487   7.555 136.738  0.00  0.00    +0.045 C 
ATOM     29  C   LIG A   1      -0.822   9.960 136.104  0.00  0.00    +0.045 C 
BRANCH  27  30
ATOM     30  O   LIG A   1       0.653   8.559 134.877  0.00  0.00    -0.385 OA
ATOM     31  H   LIG A   1       1.251   7.910 135.283  0.00  0.00    +0.211 HD
ENDBRANCH  27  30
ENDBRANCH  26  27
ENDBRANCH   2  25
BRANCH   3  32
ATOM     32  O   LIG A   1      -2.191   6.874 131.349  0.00  0.00    -0.494 OA
ATOM     33  C   LIG A   1      -2.251   6.383 130.014  0.00  0.00    +0.277 C 
ENDBRANCH   3  32
TORSDOF 7
ENDMDL
MODEL 7
REMARK VINA RESULT:      -6.9      4.032      7.406
REMARK  Name = NuBBE_1692
REMARK  12 active torsions:
REMARK  status: ('A' for Active; 'I' for Inactive)
REMARK    1  A    between atoms: C_1  and  O_2
REMARK    2  A    between atoms: O_2  and  C_3
REMARK    3  A    between atoms: C_4  and  C_5
REMARK    4  A    between atoms: C_6  and  C_7
REMARK    5  A    between atoms: C_7  and  C_8
REMARK    6  A    between atoms: C_7  and  O_9
REMARK    7  A    between atoms: C_7  and  C_10
REMARK    8  A    between atoms: C_11  and  O_12
REMARK    9  A    between atoms: O_12  and  C_13
REMARK   10  A    between atoms: C_17  and  C_18
REMARK   11  A    between atoms: C_20  and  O_21
REMARK   12  A    between atoms: O_21  and  C_22
REMARK                            x       y       z     vdW  Elec       q    Type
REMARK                         _______ _______ _______ _____ _____    ______ ____
ROOT
ATOM      1  C   LIG A   1      -6.477   0.361 127.311  0.00  0.00    +0.145 A 
ATOM      2  C   LIG A   1      -6.943  -0.970 127.520  0.00  0.00    +0.059 A 
ATOM      3  C   LIG A   1      -7.567  -1.306 128.752  0.00  0.00    +0.134 A 
ATOM      4  C   LIG A   1      -7.879  -0.287 129.669  0.00  0.00    +0.093 A 
ATOM      5  C   LIG A   1      -7.498   1.028 129.417  0.00  0.00    +0.146 A 
ATOM      6  O   LIG A   1      -7.943   2.008 130.288  0.00  0.00    -0.454 OA
ATOM      7  C   LIG A   1      -7.875   3.319 129.826  0.00  0.00    +0.140 A 
ATOM      8  C   LIG A   1      -7.045   3.733 128.864  0.00  0.00    +0.098 A 
ATOM      9  C   LIG A   1      -6.704   1.332 128.307  0.00  0.00    +0.106 A 
ATOM     10  C   LIG A   1      -6.165   2.697 128.363  0.00  0.00    +0.197 A 
ATOM     11  O   LIG A   1      -4.972   2.988 128.153  0.00  0.00    -0.287 OA
ENDROOT
BRANCH   7  12
ATOM     12  C   LIG A   1      -8.723   4.286 130.536  0.00  0.00    +0.025 A 
ATOM     13  C   LIG A   1      -8.315   4.791 131.790  0.00  0.00    +0.061 A 
ATOM     14  C   LIG A   1      -9.135   5.661 132.523  0.00  0.00    +0.166 A 
ATOM     15  C   LIG A   1     -10.343   6.026 131.957  0.00  0.00    +0.208 A 
ATOM     16  O   LIG A   1     -11.274   6.874 132.475  0.00  0.00    -0.449 OA
ATOM     17  C   LIG A   1     -12.299   6.838 131.472  0.00  0.00    +0.467 C 
ATOM     18  O   LIG A   1     -11.959   6.009 130.347  0.00  0.00    -0.452 OA
ATOM     19  C   LIG A   1     -10.739   5.538 130.731  0.00  0.00    +0.171 A 
ATOM     20  C   LIG A   1      -9.961   4.666 129.999  0.00  0.00    +0.061 A 
BRANCH  14  21
ATOM     21  O   LIG A   1      -8.634   6.088 133.721  0.00  0.00    -0.491 OA
ATOM     22  C   LIG A   1      -7.302   5.673 134.018  0.00  0.00    +0.277 C 
ENDBRANCH  14  21
ENDBRANCH   7  12
BRANCH   1  24
ATOM     23  C   LIG A   1      -6.636   1.419 125.161  0.00  0.00    +0.277 C 
ATOM     24  O   LIG A   1      -5.933   0.580 126.063  0.00  0.00    -0.494 OA
ENDBRANCH   1  24
BRANCH   2  25
ATOM     25  C   LIG A   1      -6.786  -1.952 126.416  0.00  0.00    +0.014 C 
ATOM     26  C   LIG A   1      -7.800  -2.305 125.598  0.00  0.00    +0.007 C 
BRANCH  26  27
ATOM     27  C   LIG A   1      -7.710  -3.163 124.353  0.00  0.00    +0.079 C 
ATOM     28  C   LIG A   1      -6.314  -3.010 123.745  0.00  0.00    +0.045 C 
ATOM     29  C   LIG A   1      -8.780  -2.842 123.310  0.00  0.00    +0.045 C 
BRANCH  27  30
ATOM     30  O   LIG A   1      -7.893  -4.534 124.723  0.00  0.00    -0.385 OA
ATOM     31  H   LIG A   1      -7.602  -4.657 125.641  0.00  0.00    +0.211 HD
ENDBRANCH  27  30
ENDBRANCH  26  27
ENDBRANCH   2  25
BRANCH   3  32
ATOM     32  O   LIG A   1      -7.978  -2.553 129.173  0.00  0.00    -0.494 OA
ATOM     33  C   LIG A   1      -7.091  -3.260 130.033  0.00  0.00    +0.277 C 
ENDBRANCH   3  32
TORSDOF 7
ENDMDL
MODEL 8
REMARK VINA RESULT:      -6.9      8.450     11.514
REMARK  Name = NuBBE_1692
REMARK  12 active torsions:
REMARK  status: ('A' for Active; 'I' for Inactive)
REMARK    1  A    between atoms: C_1  and  O_2
REMARK    2  A    between atoms: O_2  and  C_3
REMARK    3  A    between atoms: C_4  and  C_5
REMARK    4  A    between atoms: C_6  and  C_7
REMARK    5  A    between atoms: C_7  and  C_8
REMARK    6  A    between atoms: C_7  and  O_9
REMARK    7  A    between atoms: C_7  and  C_10
REMARK    8  A    between atoms: C_11  and  O_12
REMARK    9  A    between atoms: O_12  and  C_13
REMARK   10  A    between atoms: C_17  and  C_18
REMARK   11  A    between atoms: C_20  and  O_21
REMARK   12  A    between atoms: O_21  and  C_22
REMARK                            x       y       z     vdW  Elec       q    Type
REMARK                         _______ _______ _______ _____ _____    ______ ____
ROOT
ATOM      1  C   LIG A   1      -6.228   5.658 130.887  0.00  0.00    +0.145 A 
ATOM      2  C   LIG A   1      -7.381   5.605 131.724  0.00  0.00    +0.059 A 
ATOM      3  C   LIG A   1      -7.221   5.655 133.135  0.00  0.00    +0.134 A 
ATOM      4  C   LIG A   1      -5.956   5.937 133.679  0.00  0.00    +0.093 A 
ATOM      5  C   LIG A   1      -4.848   6.076 132.847  0.00  0.00    +0.146 A 
ATOM      6  O   LIG A   1      -3.655   6.482 133.422  0.00  0.00    -0.454 OA
ATOM      7  C   LIG A   1      -2.686   6.969 132.550  0.00  0.00    +0.140 A 
ATOM      8  C   LIG A   1      -2.630   6.669 131.249  0.00  0.00    +0.098 A 
ATOM      9  C   LIG A   1      -4.959   5.824 131.477  0.00  0.00    +0.106 A 
ATOM     10  C   LIG A   1      -3.649   5.735 130.818  0.00  0.00    +0.197 A 
ATOM     11  O   LIG A   1      -3.321   4.825 130.032  0.00  0.00    -0.287 OA
ENDROOT
BRANCH   7  12
ATOM     12  C   LIG A   1      -1.631   7.785 133.166  0.00  0.00    +0.025 A 
ATOM     13  C   LIG A   1      -0.618   7.164 133.929  0.00  0.00    +0.061 A 
ATOM     14  C   LIG A   1       0.362   7.921 134.587  0.00  0.00    +0.166 A 
ATOM     15  C   LIG A   1       0.313   9.295 134.435  0.00  0.00    +0.208 A 
ATOM     16  O   LIG A   1       1.173  10.214 134.956  0.00  0.00    -0.449 OA
ATOM     17  C   LIG A   1       0.607  11.447 134.489  0.00  0.00    +0.467 C 
ATOM     18  O   LIG A   1      -0.553  11.259 133.661  0.00  0.00    -0.452 OA
ATOM     19  C   LIG A   1      -0.672   9.901 133.686  0.00  0.00    +0.171 A 
ATOM     20  C   LIG A   1      -1.659   9.181 133.046  0.00  0.00    +0.061 A 
BRANCH  14  21
ATOM     21  O   LIG A   1       1.293   7.212 135.292  0.00  0.00    -0.491 OA
ATOM     22  C   LIG A   1       1.026   7.055 136.685  0.00  0.00    +0.277 C 
ENDBRANCH  14  21
ENDBRANCH   7  12
BRANCH   1  24
ATOM     23  C   LIG A   1      -6.460   4.409 128.850  0.00  0.00    +0.277 C 
ATOM     24  O   LIG A   1      -6.508   5.648 129.537  0.00  0.00    -0.494 OA
ENDBRANCH   1  24
BRANCH   2  25
ATOM     25  C   LIG A   1      -8.717   5.532 131.078  0.00  0.00    +0.014 C 
ATOM     26  C   LIG A   1      -9.593   6.559 131.088  0.00  0.00    +0.007 C 
BRANCH  26  27
ATOM     27  C   LIG A   1     -10.900   6.649 130.328  0.00  0.00    +0.079 C 
ATOM     28  C   LIG A   1     -10.827   7.826 129.353  0.00  0.00    +0.045 C 
ATOM     29  C   LIG A   1     -12.126   6.783 131.231  0.00  0.00    +0.045 C 
BRANCH  27  30
ATOM     30  O   LIG A   1     -11.077   5.447 129.570  0.00  0.00    -0.385 OA
ATOM     31  H   LIG A   1     -11.474   5.668 128.712  0.00  0.00    +0.211 HD
ENDBRANCH  27  30
ENDBRANCH  26  27
ENDBRANCH   2  25
BRANCH   3  32
ATOM     32  O   LIG A   1      -8.199   5.507 134.097  0.00  0.00    -0.494 OA
ATOM     33  C   LIG A   1      -8.528   4.174 134.472  0.00  0.00    +0.277 C 
ENDBRANCH   3  32
TORSDOF 7
ENDMDL
MODEL 9
REMARK VINA RESULT:      -6.9      2.018      2.981
REMARK  Name = NuBBE_1692
REMARK  12 active torsions:
REMARK  status: ('A' for Active; 'I' for Inactive)
REMARK    1  A    between atoms: C_1  and  O_2
REMARK    2  A    between atoms: O_2  and  C_3
REMARK    3  A    between atoms: C_4  and  C_5
REMARK    4  A    between atoms: C_6  and  C_7
REMARK    5  A    between atoms: C_7  and  C_8
REMARK    6  A    between atoms: C_7  and  O_9
REMARK    7  A    between atoms: C_7  and  C_10
REMARK    8  A    between atoms: C_11  and  O_12
REMARK    9  A    between atoms: O_12  and  C_13
REMARK   10  A    between atoms: C_17  and  C_18
REMARK   11  A    between atoms: C_20  and  O_21
REMARK   12  A    between atoms: O_21  and  C_22
REMARK                            x       y       z     vdW  Elec       q    Type
REMARK                         _______ _______ _______ _____ _____    ______ ____
ROOT
ATOM      1  C   LIG A   1      -8.009  -0.564 126.856  0.00  0.00    +0.145 A 
ATOM      2  C   LIG A   1      -8.185   0.849 126.938  0.00  0.00    +0.059 A 
ATOM      3  C   LIG A   1      -8.331   1.461 128.212  0.00  0.00    +0.134 A 
ATOM      4  C   LIG A   1      -8.121   0.699 129.374  0.00  0.00    +0.093 A 
ATOM      5  C   LIG A   1      -7.862  -0.666 129.283  0.00  0.00    +0.146 A 
ATOM      6  O   LIG A   1      -7.535  -1.341 130.447  0.00  0.00    -0.454 OA
ATOM      7  C   LIG A   1      -6.926  -2.582 130.289  0.00  0.00    +0.140 A 
ATOM      8  C   LIG A   1      -7.041  -3.339 129.193  0.00  0.00    +0.098 A 
ATOM      9  C   LIG A   1      -7.921  -1.314 128.045  0.00  0.00    +0.106 A 
ATOM     10  C   LIG A   1      -7.911  -2.777 128.181  0.00  0.00    +0.197 A 
ATOM     11  O   LIG A   1      -8.701  -3.540 127.592  0.00  0.00    -0.287 OA
ENDROOT
BRANCH   7  12
ATOM     12  C   LIG A   1      -6.199  -3.086 131.461  0.00  0.00    +0.025 A 
ATOM     13  C   LIG A   1      -6.846  -3.152 132.715  0.00  0.00    +0.061 A 
ATOM     14  C   LIG A   1      -6.158  -3.562 133.866  0.00  0.00    +0.166 A 
ATOM     15  C   LIG A   1      -4.832  -3.926 133.719  0.00  0.00    +0.208 A 
ATOM     16  O   LIG A   1      -3.989  -4.380 134.688  0.00  0.00    -0.449 OA
ATOM     17  C   LIG A   1      -2.768  -4.562 133.957  0.00  0.00    +0.467 C 
ATOM     18  O   LIG A   1      -2.899  -4.262 132.556  0.00  0.00    -0.452 OA
ATOM     19  C   LIG A   1      -4.202  -3.869 132.495  0.00  0.00    +0.171 A 
ATOM     20  C   LIG A   1      -4.850  -3.449 131.352  0.00  0.00    +0.061 A 
BRANCH  14  21
ATOM     21  O   LIG A   1      -6.888  -3.590 135.021  0.00  0.00    -0.491 OA
ATOM     22  C   LIG A   1      -7.965  -4.526 135.050  0.00  0.00    +0.277 C 
ENDBRANCH  14  21
ENDBRANCH   7  12
BRANCH   1  24
ATOM     23  C   LIG A   1      -6.554  -1.538 125.213  0.00  0.00    +0.277 C 
ATOM     24  O   LIG A   1      -7.832  -1.039 125.574  0.00  0.00    -0.494 OA
ENDBRANCH   1  24
BRANCH   2  25
ATOM     25  C   LIG A   1      -8.172   1.633 125.676  0.00  0.00    +0.014 C 
ATOM     26  C   LIG A   1      -7.133   2.410 125.305  0.00  0.00    +0.007 C 
BRANCH  26  27
ATOM     27  C   LIG A   1      -6.950   3.114 123.976  0.00  0.00    +0.079 C 
ATOM     28  C   LIG A   1      -6.892   2.066 122.863  0.00  0.00    +0.045 C 
ATOM     29  C   LIG A   1      -5.714   4.012 123.924  0.00  0.00    +0.045 C 
BRANCH  27  30
ATOM     30  O   LIG A   1      -8.083   3.958 123.741  0.00  0.00    -0.385 OA
ATOM     31  H   LIG A   1      -7.884   4.853 124.062  0.00  0.00    +0.211 HD
ENDBRANCH  27  30
ENDBRANCH  26  27
ENDBRANCH   2  25
BRANCH   3  32
ATOM     32  O   LIG A   1      -8.616   2.784 128.480  0.00  0.00    -0.494 OA
ATOM     33  C   LIG A   1      -7.537   3.587 128.946  0.00  0.00    +0.277 C 
ENDBRANCH   3  32
TORSDOF 7
ENDMDL
