MODEL 1
REMARK VINA RESULT:      -7.5      0.000      0.000
REMARK  Name = NuBBE_2384
REMARK  9 active torsions:
REMARK  status: ('A' for Active; 'I' for Inactive)
REMARK    1  A    between atoms: C_1  and  C_22
REMARK    2  A    between atoms: C_1  and  C_23
REMARK    3  A    between atoms: C_5  and  O_17
REMARK    4  A    between atoms: C_6  and  O_7
REMARK    5  A    between atoms: O_7  and  C_8
REMARK    6  A    between atoms: C_9  and  C_14
REMARK    7  A    between atoms: C_14  and  C_15
REMARK    8  A    between atoms: C_14  and  C_16
REMARK    9  A    between atoms: O_17  and  C_18
REMARK                            x       y       z     vdW  Elec       q    Type
REMARK                         _______ _______ _______ _____ _____    ______ ____
ROOT
ATOM      1  C   LIG A   1      -8.449  -2.368 124.262  0.00  0.00    -0.032 C 
ATOM      2  C   LIG A   1      -8.062  -2.868 125.698  0.00  0.00    +0.003 C 
ATOM      3  C   LIG A   1      -7.207  -1.820 126.476  0.00  0.00    +0.027 C 
ATOM      4  C   LIG A   1      -6.886  -2.259 127.905  0.00  0.00    +0.004 A 
ATOM      5  C   LIG A   1      -5.805  -1.694 128.619  0.00  0.00    +0.165 A 
ATOM      6  C   LIG A   1      -5.575  -2.020 129.974  0.00  0.00    +0.165 A 
ATOM      7  C   LIG A   1      -6.418  -2.911 130.655  0.00  0.00    +0.001 A 
ATOM      8  C   LIG A   1      -7.452  -3.517 129.918  0.00  0.00    +0.011 A 
ATOM      9  C   LIG A   1      -7.701  -3.189 128.568  0.00  0.00    -0.040 A 
ATOM     10  C   LIG A   1      -8.838  -3.897 127.877  0.00  0.00    +0.036 C 
ATOM     11  C   LIG A   1      -9.277  -3.262 126.561  0.00  0.00    +0.009 C 
ATOM     12  C   LIG A   1      -7.885  -0.432 126.488  0.00  0.00    +0.008 C 
ATOM     13  C   LIG A   1      -8.285   0.051 125.096  0.00  0.00    +0.001 C 
ATOM     14  C   LIG A   1      -9.116  -0.976 124.334  0.00  0.00    +0.007 C 
ATOM     15  C   LIG A   1      -7.188  -2.299 123.368  0.00  0.00    +0.011 C 
ATOM     16  C   LIG A   1      -9.423  -3.340 123.560  0.00  0.00    +0.011 C 
ENDROOT
BRANCH   7  17
ATOM     17  C   LIG A   1      -6.284  -3.183 132.150  0.00  0.00    +0.017 C 
ATOM     18  C   LIG A   1      -7.628  -3.030 132.877  0.00  0.00    +0.012 C 
ATOM     19  C   LIG A   1      -5.686  -4.562 132.449  0.00  0.00    +0.012 C 
ENDBRANCH   7  17
BRANCH   6  20
ATOM     20  O   LIG A   1      -4.586  -1.359 130.664  0.00  0.00    -0.491 OA
ATOM     21  C   LIG A   1      -3.329  -2.024 130.538  0.00  0.00    +0.277 C 
ENDBRANCH   6  20
BRANCH   5  22
ATOM     22  O   LIG A   1      -5.045  -0.718 128.023  0.00  0.00    -0.491 OA
ATOM     23  C   LIG A   1      -5.350   0.579 128.534  0.00  0.00    +0.277 C 
ENDBRANCH   5  22
TORSDOF 3
ENDMDL
MODEL 2
REMARK VINA RESULT:      -7.3      1.587      6.260
REMARK  Name = NuBBE_2384
REMARK  9 active torsions:
REMARK  status: ('A' for Active; 'I' for Inactive)
REMARK    1  A    between atoms: C_1  and  C_22
REMARK    2  A    between atoms: C_1  and  C_23
REMARK    3  A    between atoms: C_5  and  O_17
REMARK    4  A    between atoms: C_6  and  O_7
REMARK    5  A    between atoms: O_7  and  C_8
REMARK    6  A    between atoms: C_9  and  C_14
REMARK    7  A    between atoms: C_14  and  C_15
REMARK    8  A    between atoms: C_14  and  C_16
REMARK    9  A    between atoms: O_17  and  C_18
REMARK                            x       y       z     vdW  Elec       q    Type
REMARK                         _______ _______ _______ _____ _____    ______ ____
ROOT
ATOM      1  C   LIG A   1      -6.125  -2.465 130.982  0.00  0.00    -0.032 C 
ATOM      2  C   LIG A   1      -6.958  -2.350 129.657  0.00  0.00    +0.003 C 
ATOM      3  C   LIG A   1      -6.074  -1.932 128.441  0.00  0.00    +0.027 C 
ATOM      4  C   LIG A   1      -6.855  -1.889 127.127  0.00  0.00    +0.004 A 
ATOM      5  C   LIG A   1      -6.386  -1.146 126.020  0.00  0.00    +0.165 A 
ATOM      6  C   LIG A   1      -7.049  -1.193 124.774  0.00  0.00    +0.165 A 
ATOM      7  C   LIG A   1      -8.193  -1.986 124.595  0.00  0.00    +0.001 A 
ATOM      8  C   LIG A   1      -8.689  -2.671 125.720  0.00  0.00    +0.011 A 
ATOM      9  C   LIG A   1      -8.028  -2.642 126.967  0.00  0.00    -0.040 A 
ATOM     10  C   LIG A   1      -8.646  -3.417 128.102  0.00  0.00    +0.036 C 
ATOM     11  C   LIG A   1      -7.726  -3.637 129.297  0.00  0.00    +0.009 C 
ATOM     12  C   LIG A   1      -4.841  -2.849 128.295  0.00  0.00    +0.008 C 
ATOM     13  C   LIG A   1      -4.038  -2.985 129.586  0.00  0.00    +0.001 C 
ATOM     14  C   LIG A   1      -4.903  -3.388 130.775  0.00  0.00    +0.007 C 
ATOM     15  C   LIG A   1      -5.652  -1.063 131.434  0.00  0.00    +0.011 C 
ATOM     16  C   LIG A   1      -6.973  -3.030 132.144  0.00  0.00    +0.011 C 
ENDROOT
BRANCH   7  17
ATOM     17  C   LIG A   1      -8.857  -2.170 123.234  0.00  0.00    +0.017 C 
ATOM     18  C   LIG A   1      -9.709  -3.446 123.187  0.00  0.00    +0.012 C 
ATOM     19  C   LIG A   1      -9.704  -0.963 122.821  0.00  0.00    +0.012 C 
ENDBRANCH   7  17
BRANCH   6  20
ATOM     20  O   LIG A   1      -6.493  -0.550 123.693  0.00  0.00    -0.491 OA
ATOM     21  C   LIG A   1      -6.968   0.791 123.583  0.00  0.00    +0.277 C 
ENDBRANCH   6  20
BRANCH   5  22
ATOM     22  O   LIG A   1      -5.195  -0.469 126.123  0.00  0.00    -0.491 OA
ATOM     23  C   LIG A   1      -5.370   0.831 126.685  0.00  0.00    +0.277 C 
ENDBRANCH   5  22
TORSDOF 3
ENDMDL
MODEL 3
REMARK VINA RESULT:      -7.0      2.928      4.080
REMARK  Name = NuBBE_2384
REMARK  9 active torsions:
REMARK  status: ('A' for Active; 'I' for Inactive)
REMARK    1  A    between atoms: C_1  and  C_22
REMARK    2  A    between atoms: C_1  and  C_23
REMARK    3  A    between atoms: C_5  and  O_17
REMARK    4  A    between atoms: C_6  and  O_7
REMARK    5  A    between atoms: O_7  and  C_8
REMARK    6  A    between atoms: C_9  and  C_14
REMARK    7  A    between atoms: C_14  and  C_15
REMARK    8  A    between atoms: C_14  and  C_16
REMARK    9  A    between atoms: O_17  and  C_18
REMARK                            x       y       z     vdW  Elec       q    Type
REMARK                         _______ _______ _______ _____ _____    ______ ____
ROOT
ATOM      1  C   LIG A   1      -6.543  -2.523 124.182  0.00  0.00    -0.032 C 
ATOM      2  C   LIG A   1      -6.473  -1.768 125.556  0.00  0.00    +0.003 C 
ATOM      3  C   LIG A   1      -7.679  -0.799 125.758  0.00  0.00    +0.027 C 
ATOM      4  C   LIG A   1      -7.667  -0.113 127.124  0.00  0.00    +0.004 A 
ATOM      5  C   LIG A   1      -8.386   1.083 127.350  0.00  0.00    +0.165 A 
ATOM      6  C   LIG A   1      -8.462   1.657 128.638  0.00  0.00    +0.165 A 
ATOM      7  C   LIG A   1      -7.831   1.054 129.736  0.00  0.00    +0.001 A 
ATOM      8  C   LIG A   1      -7.065  -0.100 129.489  0.00  0.00    +0.011 A 
ATOM      9  C   LIG A   1      -6.991  -0.691 128.209  0.00  0.00    -0.040 A 
ATOM     10  C   LIG A   1      -6.144  -1.929 128.060  0.00  0.00    +0.036 C 
ATOM     11  C   LIG A   1      -6.379  -2.710 126.772  0.00  0.00    +0.009 C 
ATOM     12  C   LIG A   1      -9.027  -1.519 125.539  0.00  0.00    +0.008 C 
ATOM     13  C   LIG A   1      -9.095  -2.275 124.215  0.00  0.00    +0.001 C 
ATOM     14  C   LIG A   1      -7.913  -3.218 124.015  0.00  0.00    +0.007 C 
ATOM     15  C   LIG A   1      -6.316  -1.527 123.019  0.00  0.00    +0.011 C 
ATOM     16  C   LIG A   1      -5.435  -3.592 124.058  0.00  0.00    +0.011 C 
ENDROOT
BRANCH   7  17
ATOM     17  C   LIG A   1      -8.003   1.567 131.162  0.00  0.00    +0.017 C 
ATOM     18  C   LIG A   1      -9.208   0.919 131.857  0.00  0.00    +0.012 C 
ATOM     19  C   LIG A   1      -6.745   1.373 132.015  0.00  0.00    +0.012 C 
ENDBRANCH   7  17
BRANCH   6  20
ATOM     20  O   LIG A   1      -9.269   2.753 128.836  0.00  0.00    -0.491 OA
ATOM     21  C   LIG A   1      -8.506   3.956 128.910  0.00  0.00    +0.277 C 
ENDBRANCH   6  20
BRANCH   5  22
ATOM     22  O   LIG A   1      -9.127   1.623 126.327  0.00  0.00    -0.491 OA
ATOM     23  C   LIG A   1      -8.348   2.499 125.513  0.00  0.00    +0.277 C 
ENDBRANCH   5  22
TORSDOF 3
ENDMDL
MODEL 4
REMARK VINA RESULT:      -7.0      2.518      4.331
REMARK  Name = NuBBE_2384
REMARK  9 active torsions:
REMARK  status: ('A' for Active; 'I' for Inactive)
REMARK    1  A    between atoms: C_1  and  C_22
REMARK    2  A    between atoms: C_1  and  C_23
REMARK    3  A    between atoms: C_5  and  O_17
REMARK    4  A    between atoms: C_6  and  O_7
REMARK    5  A    between atoms: O_7  and  C_8
REMARK    6  A    between atoms: C_9  and  C_14
REMARK    7  A    between atoms: C_14  and  C_15
REMARK    8  A    between atoms: C_14  and  C_16
REMARK    9  A    between atoms: O_17  and  C_18
REMARK                            x       y       z     vdW  Elec       q    Type
REMARK                         _______ _______ _______ _____ _____    ______ ____
ROOT
ATOM      1  C   LIG A   1      -7.893  -2.618 124.182  0.00  0.00    -0.032 C 
ATOM      2  C   LIG A   1      -8.330  -1.534 125.229  0.00  0.00    +0.003 C 
ATOM      3  C   LIG A   1      -7.489  -1.609 126.541  0.00  0.00    +0.027 C 
ATOM      4  C   LIG A   1      -7.851  -0.511 127.542  0.00  0.00    +0.004 A 
ATOM      5  C   LIG A   1      -7.542  -0.640 128.914  0.00  0.00    +0.165 A 
ATOM      6  C   LIG A   1      -7.778   0.419 129.819  0.00  0.00    +0.165 A 
ATOM      7  C   LIG A   1      -8.321   1.636 129.380  0.00  0.00    +0.001 A 
ATOM      8  C   LIG A   1      -8.685   1.731 128.024  0.00  0.00    +0.011 A 
ATOM      9  C   LIG A   1      -8.443   0.685 127.108  0.00  0.00    -0.040 A 
ATOM     10  C   LIG A   1      -8.870   0.898 125.678  0.00  0.00    +0.036 C 
ATOM     11  C   LIG A   1      -8.277  -0.094 124.683  0.00  0.00    +0.009 C 
ATOM     12  C   LIG A   1      -5.974  -1.579 126.246  0.00  0.00    +0.008 C 
ATOM     13  C   LIG A   1      -5.544  -2.615 125.211  0.00  0.00    +0.001 C 
ATOM     14  C   LIG A   1      -6.370  -2.546 123.931  0.00  0.00    +0.007 C 
ATOM     15  C   LIG A   1      -8.273  -4.029 124.692  0.00  0.00    +0.011 C 
ATOM     16  C   LIG A   1      -8.620  -2.437 122.831  0.00  0.00    +0.011 C 
ENDROOT
BRANCH   7  17
ATOM     17  C   LIG A   1      -8.464   2.846 130.297  0.00  0.00    +0.017 C 
ATOM     18  C   LIG A   1      -7.805   4.095 129.695  0.00  0.00    +0.012 C 
ATOM     19  C   LIG A   1      -9.923   3.150 130.653  0.00  0.00    +0.012 C 
ENDBRANCH   7  17
BRANCH   6  20
ATOM     20  O   LIG A   1      -7.353   0.295 131.121  0.00  0.00    -0.491 OA
ATOM     21  C   LIG A   1      -8.411  -0.137 131.976  0.00  0.00    +0.277 C 
ENDBRANCH   6  20
BRANCH   5  22
ATOM     22  O   LIG A   1      -6.884  -1.764 129.351  0.00  0.00    -0.491 OA
ATOM     23  C   LIG A   1      -7.790  -2.820 129.667  0.00  0.00    +0.277 C 
ENDBRANCH   5  22
TORSDOF 3
ENDMDL
MODEL 5
REMARK VINA RESULT:      -6.8      3.869      5.515
REMARK  Name = NuBBE_2384
REMARK  9 active torsions:
REMARK  status: ('A' for Active; 'I' for Inactive)
REMARK    1  A    between atoms: C_1  and  C_22
REMARK    2  A    between atoms: C_1  and  C_23
REMARK    3  A    between atoms: C_5  and  O_17
REMARK    4  A    between atoms: C_6  and  O_7
REMARK    5  A    between atoms: O_7  and  C_8
REMARK    6  A    between atoms: C_9  and  C_14
REMARK    7  A    between atoms: C_14  and  C_15
REMARK    8  A    between atoms: C_14  and  C_16
REMARK    9  A    between atoms: O_17  and  C_18
REMARK                            x       y       z     vdW  Elec       q    Type
REMARK                         _______ _______ _______ _____ _____    ______ ____
ROOT
ATOM      1  C   LIG A   1      -6.105  -2.721 123.792  0.00  0.00    -0.032 C 
ATOM      2  C   LIG A   1      -5.951  -1.489 124.752  0.00  0.00    +0.003 C 
ATOM      3  C   LIG A   1      -7.168  -0.517 124.661  0.00  0.00    +0.027 C 
ATOM      4  C   LIG A   1      -7.071   0.650 125.645  0.00  0.00    +0.004 A 
ATOM      5  C   LIG A   1      -7.808   1.839 125.446  0.00  0.00    +0.165 A 
ATOM      6  C   LIG A   1      -7.802   2.872 126.409  0.00  0.00    +0.165 A 
ATOM      7  C   LIG A   1      -7.067   2.746 127.598  0.00  0.00    +0.001 A 
ATOM      8  C   LIG A   1      -6.286   1.587 127.757  0.00  0.00    +0.011 A 
ATOM      9  C   LIG A   1      -6.294   0.541 126.808  0.00  0.00    -0.040 A 
ATOM     10  C   LIG A   1      -5.421  -0.656 127.082  0.00  0.00    +0.036 C 
ATOM     11  C   LIG A   1      -5.732  -1.879 126.226  0.00  0.00    +0.009 C 
ATOM     12  C   LIG A   1      -8.506  -1.264 124.856  0.00  0.00    +0.008 C 
ATOM     13  C   LIG A   1      -8.653  -2.478 123.942  0.00  0.00    +0.001 C 
ATOM     14  C   LIG A   1      -7.460  -3.425 124.027  0.00  0.00    +0.007 C 
ATOM     15  C   LIG A   1      -6.001  -2.261 122.319  0.00  0.00    +0.011 C 
ATOM     16  C   LIG A   1      -4.975  -3.755 124.002  0.00  0.00    +0.011 C 
ENDROOT
BRANCH   7  17
ATOM     17  C   LIG A   1      -7.142   3.777 128.720  0.00  0.00    +0.017 C 
ATOM     18  C   LIG A   1      -8.201   3.401 129.765  0.00  0.00    +0.012 C 
ATOM     19  C   LIG A   1      -5.791   4.003 129.406  0.00  0.00    +0.012 C 
ENDBRANCH   7  17
BRANCH   6  20
ATOM     20  O   LIG A   1      -8.625   3.959 126.232  0.00  0.00    -0.491 OA
ATOM     21  C   LIG A   1      -7.923   5.056 125.649  0.00  0.00    +0.277 C 
ENDBRANCH   6  20
BRANCH   5  22
ATOM     22  O   LIG A   1      -8.644   1.936 124.360  0.00  0.00    -0.491 OA
ATOM     23  C   LIG A   1      -7.969   2.456 123.216  0.00  0.00    +0.277 C 
ENDBRANCH   5  22
TORSDOF 3
ENDMDL
MODEL 6
REMARK VINA RESULT:      -6.8      2.295      6.945
REMARK  Name = NuBBE_2384
REMARK  9 active torsions:
REMARK  status: ('A' for Active; 'I' for Inactive)
REMARK    1  A    between atoms: C_1  and  C_22
REMARK    2  A    between atoms: C_1  and  C_23
REMARK    3  A    between atoms: C_5  and  O_17
REMARK    4  A    between atoms: C_6  and  O_7
REMARK    5  A    between atoms: O_7  and  C_8
REMARK    6  A    between atoms: C_9  and  C_14
REMARK    7  A    between atoms: C_14  and  C_15
REMARK    8  A    between atoms: C_14  and  C_16
REMARK    9  A    between atoms: O_17  and  C_18
REMARK                            x       y       z     vdW  Elec       q    Type
REMARK                         _______ _______ _______ _____ _____    ______ ____
ROOT
ATOM      1  C   LIG A   1      -4.646  -2.432 129.692  0.00  0.00    -0.032 C 
ATOM      2  C   LIG A   1      -4.881  -1.449 128.491  0.00  0.00    +0.003 C 
ATOM      3  C   LIG A   1      -5.856  -2.042 127.427  0.00  0.00    +0.027 C 
ATOM      4  C   LIG A   1      -6.156  -1.067 126.288  0.00  0.00    +0.004 A 
ATOM      5  C   LIG A   1      -6.645  -1.523 125.043  0.00  0.00    +0.165 A 
ATOM      6  C   LIG A   1      -7.023  -0.615 124.030  0.00  0.00    +0.165 A 
ATOM      7  C   LIG A   1      -6.932   0.770 124.231  0.00  0.00    +0.001 A 
ATOM      8  C   LIG A   1      -6.385   1.213 125.450  0.00  0.00    +0.011 A 
ATOM      9  C   LIG A   1      -6.015   0.316 126.475  0.00  0.00    -0.040 A 
ATOM     10  C   LIG A   1      -5.443   0.901 127.741  0.00  0.00    +0.036 C 
ATOM     11  C   LIG A   1      -5.394  -0.062 128.922  0.00  0.00    +0.009 C 
ATOM     12  C   LIG A   1      -7.174  -2.524 128.073  0.00  0.00    +0.008 C 
ATOM     13  C   LIG A   1      -6.953  -3.462 129.256  0.00  0.00    +0.001 C 
ATOM     14  C   LIG A   1      -5.995  -2.885 130.293  0.00  0.00    +0.007 C 
ATOM     15  C   LIG A   1      -3.844  -3.667 129.216  0.00  0.00    +0.011 C 
ATOM     16  C   LIG A   1      -3.807  -1.778 130.812  0.00  0.00    +0.011 C 
ENDROOT
BRANCH   7  17
ATOM     17  C   LIG A   1      -7.457   1.782 123.217  0.00  0.00    +0.017 C 
ATOM     18  C   LIG A   1      -8.847   2.306 123.606  0.00  0.00    +0.012 C 
ATOM     19  C   LIG A   1      -6.499   2.957 123.004  0.00  0.00    +0.012 C 
ENDBRANCH   7  17
BRANCH   6  20
ATOM     20  O   LIG A   1      -7.604  -1.097 122.880  0.00  0.00    -0.491 OA
ATOM     21  C   LIG A   1      -8.992  -1.368 123.071  0.00  0.00    +0.277 C 
ENDBRANCH   6  20
BRANCH   5  22
ATOM     22  O   LIG A   1      -6.874  -2.866 124.864  0.00  0.00    -0.491 OA
ATOM     23  C   LIG A   1      -5.802  -3.499 124.168  0.00  0.00    +0.277 C 
ENDBRANCH   5  22
TORSDOF 3
ENDMDL
MODEL 7
REMARK VINA RESULT:      -6.7      3.922      6.028
REMARK  Name = NuBBE_2384
REMARK  9 active torsions:
REMARK  status: ('A' for Active; 'I' for Inactive)
REMARK    1  A    between atoms: C_1  and  C_22
REMARK    2  A    between atoms: C_1  and  C_23
REMARK    3  A    between atoms: C_5  and  O_17
REMARK    4  A    between atoms: C_6  and  O_7
REMARK    5  A    between atoms: O_7  and  C_8
REMARK    6  A    between atoms: C_9  and  C_14
REMARK    7  A    between atoms: C_14  and  C_15
REMARK    8  A    between atoms: C_14  and  C_16
REMARK    9  A    between atoms: O_17  and  C_18
REMARK                            x       y       z     vdW  Elec       q    Type
REMARK                         _______ _______ _______ _____ _____    ______ ____
ROOT
ATOM      1  C   LIG A   1      -8.336  -2.408 124.682  0.00  0.00    -0.032 C 
ATOM      2  C   LIG A   1      -7.143  -1.428 124.964  0.00  0.00    +0.003 C 
ATOM      3  C   LIG A   1      -7.559   0.067 124.801  0.00  0.00    +0.027 C 
ATOM      4  C   LIG A   1      -6.429   1.038 125.146  0.00  0.00    +0.004 A 
ATOM      5  C   LIG A   1      -6.438   2.370 124.672  0.00  0.00    +0.165 A 
ATOM      6  C   LIG A   1      -5.452   3.296 125.079  0.00  0.00    +0.165 A 
ATOM      7  C   LIG A   1      -4.436   2.924 125.972  0.00  0.00    +0.001 A 
ATOM      8  C   LIG A   1      -4.399   1.580 126.387  0.00  0.00    +0.011 A 
ATOM      9  C   LIG A   1      -5.386   0.648 125.999  0.00  0.00    -0.040 A 
ATOM     10  C   LIG A   1      -5.249  -0.765 126.506  0.00  0.00    +0.036 C 
ATOM     11  C   LIG A   1      -6.502  -1.620 126.352  0.00  0.00    +0.009 C 
ATOM     12  C   LIG A   1      -8.816   0.400 125.633  0.00  0.00    +0.008 C 
ATOM     13  C   LIG A   1      -9.973  -0.563 125.382  0.00  0.00    +0.001 C 
ATOM     14  C   LIG A   1      -9.565  -2.025 125.535  0.00  0.00    +0.007 C 
ATOM     15  C   LIG A   1      -8.708  -2.370 123.180  0.00  0.00    +0.011 C 
ATOM     16  C   LIG A   1      -7.960  -3.873 124.997  0.00  0.00    +0.011 C 
ENDROOT
BRANCH   7  17
ATOM     17  C   LIG A   1      -3.437   3.927 126.540  0.00  0.00    +0.017 C 
ATOM     18  C   LIG A   1      -3.802   4.343 127.972  0.00  0.00    +0.012 C 
ATOM     19  C   LIG A   1      -1.995   3.412 126.500  0.00  0.00    +0.012 C 
ENDBRANCH   7  17
BRANCH   6  20
ATOM     20  O   LIG A   1      -5.565   4.610 124.689  0.00  0.00    -0.491 OA
ATOM     21  C   LIG A   1      -6.546   5.301 125.462  0.00  0.00    +0.277 C 
ENDBRANCH   6  20
BRANCH   5  22
ATOM     22  O   LIG A   1      -7.493   2.803 123.906  0.00  0.00    -0.491 OA
ATOM     23  C   LIG A   1      -7.178   2.794 122.515  0.00  0.00    +0.277 C 
ENDBRANCH   5  22
TORSDOF 3
ENDMDL
MODEL 8
REMARK VINA RESULT:      -6.5      2.615      6.495
REMARK  Name = NuBBE_2384
REMARK  9 active torsions:
REMARK  status: ('A' for Active; 'I' for Inactive)
REMARK    1  A    between atoms: C_1  and  C_22
REMARK    2  A    between atoms: C_1  and  C_23
REMARK    3  A    between atoms: C_5  and  O_17
REMARK    4  A    between atoms: C_6  and  O_7
REMARK    5  A    between atoms: O_7  and  C_8
REMARK    6  A    between atoms: C_9  and  C_14
REMARK    7  A    between atoms: C_14  and  C_15
REMARK    8  A    between atoms: C_14  and  C_16
REMARK    9  A    between atoms: O_17  and  C_18
REMARK                            x       y       z     vdW  Elec       q    Type
REMARK                         _______ _______ _______ _____ _____    ______ ____
ROOT
ATOM      1  C   LIG A   1      -6.293   2.508 129.850  0.00  0.00    -0.032 C 
ATOM      2  C   LIG A   1      -5.885   1.502 128.716  0.00  0.00    +0.003 C 
ATOM      3  C   LIG A   1      -7.038   0.510 128.367  0.00  0.00    +0.027 C 
ATOM      4  C   LIG A   1      -6.684  -0.428 127.212  0.00  0.00    +0.004 A 
ATOM      5  C   LIG A   1      -7.374  -1.646 127.020  0.00  0.00    +0.165 A 
ATOM      6  C   LIG A   1      -7.121  -2.459 125.893  0.00  0.00    +0.165 A 
ATOM      7  C   LIG A   1      -6.180  -2.078 124.924  0.00  0.00    +0.001 A 
ATOM      8  C   LIG A   1      -5.453  -0.896 125.158  0.00  0.00    +0.011 A 
ATOM      9  C   LIG A   1      -5.705  -0.068 126.273  0.00  0.00    -0.040 A 
ATOM     10  C   LIG A   1      -4.869   1.176 126.422  0.00  0.00    +0.036 C 
ATOM     11  C   LIG A   1      -5.410   2.191 127.422  0.00  0.00    +0.009 C 
ATOM     12  C   LIG A   1      -8.354   1.256 128.060  0.00  0.00    +0.008 C 
ATOM     13  C   LIG A   1      -8.746   2.253 129.147  0.00  0.00    +0.001 C 
ATOM     14  C   LIG A   1      -7.618   3.219 129.492  0.00  0.00    +0.007 C 
ATOM     15  C   LIG A   1      -6.448   1.756 131.193  0.00  0.00    +0.011 C 
ATOM     16  C   LIG A   1      -5.208   3.583 130.079  0.00  0.00    +0.011 C 
ENDROOT
BRANCH   7  17
ATOM     17  C   LIG A   1      -5.977  -2.857 123.629  0.00  0.00    +0.017 C 
ATOM     18  C   LIG A   1      -6.205  -1.974 122.394  0.00  0.00    +0.012 C 
ATOM     19  C   LIG A   1      -4.598  -3.520 123.547  0.00  0.00    +0.012 C 
ENDBRANCH   7  17
BRANCH   6  20
ATOM     20  O   LIG A   1      -7.898  -3.574 125.683  0.00  0.00    -0.491 OA
ATOM     21  C   LIG A   1      -9.089  -3.253 124.966  0.00  0.00    +0.277 C 
ENDBRANCH   6  20
BRANCH   5  22
ATOM     22  O   LIG A   1      -8.396  -1.980 127.875  0.00  0.00    -0.491 OA
ATOM     23  C   LIG A   1      -7.962  -2.877 128.896  0.00  0.00    +0.277 C 
ENDBRANCH   5  22
TORSDOF 3
ENDMDL
MODEL 9
REMARK VINA RESULT:      -6.3      4.744      6.770
REMARK  Name = NuBBE_2384
REMARK  9 active torsions:
REMARK  status: ('A' for Active; 'I' for Inactive)
REMARK    1  A    between atoms: C_1  and  C_22
REMARK    2  A    between atoms: C_1  and  C_23
REMARK    3  A    between atoms: C_5  and  O_17
REMARK    4  A    between atoms: C_6  and  O_7
REMARK    5  A    between atoms: O_7  and  C_8
REMARK    6  A    between atoms: C_9  and  C_14
REMARK    7  A    between atoms: C_14  and  C_15
REMARK    8  A    between atoms: C_14  and  C_16
REMARK    9  A    between atoms: O_17  and  C_18
REMARK                            x       y       z     vdW  Elec       q    Type
REMARK                         _______ _______ _______ _____ _____    ______ ____
ROOT
ATOM      1  C   LIG A   1      -9.781   5.687 131.182  0.00  0.00    -0.032 C 
ATOM      2  C   LIG A   1      -9.674   4.125 131.079  0.00  0.00    +0.003 C 
ATOM      3  C   LIG A   1      -8.525   3.676 130.124  0.00  0.00    +0.027 C 
ATOM      4  C   LIG A   1      -8.358   2.157 130.071  0.00  0.00    +0.004 A 
ATOM      5  C   LIG A   1      -7.699   1.530 128.989  0.00  0.00    +0.165 A 
ATOM      6  C   LIG A   1      -7.450   0.139 128.992  0.00  0.00    +0.165 A 
ATOM      7  C   LIG A   1      -7.842  -0.662 130.075  0.00  0.00    +0.001 A 
ATOM      8  C   LIG A   1      -8.553  -0.039 131.118  0.00  0.00    +0.011 A 
ATOM      9  C   LIG A   1      -8.797   1.351 131.133  0.00  0.00    -0.040 A 
ATOM     10  C   LIG A   1      -9.565   1.912 132.302  0.00  0.00    +0.036 C 
ATOM     11  C   LIG A   1      -9.493   3.429 132.442  0.00  0.00    +0.009 C 
ATOM     12  C   LIG A   1      -7.184   4.344 130.498  0.00  0.00    +0.008 C 
ATOM     13  C   LIG A   1      -7.285   5.862 130.623  0.00  0.00    +0.001 C 
ATOM     14  C   LIG A   1      -8.412   6.301 131.551  0.00  0.00    +0.007 C 
ATOM     15  C   LIG A   1     -10.273   6.274 129.837  0.00  0.00    +0.011 C 
ATOM     16  C   LIG A   1     -10.814   6.122 132.246  0.00  0.00    +0.011 C 
ENDROOT
BRANCH   7  17
ATOM     17  C   LIG A   1      -7.471  -2.138 130.178  0.00  0.00    +0.017 C 
ATOM     18  C   LIG A   1      -7.475  -2.623 131.634  0.00  0.00    +0.012 C 
ATOM     19  C   LIG A   1      -8.375  -3.036 129.328  0.00  0.00    +0.012 C 
ENDBRANCH   7  17
BRANCH   6  20
ATOM     20  O   LIG A   1      -6.703  -0.410 127.977  0.00  0.00    -0.491 OA
ATOM     21  C   LIG A   1      -5.309  -0.388 128.283  0.00  0.00    +0.277 C 
ENDBRANCH   6  20
BRANCH   5  22
ATOM     22  O   LIG A   1      -7.183   2.304 127.979  0.00  0.00    -0.491 OA
ATOM     23  C   LIG A   1      -8.035   2.322 126.835  0.00  0.00    +0.277 C 
ENDBRANCH   5  22
TORSDOF 3
ENDMDL
