MODEL 1
REMARK VINA RESULT:      -4.6      0.000      0.000
REMARK  Name = NuBBE_210
REMARK  11 active torsions:
REMARK  status: ('A' for Active; 'I' for Inactive)
REMARK    1  A    between atoms: O_1  and  C_2
REMARK    2  A    between atoms: C_2  and  C_3
REMARK    3  A    between atoms: C_3  and  O_5
REMARK    4  A    between atoms: C_3  and  C_6
REMARK    5  A    between atoms: C_6  and  C_8
REMARK    6  A    between atoms: C_6  and  O_16
REMARK    7  A    between atoms: C_8  and  O_10
REMARK    8  A    between atoms: C_8  and  C_11
REMARK    9  A    between atoms: C_11  and  O_13
REMARK   10  A    between atoms: C_11  and  C_14
REMARK   11  A    between atoms: C_14  and  O_15
REMARK                            x       y       z     vdW  Elec       q    Type
REMARK                         _______ _______ _______ _____ _____    ______ ____
ROOT
ATOM      1  C   LIG A   1     -10.612   7.085 130.444  0.00  0.00    +0.176 C 
ENDROOT
BRANCH   1   2
ATOM      2  O   LIG A   1      -9.212   7.142 130.126  0.00  0.00    -0.387 OA
ATOM      3  H   LIG A   1      -8.760   6.962 130.988  0.00  0.00    +0.210 HD
ENDBRANCH   1   2
BRANCH   1   4
ATOM      4  C   LIG A   1     -10.868   5.784 131.219  0.00  0.00    +0.171 C 
BRANCH   4   5
ATOM      5  O   LIG A   1     -12.087   6.002 131.972  0.00  0.00    -0.387 OA
ATOM      6  H   LIG A   1     -12.324   6.934 131.802  0.00  0.00    +0.210 HD
ENDBRANCH   4   5
BRANCH   4   7
ATOM      7  C   LIG A   1      -9.776   5.416 132.234  0.00  0.00    +0.190 C 
BRANCH   7   8
ATOM      8  O   LIG A   1      -9.747   6.423 133.253  0.00  0.00    -0.392 OA
ATOM      9  H   LIG A   1      -9.107   7.093 132.947  0.00  0.00    +0.209 HD
ENDBRANCH   7   8
ENDBRANCH   4   7
ENDBRANCH   1   4
BRANCH   1  10
ATOM     10  C   LIG A   1     -11.452   7.243 129.167  0.00  0.00    +0.176 C 
BRANCH  10  11
ATOM     11  O   LIG A   1     -12.153   6.007 128.883  0.00  0.00    -0.387 OA
ATOM     12  H   LIG A   1     -11.451   5.405 128.562  0.00  0.00    +0.210 HD
ENDBRANCH  10  11
BRANCH  10  13
ATOM     13  C   LIG A   1     -10.625   7.658 127.925  0.00  0.00    +0.171 C 
BRANCH  13  14
ATOM     14  O   LIG A   1     -10.070   8.960 128.187  0.00  0.00    -0.387 OA
ATOM     15  H   LIG A   1     -10.458   9.219 129.050  0.00  0.00    +0.210 HD
ENDBRANCH  13  14
BRANCH  13  16
ATOM     16  C   LIG A   1     -11.403   7.738 126.603  0.00  0.00    +0.190 C 
BRANCH  16  17
ATOM     17  O   LIG A   1     -11.855   6.440 126.214  0.00  0.00    -0.392 OA
ATOM     18  H   LIG A   1     -12.626   6.241 126.783  0.00  0.00    +0.209 HD
ENDBRANCH  16  17
ENDBRANCH  13  16
ENDBRANCH  10  13
ENDBRANCH   1  10
TORSDOF 11
ENDMDL
MODEL 2
REMARK VINA RESULT:      -4.6      0.886      4.864
REMARK  Name = NuBBE_210
REMARK  11 active torsions:
REMARK  status: ('A' for Active; 'I' for Inactive)
REMARK    1  A    between atoms: O_1  and  C_2
REMARK    2  A    between atoms: C_2  and  C_3
REMARK    3  A    between atoms: C_3  and  O_5
REMARK    4  A    between atoms: C_3  and  C_6
REMARK    5  A    between atoms: C_6  and  C_8
REMARK    6  A    between atoms: C_6  and  O_16
REMARK    7  A    between atoms: C_8  and  O_10
REMARK    8  A    between atoms: C_8  and  C_11
REMARK    9  A    between atoms: C_11  and  O_13
REMARK   10  A    between atoms: C_11  and  C_14
REMARK   11  A    between atoms: C_14  and  O_15
REMARK                            x       y       z     vdW  Elec       q    Type
REMARK                         _______ _______ _______ _____ _____    ______ ____
ROOT
ATOM      1  C   LIG A   1     -11.629   7.214 129.356  0.00  0.00    +0.176 C 
ENDROOT
BRANCH   1   2
ATOM      2  O   LIG A   1     -12.252   6.035 128.824  0.00  0.00    -0.387 OA
ATOM      3  H   LIG A   1     -11.528   5.360 128.815  0.00  0.00    +0.210 HD
ENDBRANCH   1   2
BRANCH   1   4
ATOM      4  C   LIG A   1     -11.310   8.150 128.181  0.00  0.00    +0.171 C 
BRANCH   4   5
ATOM      5  O   LIG A   1     -12.250   9.248 128.279  0.00  0.00    -0.387 OA
ATOM      6  H   LIG A   1     -12.092   9.788 127.481  0.00  0.00    +0.210 HD
ENDBRANCH   4   5
BRANCH   4   7
ATOM      7  C   LIG A   1     -11.498   7.524 126.791  0.00  0.00    +0.190 C 
BRANCH   7   8
ATOM      8  O   LIG A   1     -10.406   6.629 126.547  0.00  0.00    -0.392 OA
ATOM      9  H   LIG A   1      -9.596   7.146 126.720  0.00  0.00    +0.209 HD
ENDBRANCH   7   8
ENDBRANCH   4   7
ENDBRANCH   1   4
BRANCH   1  10
ATOM     10  C   LIG A   1     -10.414   6.830 130.215  0.00  0.00    +0.176 C 
BRANCH  10  11
ATOM     11  O   LIG A   1      -9.310   6.442 129.360  0.00  0.00    -0.387 OA
ATOM     12  H   LIG A   1      -9.498   5.508 129.139  0.00  0.00    +0.210 HD
ENDBRANCH  10  11
BRANCH  10  13
ATOM     13  C   LIG A   1     -10.701   5.694 131.227  0.00  0.00    +0.171 C 
BRANCH  13  14
ATOM     14  O   LIG A   1     -11.958   5.986 131.864  0.00  0.00    -0.387 OA
ATOM     15  H   LIG A   1     -12.575   6.147 131.119  0.00  0.00    +0.210 HD
ENDBRANCH  13  14
BRANCH  13  16
ATOM     16  C   LIG A   1      -9.649   5.503 132.330  0.00  0.00    +0.190 C 
BRANCH  16  17
ATOM     17  O   LIG A   1      -9.865   6.440 133.387  0.00  0.00    -0.392 OA
ATOM     18  H   LIG A   1     -10.152   7.270 132.957  0.00  0.00    +0.209 HD
ENDBRANCH  16  17
ENDBRANCH  13  16
ENDBRANCH  10  13
ENDBRANCH   1  10
TORSDOF 11
ENDMDL
MODEL 3
REMARK VINA RESULT:      -4.6      1.625      4.271
REMARK  Name = NuBBE_210
REMARK  11 active torsions:
REMARK  status: ('A' for Active; 'I' for Inactive)
REMARK    1  A    between atoms: O_1  and  C_2
REMARK    2  A    between atoms: C_2  and  C_3
REMARK    3  A    between atoms: C_3  and  O_5
REMARK    4  A    between atoms: C_3  and  C_6
REMARK    5  A    between atoms: C_6  and  C_8
REMARK    6  A    between atoms: C_6  and  O_16
REMARK    7  A    between atoms: C_8  and  O_10
REMARK    8  A    between atoms: C_8  and  C_11
REMARK    9  A    between atoms: C_11  and  O_13
REMARK   10  A    between atoms: C_11  and  C_14
REMARK   11  A    between atoms: C_14  and  O_15
REMARK                            x       y       z     vdW  Elec       q    Type
REMARK                         _______ _______ _______ _____ _____    ______ ____
ROOT
ATOM      1  C   LIG A   1     -12.095   7.224 129.225  0.00  0.00    +0.176 C 
ENDROOT
BRANCH   1   2
ATOM      2  O   LIG A   1     -12.247   5.816 128.990  0.00  0.00    -0.387 OA
ATOM      3  H   LIG A   1     -12.800   5.501 129.748  0.00  0.00    +0.210 HD
ENDBRANCH   1   2
BRANCH   1   4
ATOM      4  C   LIG A   1     -12.387   7.957 127.907  0.00  0.00    +0.171 C 
BRANCH   4   5
ATOM      5  O   LIG A   1     -13.696   8.558 128.066  0.00  0.00    -0.387 OA
ATOM      6  H   LIG A   1     -14.326   7.819 127.966  0.00  0.00    +0.210 HD
ENDBRANCH   4   5
BRANCH   4   7
ATOM      7  C   LIG A   1     -12.459   7.050 126.670  0.00  0.00    +0.190 C 
BRANCH   7   8
ATOM      8  O   LIG A   1     -11.136   6.589 126.369  0.00  0.00    -0.392 OA
ATOM      9  H   LIG A   1     -10.722   7.297 125.840  0.00  0.00    +0.209 HD
ENDBRANCH   7   8
ENDBRANCH   4   7
ENDBRANCH   1   4
BRANCH   1  10
ATOM     10  C   LIG A   1     -10.710   7.515 129.824  0.00  0.00    +0.176 C 
BRANCH  10  11
ATOM     11  O   LIG A   1      -9.832   8.043 128.799  0.00  0.00    -0.387 OA
ATOM     12  H   LIG A   1     -10.253   8.885 128.536  0.00  0.00    +0.210 HD
ENDBRANCH  10  11
BRANCH  10  13
ATOM     13  C   LIG A   1     -10.044   6.281 130.482  0.00  0.00    +0.171 C 
BRANCH  13  14
ATOM     14  O   LIG A   1      -9.558   6.687 131.774  0.00  0.00    -0.387 OA
ATOM     15  H   LIG A   1     -10.358   6.700 132.341  0.00  0.00    +0.210 HD
ENDBRANCH  13  14
BRANCH  13  16
ATOM     16  C   LIG A   1      -8.867   5.668 129.709  0.00  0.00    +0.190 C 
BRANCH  16  17
ATOM     17  O   LIG A   1      -9.232   5.441 128.346  0.00  0.00    -0.392 OA
ATOM     18  H   LIG A   1      -9.790   6.202 128.087  0.00  0.00    +0.209 HD
ENDBRANCH  16  17
ENDBRANCH  13  16
ENDBRANCH  10  13
ENDBRANCH   1  10
TORSDOF 11
ENDMDL
MODEL 4
REMARK VINA RESULT:      -4.4      1.618      2.636
REMARK  Name = NuBBE_210
REMARK  11 active torsions:
REMARK  status: ('A' for Active; 'I' for Inactive)
REMARK    1  A    between atoms: O_1  and  C_2
REMARK    2  A    between atoms: C_2  and  C_3
REMARK    3  A    between atoms: C_3  and  O_5
REMARK    4  A    between atoms: C_3  and  C_6
REMARK    5  A    between atoms: C_6  and  C_8
REMARK    6  A    between atoms: C_6  and  O_16
REMARK    7  A    between atoms: C_8  and  O_10
REMARK    8  A    between atoms: C_8  and  C_11
REMARK    9  A    between atoms: C_11  and  O_13
REMARK   10  A    between atoms: C_11  and  C_14
REMARK   11  A    between atoms: C_14  and  O_15
REMARK                            x       y       z     vdW  Elec       q    Type
REMARK                         _______ _______ _______ _____ _____    ______ ____
ROOT
ATOM      1  C   LIG A   1     -10.943   6.232 130.313  0.00  0.00    +0.176 C 
ENDROOT
BRANCH   1   2
ATOM      2  O   LIG A   1     -11.282   4.980 130.929  0.00  0.00    -0.387 OA
ATOM      3  H   LIG A   1     -12.022   5.207 131.547  0.00  0.00    +0.210 HD
ENDBRANCH   1   2
BRANCH   1   4
ATOM      4  C   LIG A   1      -9.588   6.685 130.879  0.00  0.00    +0.171 C 
BRANCH   4   5
ATOM      5  O   LIG A   1      -8.596   6.299 129.896  0.00  0.00    -0.387 OA
ATOM      6  H   LIG A   1      -8.082   7.111 129.725  0.00  0.00    +0.210 HD
ENDBRANCH   4   5
BRANCH   4   7
ATOM      7  C   LIG A   1      -9.189   6.015 132.202  0.00  0.00    +0.190 C 
BRANCH   7   8
ATOM      8  O   LIG A   1     -10.115   6.428 133.215  0.00  0.00    -0.392 OA
ATOM      9  H   LIG A   1      -9.570   6.697 133.979  0.00  0.00    +0.209 HD
ENDBRANCH   7   8
ENDBRANCH   4   7
ENDBRANCH   1   4
BRANCH   1  10
ATOM     10  C   LIG A   1     -12.084   7.244 130.503  0.00  0.00    +0.176 C 
BRANCH  10  11
ATOM     11  O   LIG A   1     -12.810   6.943 131.720  0.00  0.00    -0.387 OA
ATOM     12  H   LIG A   1     -12.173   7.146 132.434  0.00  0.00    +0.210 HD
ENDBRANCH  10  11
BRANCH  10  13
ATOM     13  C   LIG A   1     -13.075   7.294 129.315  0.00  0.00    +0.171 C 
BRANCH  13  14
ATOM     14  O   LIG A   1     -12.713   6.243 128.401  0.00  0.00    -0.387 OA
ATOM     15  H   LIG A   1     -11.775   6.427 128.181  0.00  0.00    +0.210 HD
ENDBRANCH  13  14
BRANCH  13  16
ATOM     16  C   LIG A   1     -13.104   8.612 128.526  0.00  0.00    +0.190 C 
BRANCH  16  17
ATOM     17  O   LIG A   1     -11.777   9.103 128.333  0.00  0.00    -0.392 OA
ATOM     18  H   LIG A   1     -11.863   9.901 127.775  0.00  0.00    +0.209 HD
ENDBRANCH  16  17
ENDBRANCH  13  16
ENDBRANCH  10  13
ENDBRANCH   1  10
TORSDOF 11
ENDMDL
MODEL 5
REMARK VINA RESULT:      -4.3      1.356      4.474
REMARK  Name = NuBBE_210
REMARK  11 active torsions:
REMARK  status: ('A' for Active; 'I' for Inactive)
REMARK    1  A    between atoms: O_1  and  C_2
REMARK    2  A    between atoms: C_2  and  C_3
REMARK    3  A    between atoms: C_3  and  O_5
REMARK    4  A    between atoms: C_3  and  C_6
REMARK    5  A    between atoms: C_6  and  C_8
REMARK    6  A    between atoms: C_6  and  O_16
REMARK    7  A    between atoms: C_8  and  O_10
REMARK    8  A    between atoms: C_8  and  C_11
REMARK    9  A    between atoms: C_11  and  O_13
REMARK   10  A    between atoms: C_11  and  C_14
REMARK   11  A    between atoms: C_14  and  O_15
REMARK                            x       y       z     vdW  Elec       q    Type
REMARK                         _______ _______ _______ _____ _____    ______ ____
ROOT
ATOM      1  C   LIG A   1     -12.342   7.473 130.555  0.00  0.00    +0.176 C 
ENDROOT
BRANCH   1   2
ATOM      2  O   LIG A   1     -13.487   7.377 131.416  0.00  0.00    -0.387 OA
ATOM      3  H   LIG A   1     -13.553   8.273 131.832  0.00  0.00    +0.210 HD
ENDBRANCH   1   2
BRANCH   1   4
ATOM      4  C   LIG A   1     -12.840   7.451 129.102  0.00  0.00    +0.171 C 
BRANCH   4   5
ATOM      5  O   LIG A   1     -12.141   6.359 128.457  0.00  0.00    -0.387 OA
ATOM      6  H   LIG A   1     -11.269   6.726 128.214  0.00  0.00    +0.210 HD
ENDBRANCH   4   5
BRANCH   4   7
ATOM      7  C   LIG A   1     -12.527   8.720 128.296  0.00  0.00    +0.190 C 
BRANCH   7   8
ATOM      8  O   LIG A   1     -11.104   8.844 128.184  0.00  0.00    -0.392 OA
ATOM      9  H   LIG A   1     -10.921   9.803 128.170  0.00  0.00    +0.209 HD
ENDBRANCH   7   8
ENDBRANCH   4   7
ENDBRANCH   1   4
BRANCH   1  10
ATOM     10  C   LIG A   1     -11.327   6.370 130.897  0.00  0.00    +0.176 C 
BRANCH  10  11
ATOM     11  O   LIG A   1     -11.689   5.742 132.152  0.00  0.00    -0.387 OA
ATOM     12  H   LIG A   1     -11.339   6.352 132.832  0.00  0.00    +0.210 HD
ENDBRANCH  10  11
BRANCH  10  13
ATOM     13  C   LIG A   1      -9.865   6.873 130.980  0.00  0.00    +0.171 C 
BRANCH  13  14
ATOM     14  O   LIG A   1      -9.312   6.821 129.653  0.00  0.00    -0.387 OA
ATOM     15  H   LIG A   1      -9.371   5.875 129.402  0.00  0.00    +0.210 HD
ENDBRANCH  13  14
BRANCH  13  16
ATOM     16  C   LIG A   1      -8.937   6.074 131.907  0.00  0.00    +0.190 C 
BRANCH  16  17
ATOM     17  O   LIG A   1      -9.274   6.315 133.274  0.00  0.00    -0.392 OA
ATOM     18  H   LIG A   1      -9.195   7.281 133.404  0.00  0.00    +0.209 HD
ENDBRANCH  16  17
ENDBRANCH  13  16
ENDBRANCH  10  13
ENDBRANCH   1  10
TORSDOF 11
ENDMDL
MODEL 6
REMARK VINA RESULT:      -4.2      1.748      4.380
REMARK  Name = NuBBE_210
REMARK  11 active torsions:
REMARK  status: ('A' for Active; 'I' for Inactive)
REMARK    1  A    between atoms: O_1  and  C_2
REMARK    2  A    between atoms: C_2  and  C_3
REMARK    3  A    between atoms: C_3  and  O_5
REMARK    4  A    between atoms: C_3  and  C_6
REMARK    5  A    between atoms: C_6  and  C_8
REMARK    6  A    between atoms: C_6  and  O_16
REMARK    7  A    between atoms: C_8  and  O_10
REMARK    8  A    between atoms: C_8  and  C_11
REMARK    9  A    between atoms: C_11  and  O_13
REMARK   10  A    between atoms: C_11  and  C_14
REMARK   11  A    between atoms: C_14  and  O_15
REMARK                            x       y       z     vdW  Elec       q    Type
REMARK                         _______ _______ _______ _____ _____    ______ ____
ROOT
ATOM      1  C   LIG A   1     -11.495   6.409 129.439  0.00  0.00    +0.176 C 
ENDROOT
BRANCH   1   2
ATOM      2  O   LIG A   1     -11.716   6.606 128.034  0.00  0.00    -0.387 OA
ATOM      3  H   LIG A   1     -12.212   5.797 127.750  0.00  0.00    +0.210 HD
ENDBRANCH   1   2
BRANCH   1   4
ATOM      4  C   LIG A   1     -12.115   7.600 130.186  0.00  0.00    +0.171 C 
BRANCH   4   5
ATOM      5  O   LIG A   1     -12.894   7.030 131.266  0.00  0.00    -0.387 OA
ATOM      6  H   LIG A   1     -13.104   6.122 130.974  0.00  0.00    +0.210 HD
ENDBRANCH   4   5
BRANCH   4   7
ATOM      7  C   LIG A   1     -13.074   8.456 129.346  0.00  0.00    +0.190 C 
BRANCH   7   8
ATOM      8  O   LIG A   1     -12.303   9.428 128.629  0.00  0.00    -0.392 OA
ATOM      9  H   LIG A   1     -11.369   9.190 128.781  0.00  0.00    +0.209 HD
ENDBRANCH   7   8
ENDBRANCH   4   7
ENDBRANCH   1   4
BRANCH   1  10
ATOM     10  C   LIG A   1      -9.998   6.193 129.714  0.00  0.00    +0.176 C 
BRANCH  10  11
ATOM     11  O   LIG A   1      -9.357   5.639 128.539  0.00  0.00    -0.387 OA
ATOM     12  H   LIG A   1     -10.085   5.547 127.892  0.00  0.00    +0.210 HD
ENDBRANCH  10  11
BRANCH  10  13
ATOM     13  C   LIG A   1      -9.715   5.277 130.931  0.00  0.00    +0.171 C 
BRANCH  13  14
ATOM     14  O   LIG A   1     -10.934   4.577 131.240  0.00  0.00    -0.387 OA
ATOM     15  H   LIG A   1     -11.396   4.502 130.379  0.00  0.00    +0.210 HD
ENDBRANCH  13  14
BRANCH  13  16
ATOM     16  C   LIG A   1      -9.248   5.991 132.208  0.00  0.00    +0.190 C 
BRANCH  16  17
ATOM     17  O   LIG A   1     -10.374   6.411 132.981  0.00  0.00    -0.392 OA
ATOM     18  H   LIG A   1     -11.001   5.661 132.973  0.00  0.00    +0.209 HD
ENDBRANCH  16  17
ENDBRANCH  13  16
ENDBRANCH  10  13
ENDBRANCH   1  10
TORSDOF 11
ENDMDL
MODEL 7
REMARK VINA RESULT:      -4.2      8.511     10.039
REMARK  Name = NuBBE_210
REMARK  11 active torsions:
REMARK  status: ('A' for Active; 'I' for Inactive)
REMARK    1  A    between atoms: O_1  and  C_2
REMARK    2  A    between atoms: C_2  and  C_3
REMARK    3  A    between atoms: C_3  and  O_5
REMARK    4  A    between atoms: C_3  and  C_6
REMARK    5  A    between atoms: C_6  and  C_8
REMARK    6  A    between atoms: C_6  and  O_16
REMARK    7  A    between atoms: C_8  and  O_10
REMARK    8  A    between atoms: C_8  and  C_11
REMARK    9  A    between atoms: C_11  and  O_13
REMARK   10  A    between atoms: C_11  and  C_14
REMARK   11  A    between atoms: C_14  and  O_15
REMARK                            x       y       z     vdW  Elec       q    Type
REMARK                         _______ _______ _______ _____ _____    ______ ____
ROOT
ATOM      1  C   LIG A   1      -9.048   0.308 124.535  0.00  0.00    +0.176 C 
ENDROOT
BRANCH   1   2
ATOM      2  O   LIG A   1      -9.903  -0.374 125.466  0.00  0.00    -0.387 OA
ATOM      3  H   LIG A   1     -10.795  -0.352 125.038  0.00  0.00    +0.210 HD
ENDBRANCH   1   2
BRANCH   1   4
ATOM      4  C   LIG A   1      -9.628   1.711 124.301  0.00  0.00    +0.171 C 
BRANCH   4   5
ATOM      5  O   LIG A   1     -11.041   1.520 124.045  0.00  0.00    -0.387 OA
ATOM      6  H   LIG A   1     -11.313   2.305 123.532  0.00  0.00    +0.210 HD
ENDBRANCH   4   5
BRANCH   4   7
ATOM      7  C   LIG A   1      -9.049   2.452 123.087  0.00  0.00    +0.190 C 
BRANCH   7   8
ATOM      8  O   LIG A   1      -8.392   3.637 123.552  0.00  0.00    -0.392 OA
ATOM      9  H   LIG A   1      -9.100   4.218 123.891  0.00  0.00    +0.209 HD
ENDBRANCH   7   8
ENDBRANCH   4   7
ENDBRANCH   1   4
BRANCH   1  10
ATOM     10  C   LIG A   1      -8.877  -0.532 123.259  0.00  0.00    +0.176 C 
BRANCH  10  11
ATOM     11  O   LIG A   1     -10.175  -0.833 122.691  0.00  0.00    -0.387 OA
ATOM     12  H   LIG A   1     -10.741  -0.091 122.986  0.00  0.00    +0.210 HD
ENDBRANCH  10  11
BRANCH  10  13
ATOM     13  C   LIG A   1      -8.099  -1.852 123.483  0.00  0.00    +0.171 C 
BRANCH  13  14
ATOM     14  O   LIG A   1      -7.102  -1.950 122.450  0.00  0.00    -0.387 OA
ATOM     15  H   LIG A   1      -7.218  -2.853 122.086  0.00  0.00    +0.210 HD
ENDBRANCH  13  14
BRANCH  13  16
ATOM     16  C   LIG A   1      -8.941  -3.137 123.446  0.00  0.00    +0.190 C 
BRANCH  16  17
ATOM     17  O   LIG A   1      -9.919  -3.119 124.487  0.00  0.00    -0.392 OA
ATOM     18  H   LIG A   1      -9.774  -3.935 125.006  0.00  0.00    +0.209 HD
ENDBRANCH  16  17
ENDBRANCH  13  16
ENDBRANCH  10  13
ENDBRANCH   1  10
TORSDOF 11
ENDMDL
MODEL 8
REMARK VINA RESULT:      -4.1      1.706      4.286
REMARK  Name = NuBBE_210
REMARK  11 active torsions:
REMARK  status: ('A' for Active; 'I' for Inactive)
REMARK    1  A    between atoms: O_1  and  C_2
REMARK    2  A    between atoms: C_2  and  C_3
REMARK    3  A    between atoms: C_3  and  O_5
REMARK    4  A    between atoms: C_3  and  C_6
REMARK    5  A    between atoms: C_6  and  C_8
REMARK    6  A    between atoms: C_6  and  O_16
REMARK    7  A    between atoms: C_8  and  O_10
REMARK    8  A    between atoms: C_8  and  C_11
REMARK    9  A    between atoms: C_11  and  O_13
REMARK   10  A    between atoms: C_11  and  C_14
REMARK   11  A    between atoms: C_14  and  O_15
REMARK                            x       y       z     vdW  Elec       q    Type
REMARK                         _______ _______ _______ _____ _____    ______ ____
ROOT
ATOM      1  C   LIG A   1     -10.605   6.193 129.541  0.00  0.00    +0.176 C 
ENDROOT
BRANCH   1   2
ATOM      2  O   LIG A   1     -10.195   7.431 130.141  0.00  0.00    -0.387 OA
ATOM      3  H   LIG A   1      -9.207   7.406 130.101  0.00  0.00    +0.210 HD
ENDBRANCH   1   2
BRANCH   1   4
ATOM      4  C   LIG A   1     -12.136   6.213 129.414  0.00  0.00    +0.171 C 
BRANCH   4   5
ATOM      5  O   LIG A   1     -12.416   6.528 128.027  0.00  0.00    -0.387 OA
ATOM      6  H   LIG A   1     -11.748   6.031 127.516  0.00  0.00    +0.210 HD
ENDBRANCH   4   5
BRANCH   4   7
ATOM      7  C   LIG A   1     -12.837   7.282 130.265  0.00  0.00    +0.190 C 
BRANCH   7   8
ATOM      8  O   LIG A   1     -12.775   6.878 131.638  0.00  0.00    -0.392 OA
ATOM      9  H   LIG A   1     -11.941   6.379 131.731  0.00  0.00    +0.209 HD
ENDBRANCH   7   8
ENDBRANCH   4   7
ENDBRANCH   1   4
BRANCH   1  10
ATOM     10  C   LIG A   1     -10.047   5.006 130.341  0.00  0.00    +0.176 C 
BRANCH  10  11
ATOM     11  O   LIG A   1     -11.118   4.357 131.070  0.00  0.00    -0.387 OA
ATOM     12  H   LIG A   1     -11.782   5.065 131.197  0.00  0.00    +0.210 HD
ENDBRANCH  10  11
BRANCH  10  13
ATOM     13  C   LIG A   1      -8.919   5.396 131.329  0.00  0.00    +0.171 C 
BRANCH  13  14
ATOM     14  O   LIG A   1      -7.861   4.432 131.182  0.00  0.00    -0.387 OA
ATOM     15  H   LIG A   1      -7.050   4.976 131.085  0.00  0.00    +0.210 HD
ENDBRANCH  13  14
BRANCH  13  16
ATOM     16  C   LIG A   1      -9.317   5.434 132.812  0.00  0.00    +0.190 C 
BRANCH  16  17
ATOM     17  O   LIG A   1     -10.303   6.443 133.035  0.00  0.00    -0.392 OA
ATOM     18  H   LIG A   1     -10.893   6.420 132.256  0.00  0.00    +0.209 HD
ENDBRANCH  16  17
ENDBRANCH  13  16
ENDBRANCH  10  13
ENDBRANCH   1  10
TORSDOF 11
ENDMDL
MODEL 9
REMARK VINA RESULT:      -3.9      7.985      9.515
REMARK  Name = NuBBE_210
REMARK  11 active torsions:
REMARK  status: ('A' for Active; 'I' for Inactive)
REMARK    1  A    between atoms: O_1  and  C_2
REMARK    2  A    between atoms: C_2  and  C_3
REMARK    3  A    between atoms: C_3  and  O_5
REMARK    4  A    between atoms: C_3  and  C_6
REMARK    5  A    between atoms: C_6  and  C_8
REMARK    6  A    between atoms: C_6  and  O_16
REMARK    7  A    between atoms: C_8  and  O_10
REMARK    8  A    between atoms: C_8  and  C_11
REMARK    9  A    between atoms: C_11  and  O_13
REMARK   10  A    between atoms: C_11  and  C_14
REMARK   11  A    between atoms: C_14  and  O_15
REMARK                            x       y       z     vdW  Elec       q    Type
REMARK                         _______ _______ _______ _____ _____    ______ ____
ROOT
ATOM      1  C   LIG A   1      -9.305  -0.055 123.217  0.00  0.00    +0.176 C 
ENDROOT
BRANCH   1   2
ATOM      2  O   LIG A   1     -10.475  -0.499 122.511  0.00  0.00    -0.387 OA
ATOM      3  H   LIG A   1     -10.962  -1.052 123.172  0.00  0.00    +0.210 HD
ENDBRANCH   1   2
BRANCH   1   4
ATOM      4  C   LIG A   1      -8.693  -1.272 123.928  0.00  0.00    +0.171 C 
BRANCH   4   5
ATOM      5  O   LIG A   1      -7.281  -0.979 124.074  0.00  0.00    -0.387 OA
ATOM      6  H   LIG A   1      -7.188  -0.639 124.985  0.00  0.00    +0.210 HD
ENDBRANCH   4   5
BRANCH   4   7
ATOM      7  C   LIG A   1      -8.797  -2.591 123.148  0.00  0.00    +0.190 C 
BRANCH   7   8
ATOM      8  O   LIG A   1     -10.050  -3.208 123.469  0.00  0.00    -0.392 OA
ATOM      9  H   LIG A   1     -10.093  -4.018 122.927  0.00  0.00    +0.209 HD
ENDBRANCH   7   8
ENDBRANCH   4   7
ENDBRANCH   1   4
BRANCH   1  10
ATOM     10  C   LIG A   1      -9.659   1.116 124.147  0.00  0.00    +0.176 C 
BRANCH  10  11
ATOM     11  O   LIG A   1     -11.067   1.435 124.022  0.00  0.00    -0.387 OA
ATOM     12  H   LIG A   1     -11.216   2.122 124.702  0.00  0.00    +0.210 HD
ENDBRANCH  10  11
BRANCH  10  13
ATOM     13  C   LIG A   1      -8.821   2.392 123.888  0.00  0.00    +0.171 C 
BRANCH  13  14
ATOM     14  O   LIG A   1      -7.684   2.011 123.092  0.00  0.00    -0.387 OA
ATOM     15  H   LIG A   1      -7.077   1.578 123.729  0.00  0.00    +0.210 HD
ENDBRANCH  13  14
BRANCH  13  16
ATOM     16  C   LIG A   1      -8.297   3.111 125.140  0.00  0.00    +0.190 C 
BRANCH  16  17
ATOM     17  O   LIG A   1      -9.005   4.335 125.342  0.00  0.00    -0.392 OA
ATOM     18  H   LIG A   1      -9.687   4.370 124.641  0.00  0.00    +0.209 HD
ENDBRANCH  16  17
ENDBRANCH  13  16
ENDBRANCH  10  13
ENDBRANCH   1  10
TORSDOF 11
ENDMDL
