MODEL 1
REMARK VINA RESULT:      -7.1      0.000      0.000
REMARK  Name = NuBBE_1345
REMARK  4 active torsions:
REMARK  status: ('A' for Active; 'I' for Inactive)
REMARK    1  A    between atoms: C_1  and  O_2
REMARK    2  A    between atoms: O_2  and  C_3
REMARK    3  A    between atoms: C_12  and  C_13
REMARK    4  A    between atoms: C_12  and  C_14
REMARK                            x       y       z     vdW  Elec       q    Type
REMARK                         _______ _______ _______ _____ _____    ______ ____
ROOT
ATOM      1  C   LIG A   1      -7.894   3.707 120.885  0.00  0.00    +0.144 A 
ATOM      2  C   LIG A   1      -6.827   4.166 120.115  0.00  0.00    +0.048 A 
ATOM      3  C   LIG A   1      -5.582   4.364 120.713  0.00  0.00    +0.004 A 
ATOM      4  C   LIG A   1      -5.405   4.095 122.075  0.00  0.00    +0.014 A 
ATOM      5  C   LIG A   1      -6.466   3.611 122.853  0.00  0.00    +0.044 A 
ATOM      6  C   LIG A   1      -6.332   3.314 124.290  0.00  0.00    +0.143 A 
ATOM      7  C   LIG A   1      -7.373   2.827 124.990  0.00  0.00    +0.081 A 
ATOM      8  C   LIG A   1      -7.215   2.534 126.394  0.00  0.00    +0.016 C 
ATOM      9  C   LIG A   1      -6.058   2.821 127.000  0.00  0.00    +0.020 C 
ATOM     10  C   LIG A   1      -4.896   3.443 126.257  0.00  0.00    +0.123 C 
ATOM     11  C   LIG A   1      -3.647   2.575 126.442  0.00  0.00    +0.060 C 
ATOM     12  C   LIG A   1      -4.636   4.852 126.802  0.00  0.00    +0.060 C 
ATOM     13  O   LIG A   1      -5.089   3.578 124.831  0.00  0.00    -0.481 OA
ATOM     14  C   LIG A   1      -7.706   3.406 122.238  0.00  0.00    +0.095 A 
ATOM     15  N   LIG A   1      -8.773   2.899 122.991  0.00  0.00    -0.319 N 
ATOM     16  C   LIG A   1      -8.690   2.581 124.317  0.00  0.00    +0.260 A 
ATOM     17  O   LIG A   1      -9.657   2.128 124.924  0.00  0.00    -0.267 OA
ATOM     18  H   LIG A   1      -9.656   2.729 122.526  0.00  0.00    +0.169 HD
ENDROOT
BRANCH   1  20
ATOM     19  C   LIG A   1      -9.289   4.274 119.141  0.00  0.00    +0.277 C 
ATOM     20  O   LIG A   1      -9.125   3.485 120.321  0.00  0.00    -0.493 OA
ENDBRANCH   1  20
TORSDOF 1
ENDMDL
MODEL 2
REMARK VINA RESULT:      -6.8      5.722      6.876
REMARK  Name = NuBBE_1345
REMARK  4 active torsions:
REMARK  status: ('A' for Active; 'I' for Inactive)
REMARK    1  A    between atoms: C_1  and  O_2
REMARK    2  A    between atoms: O_2  and  C_3
REMARK    3  A    between atoms: C_12  and  C_13
REMARK    4  A    between atoms: C_12  and  C_14
REMARK                            x       y       z     vdW  Elec       q    Type
REMARK                         _______ _______ _______ _____ _____    ______ ____
ROOT
ATOM      1  C   LIG A   1      -8.301  -1.935 124.570  0.00  0.00    +0.144 A 
ATOM      2  C   LIG A   1      -7.378  -1.353 123.702  0.00  0.00    +0.048 A 
ATOM      3  C   LIG A   1      -6.073  -1.125 124.137  0.00  0.00    +0.004 A 
ATOM      4  C   LIG A   1      -5.691  -1.486 125.435  0.00  0.00    +0.014 A 
ATOM      5  C   LIG A   1      -6.605  -2.092 126.307  0.00  0.00    +0.044 A 
ATOM      6  C   LIG A   1      -6.253  -2.490 127.682  0.00  0.00    +0.143 A 
ATOM      7  C   LIG A   1      -7.158  -3.093 128.474  0.00  0.00    +0.081 A 
ATOM      8  C   LIG A   1      -6.788  -3.482 129.814  0.00  0.00    +0.016 C 
ATOM      9  C   LIG A   1      -5.573  -3.171 130.277  0.00  0.00    +0.020 C 
ATOM     10  C   LIG A   1      -4.561  -2.423 129.437  0.00  0.00    +0.123 C 
ATOM     11  C   LIG A   1      -3.256  -3.224 129.374  0.00  0.00    +0.060 C 
ATOM     12  C   LIG A   1      -4.298  -1.047 130.058  0.00  0.00    +0.060 C 
ATOM     13  O   LIG A   1      -4.961  -2.192 128.068  0.00  0.00    -0.481 OA
ATOM     14  C   LIG A   1      -7.908  -2.326 125.854  0.00  0.00    +0.095 A 
ATOM     15  N   LIG A   1      -8.829  -2.955 126.700  0.00  0.00    -0.319 N 
ATOM     16  C   LIG A   1      -8.543  -3.367 127.971  0.00  0.00    +0.260 A 
ATOM     17  O   LIG A   1      -9.390  -3.925 128.664  0.00  0.00    -0.267 OA
ATOM     18  H   LIG A   1      -9.760  -3.143 126.348  0.00  0.00    +0.169 HD
ENDROOT
BRANCH   1  20
ATOM     19  C   LIG A   1      -9.631  -3.343 123.322  0.00  0.00    +0.277 C 
ATOM     20  O   LIG A   1      -9.587  -2.189 124.163  0.00  0.00    -0.493 OA
ENDBRANCH   1  20
TORSDOF 1
ENDMDL
MODEL 3
REMARK VINA RESULT:      -6.5      4.463      5.749
REMARK  Name = NuBBE_1345
REMARK  4 active torsions:
REMARK  status: ('A' for Active; 'I' for Inactive)
REMARK    1  A    between atoms: C_1  and  O_2
REMARK    2  A    between atoms: O_2  and  C_3
REMARK    3  A    between atoms: C_12  and  C_13
REMARK    4  A    between atoms: C_12  and  C_14
REMARK                            x       y       z     vdW  Elec       q    Type
REMARK                         _______ _______ _______ _____ _____    ______ ____
ROOT
ATOM      1  C   LIG A   1      -7.360   1.063 124.355  0.00  0.00    +0.144 A 
ATOM      2  C   LIG A   1      -6.377   1.958 124.772  0.00  0.00    +0.048 A 
ATOM      3  C   LIG A   1      -5.732   1.754 125.991  0.00  0.00    +0.004 A 
ATOM      4  C   LIG A   1      -6.065   0.652 126.788  0.00  0.00    +0.014 A 
ATOM      5  C   LIG A   1      -7.036  -0.267 126.366  0.00  0.00    +0.044 A 
ATOM      6  C   LIG A   1      -7.423  -1.443 127.167  0.00  0.00    +0.143 A 
ATOM      7  C   LIG A   1      -8.343  -2.312 126.709  0.00  0.00    +0.081 A 
ATOM      8  C   LIG A   1      -8.699  -3.460 127.507  0.00  0.00    +0.016 C 
ATOM      9  C   LIG A   1      -8.166  -3.607 128.724  0.00  0.00    +0.020 C 
ATOM     10  C   LIG A   1      -7.190  -2.605 129.299  0.00  0.00    +0.123 C 
ATOM     11  C   LIG A   1      -5.907  -3.326 129.724  0.00  0.00    +0.060 C 
ATOM     12  C   LIG A   1      -7.823  -1.911 130.510  0.00  0.00    +0.060 C 
ATOM     13  O   LIG A   1      -6.785  -1.560 128.386  0.00  0.00    -0.481 OA
ATOM     14  C   LIG A   1      -7.667  -0.057 125.135  0.00  0.00    +0.095 A 
ATOM     15  N   LIG A   1      -8.621  -0.977 124.684  0.00  0.00    -0.319 N 
ATOM     16  C   LIG A   1      -8.993  -2.096 125.375  0.00  0.00    +0.260 A 
ATOM     17  O   LIG A   1      -9.827  -2.875 124.923  0.00  0.00    -0.267 OA
ATOM     18  H   LIG A   1      -9.048  -0.827 123.778  0.00  0.00    +0.169 HD
ENDROOT
BRANCH   1  20
ATOM     19  C   LIG A   1      -8.866   2.361 123.190  0.00  0.00    +0.277 C 
ATOM     20  O   LIG A   1      -7.998   1.227 123.151  0.00  0.00    -0.493 OA
ENDBRANCH   1  20
TORSDOF 1
ENDMDL
MODEL 4
REMARK VINA RESULT:      -6.4      6.830      8.773
REMARK  Name = NuBBE_1345
REMARK  4 active torsions:
REMARK  status: ('A' for Active; 'I' for Inactive)
REMARK    1  A    between atoms: C_1  and  O_2
REMARK    2  A    between atoms: O_2  and  C_3
REMARK    3  A    between atoms: C_12  and  C_13
REMARK    4  A    between atoms: C_12  and  C_14
REMARK                            x       y       z     vdW  Elec       q    Type
REMARK                         _______ _______ _______ _____ _____    ______ ____
ROOT
ATOM      1  C   LIG A   1     -12.003   6.843 129.136  0.00  0.00    +0.144 A 
ATOM      2  C   LIG A   1     -12.977   7.329 130.008  0.00  0.00    +0.048 A 
ATOM      3  C   LIG A   1     -12.777   7.235 131.385  0.00  0.00    +0.004 A 
ATOM      4  C   LIG A   1     -11.602   6.664 131.888  0.00  0.00    +0.014 A 
ATOM      5  C   LIG A   1     -10.607   6.193 131.020  0.00  0.00    +0.044 A 
ATOM      6  C   LIG A   1      -9.354   5.584 131.499  0.00  0.00    +0.143 A 
ATOM      7  C   LIG A   1      -8.416   5.169 130.627  0.00  0.00    +0.081 A 
ATOM      8  C   LIG A   1      -7.192   4.584 131.119  0.00  0.00    +0.016 C 
ATOM      9  C   LIG A   1      -7.037   4.391 132.433  0.00  0.00    +0.020 C 
ATOM     10  C   LIG A   1      -8.107   4.772 133.432  0.00  0.00    +0.123 C 
ATOM     11  C   LIG A   1      -7.509   5.702 134.493  0.00  0.00    +0.060 C 
ATOM     12  C   LIG A   1      -8.659   3.508 134.099  0.00  0.00    +0.060 C 
ATOM     13  O   LIG A   1      -9.239   5.474 132.870  0.00  0.00    -0.481 OA
ATOM     14  C   LIG A   1     -10.815   6.305 129.641  0.00  0.00    +0.095 A 
ATOM     15  N   LIG A   1      -9.822   5.865 128.757  0.00  0.00    -0.319 N 
ATOM     16  C   LIG A   1      -8.633   5.320 129.151  0.00  0.00    +0.260 A 
ATOM     17  O   LIG A   1      -7.794   4.962 128.329  0.00  0.00    -0.267 OA
ATOM     18  H   LIG A   1      -9.975   5.978 127.762  0.00  0.00    +0.169 HD
ENDROOT
BRANCH   1  20
ATOM     19  C   LIG A   1     -13.522   7.237 127.449  0.00  0.00    +0.277 C 
ATOM     20  O   LIG A   1     -12.164   6.940 127.777  0.00  0.00    -0.493 OA
ENDBRANCH   1  20
TORSDOF 1
ENDMDL
MODEL 5
REMARK VINA RESULT:      -6.4      8.040      9.695
REMARK  Name = NuBBE_1345
REMARK  4 active torsions:
REMARK  status: ('A' for Active; 'I' for Inactive)
REMARK    1  A    between atoms: C_1  and  O_2
REMARK    2  A    between atoms: O_2  and  C_3
REMARK    3  A    between atoms: C_12  and  C_13
REMARK    4  A    between atoms: C_12  and  C_14
REMARK                            x       y       z     vdW  Elec       q    Type
REMARK                         _______ _______ _______ _____ _____    ______ ____
ROOT
ATOM      1  C   LIG A   1      -7.697   2.751 132.080  0.00  0.00    +0.144 A 
ATOM      2  C   LIG A   1      -8.555   1.668 132.267  0.00  0.00    +0.048 A 
ATOM      3  C   LIG A   1      -9.904   1.793 131.936  0.00  0.00    +0.004 A 
ATOM      4  C   LIG A   1     -10.392   2.996 131.412  0.00  0.00    +0.014 A 
ATOM      5  C   LIG A   1      -9.534   4.083 131.199  0.00  0.00    +0.044 A 
ATOM      6  C   LIG A   1      -9.997   5.370 130.651  0.00  0.00    +0.143 A 
ATOM      7  C   LIG A   1      -9.130   6.378 130.440  0.00  0.00    +0.081 A 
ATOM      8  C   LIG A   1      -9.606   7.626 129.894  0.00  0.00    +0.016 C 
ATOM      9  C   LIG A   1     -10.915   7.792 129.674  0.00  0.00    +0.020 C 
ATOM     10  C   LIG A   1     -11.923   6.707 129.977  0.00  0.00    +0.123 C 
ATOM     11  C   LIG A   1     -12.749   6.411 128.720  0.00  0.00    +0.060 C 
ATOM     12  C   LIG A   1     -12.846   7.167 131.111  0.00  0.00    +0.060 C 
ATOM     13  O   LIG A   1     -11.351   5.445 130.392  0.00  0.00    -0.481 OA
ATOM     14  C   LIG A   1      -8.180   3.941 131.524  0.00  0.00    +0.095 A 
ATOM     15  N   LIG A   1      -7.301   5.006 131.294  0.00  0.00    -0.319 N 
ATOM     16  C   LIG A   1      -7.676   6.207 130.762  0.00  0.00    +0.260 A 
ATOM     17  O   LIG A   1      -6.857   7.102 130.572  0.00  0.00    -0.267 OA
ATOM     18  H   LIG A   1      -6.319   4.878 131.508  0.00  0.00    +0.169 HD
ENDROOT
BRANCH   1  20
ATOM     19  C   LIG A   1      -5.783   1.519 131.728  0.00  0.00    +0.277 C 
ATOM     20  O   LIG A   1      -6.362   2.652 132.378  0.00  0.00    -0.493 OA
ENDBRANCH   1  20
TORSDOF 1
ENDMDL
MODEL 6
REMARK VINA RESULT:      -6.2      3.426      5.523
REMARK  Name = NuBBE_1345
REMARK  4 active torsions:
REMARK  status: ('A' for Active; 'I' for Inactive)
REMARK    1  A    between atoms: C_1  and  O_2
REMARK    2  A    between atoms: O_2  and  C_3
REMARK    3  A    between atoms: C_12  and  C_13
REMARK    4  A    between atoms: C_12  and  C_14
REMARK                            x       y       z     vdW  Elec       q    Type
REMARK                         _______ _______ _______ _____ _____    ______ ____
ROOT
ATOM      1  C   LIG A   1      -4.398   4.844 127.003  0.00  0.00    +0.144 A 
ATOM      2  C   LIG A   1      -3.158   4.229 127.172  0.00  0.00    +0.048 A 
ATOM      3  C   LIG A   1      -2.999   2.890 126.817  0.00  0.00    +0.004 A 
ATOM      4  C   LIG A   1      -4.076   2.170 126.287  0.00  0.00    +0.014 A 
ATOM      5  C   LIG A   1      -5.320   2.785 126.091  0.00  0.00    +0.044 A 
ATOM      6  C   LIG A   1      -6.485   2.071 125.538  0.00  0.00    +0.143 A 
ATOM      7  C   LIG A   1      -7.653   2.711 125.345  0.00  0.00    +0.081 A 
ATOM      8  C   LIG A   1      -8.777   1.994 124.793  0.00  0.00    +0.016 C 
ATOM      9  C   LIG A   1      -8.667   0.684 124.550  0.00  0.00    +0.020 C 
ATOM     10  C   LIG A   1      -7.392  -0.080 124.831  0.00  0.00    +0.123 C 
ATOM     11  C   LIG A   1      -6.937  -0.804 123.559  0.00  0.00    +0.060 C 
ATOM     12  C   LIG A   1      -7.641  -1.098 125.949  0.00  0.00    +0.060 C 
ATOM     13  O   LIG A   1      -6.276   0.736 125.254  0.00  0.00    -0.481 OA
ATOM     14  C   LIG A   1      -5.463   4.132 126.441  0.00  0.00    +0.095 A 
ATOM     15  N   LIG A   1      -6.690   4.773 126.230  0.00  0.00    -0.319 N 
ATOM     16  C   LIG A   1      -7.789   4.163 125.694  0.00  0.00    +0.260 A 
ATOM     17  O   LIG A   1      -8.837   4.779 125.520  0.00  0.00    -0.267 OA
ATOM     18  H   LIG A   1      -6.770   5.755 126.461  0.00  0.00    +0.169 HD
ENDROOT
BRANCH   1  20
ATOM     19  C   LIG A   1      -3.480   6.651 128.099  0.00  0.00    +0.277 C 
ATOM     20  O   LIG A   1      -4.579   6.165 127.325  0.00  0.00    -0.493 OA
ENDBRANCH   1  20
TORSDOF 1
ENDMDL
MODEL 7
REMARK VINA RESULT:      -6.2      4.836      6.290
REMARK  Name = NuBBE_1345
REMARK  4 active torsions:
REMARK  status: ('A' for Active; 'I' for Inactive)
REMARK    1  A    between atoms: C_1  and  O_2
REMARK    2  A    between atoms: O_2  and  C_3
REMARK    3  A    between atoms: C_12  and  C_13
REMARK    4  A    between atoms: C_12  and  C_14
REMARK                            x       y       z     vdW  Elec       q    Type
REMARK                         _______ _______ _______ _____ _____    ______ ____
ROOT
ATOM      1  C   LIG A   1      -9.159  -1.064 124.254  0.00  0.00    +0.144 A 
ATOM      2  C   LIG A   1      -9.078  -2.288 123.593  0.00  0.00    +0.048 A 
ATOM      3  C   LIG A   1      -8.429  -3.360 124.206  0.00  0.00    +0.004 A 
ATOM      4  C   LIG A   1      -7.870  -3.208 125.481  0.00  0.00    +0.014 A 
ATOM      5  C   LIG A   1      -7.967  -1.987 126.163  0.00  0.00    +0.044 A 
ATOM      6  C   LIG A   1      -7.395  -1.775 127.505  0.00  0.00    +0.143 A 
ATOM      7  C   LIG A   1      -7.535  -0.593 128.131  0.00  0.00    +0.081 A 
ATOM      8  C   LIG A   1      -6.975  -0.412 129.449  0.00  0.00    +0.016 C 
ATOM      9  C   LIG A   1      -6.259  -1.397 130.001  0.00  0.00    +0.020 C 
ATOM     10  C   LIG A   1      -6.017  -2.709 129.287  0.00  0.00    +0.123 C 
ATOM     11  C   LIG A   1      -6.473  -3.868 130.180  0.00  0.00    +0.060 C 
ATOM     12  C   LIG A   1      -4.524  -2.851 128.971  0.00  0.00    +0.060 C 
ATOM     13  O   LIG A   1      -6.723  -2.859 128.035  0.00  0.00    -0.481 OA
ATOM     14  C   LIG A   1      -8.631  -0.924 125.541  0.00  0.00    +0.095 A 
ATOM     15  N   LIG A   1      -8.761   0.296 126.216  0.00  0.00    -0.319 N 
ATOM     16  C   LIG A   1      -8.274   0.532 127.471  0.00  0.00    +0.260 A 
ATOM     17  O   LIG A   1      -8.429   1.620 128.019  0.00  0.00    -0.267 OA
ATOM     18  H   LIG A   1      -9.269   1.047 125.765  0.00  0.00    +0.169 HD
ENDROOT
BRANCH   1  20
ATOM     19  C   LIG A   1      -9.985  -0.206 122.281  0.00  0.00    +0.277 C 
ATOM     20  O   LIG A   1      -9.808   0.003 123.683  0.00  0.00    -0.493 OA
ENDBRANCH   1  20
TORSDOF 1
ENDMDL
MODEL 8
REMARK VINA RESULT:      -6.2      2.985      4.632
REMARK  Name = NuBBE_1345
REMARK  4 active torsions:
REMARK  status: ('A' for Active; 'I' for Inactive)
REMARK    1  A    between atoms: C_1  and  O_2
REMARK    2  A    between atoms: O_2  and  C_3
REMARK    3  A    between atoms: C_12  and  C_13
REMARK    4  A    between atoms: C_12  and  C_14
REMARK                            x       y       z     vdW  Elec       q    Type
REMARK                         _______ _______ _______ _____ _____    ______ ____
ROOT
ATOM      1  C   LIG A   1      -7.215  -1.072 124.320  0.00  0.00    +0.144 A 
ATOM      2  C   LIG A   1      -6.781  -2.174 125.055  0.00  0.00    +0.048 A 
ATOM      3  C   LIG A   1      -5.835  -1.999 126.064  0.00  0.00    +0.004 A 
ATOM      4  C   LIG A   1      -5.330  -0.723 126.343  0.00  0.00    +0.014 A 
ATOM      5  C   LIG A   1      -5.777   0.395 125.625  0.00  0.00    +0.044 A 
ATOM      6  C   LIG A   1      -5.277   1.758 125.878  0.00  0.00    +0.143 A 
ATOM      7  C   LIG A   1      -5.755   2.804 125.180  0.00  0.00    +0.081 A 
ATOM      8  C   LIG A   1      -5.257   4.131 125.452  0.00  0.00    +0.016 C 
ATOM      9  C   LIG A   1      -4.273   4.295 126.342  0.00  0.00    +0.020 C 
ATOM     10  C   LIG A   1      -3.660   3.128 127.084  0.00  0.00    +0.123 C 
ATOM     11  C   LIG A   1      -3.739   3.384 128.594  0.00  0.00    +0.060 C 
ATOM     12  C   LIG A   1      -2.197   2.963 126.660  0.00  0.00    +0.060 C 
ATOM     13  O   LIG A   1      -4.306   1.856 126.855  0.00  0.00    -0.481 OA
ATOM     14  C   LIG A   1      -6.735   0.207 124.623  0.00  0.00    +0.095 A 
ATOM     15  N   LIG A   1      -7.214   1.314 123.911  0.00  0.00    -0.319 N 
ATOM     16  C   LIG A   1      -6.803   2.599 124.128  0.00  0.00    +0.260 A 
ATOM     17  O   LIG A   1      -7.269   3.533 123.480  0.00  0.00    -0.267 OA
ATOM     18  H   LIG A   1      -7.928   1.166 123.209  0.00  0.00    +0.169 HD
ENDROOT
BRANCH   1  20
ATOM     19  C   LIG A   1      -8.629  -2.558 123.272  0.00  0.00    +0.277 C 
ATOM     20  O   LIG A   1      -8.159  -1.211 123.334  0.00  0.00    -0.493 OA
ENDBRANCH   1  20
TORSDOF 1
ENDMDL
MODEL 9
REMARK VINA RESULT:      -6.2      4.024      6.866
REMARK  Name = NuBBE_1345
REMARK  4 active torsions:
REMARK  status: ('A' for Active; 'I' for Inactive)
REMARK    1  A    between atoms: C_1  and  O_2
REMARK    2  A    between atoms: O_2  and  C_3
REMARK    3  A    between atoms: C_12  and  C_13
REMARK    4  A    between atoms: C_12  and  C_14
REMARK                            x       y       z     vdW  Elec       q    Type
REMARK                         _______ _______ _______ _____ _____    ______ ____
ROOT
ATOM      1  C   LIG A   1      -8.477   1.601 128.480  0.00  0.00    +0.144 A 
ATOM      2  C   LIG A   1      -8.145   0.887 129.630  0.00  0.00    +0.048 A 
ATOM      3  C   LIG A   1      -7.574  -0.380 129.513  0.00  0.00    +0.004 A 
ATOM      4  C   LIG A   1      -7.328  -0.928 128.248  0.00  0.00    +0.014 A 
ATOM      5  C   LIG A   1      -7.636  -0.208 127.085  0.00  0.00    +0.044 A 
ATOM      6  C   LIG A   1      -7.398  -0.738 125.731  0.00  0.00    +0.143 A 
ATOM      7  C   LIG A   1      -7.687   0.001 124.644  0.00  0.00    +0.081 A 
ATOM      8  C   LIG A   1      -7.436  -0.537 123.329  0.00  0.00    +0.016 C 
ATOM      9  C   LIG A   1      -6.989  -1.791 123.204  0.00  0.00    +0.020 C 
ATOM     10  C   LIG A   1      -6.731  -2.673 124.405  0.00  0.00    +0.123 C 
ATOM     11  C   LIG A   1      -5.292  -3.199 124.354  0.00  0.00    +0.060 C 
ATOM     12  C   LIG A   1      -7.715  -3.848 124.397  0.00  0.00    +0.060 C 
ATOM     13  O   LIG A   1      -6.878  -2.017 125.684  0.00  0.00    -0.481 OA
ATOM     14  C   LIG A   1      -8.198   1.067 127.217  0.00  0.00    +0.095 A 
ATOM     15  N   LIG A   1      -8.489   1.814 126.069  0.00  0.00    -0.319 N 
ATOM     16  C   LIG A   1      -8.260   1.378 124.794  0.00  0.00    +0.260 A 
ATOM     17  O   LIG A   1      -8.525   2.082 123.824  0.00  0.00    -0.267 OA
ATOM     18  H   LIG A   1      -8.869   2.746 126.180  0.00  0.00    +0.169 HD
ENDROOT
BRANCH   1  20
ATOM     19  C   LIG A   1      -9.281   3.205 129.925  0.00  0.00    +0.277 C 
ATOM     20  O   LIG A   1      -9.022   2.857 128.564  0.00  0.00    -0.493 OA
ENDBRANCH   1  20
TORSDOF 1
ENDMDL
