MODEL 1
REMARK VINA RESULT:      -8.3      0.000      0.000
REMARK  Name = NuBBE_1325
REMARK  8 active torsions:
REMARK  status: ('A' for Active; 'I' for Inactive)
REMARK    1  A    between atoms: C_2  and  C_3
REMARK    2  A    between atoms: C_2  and  C_17
REMARK    3  A    between atoms: C_4  and  O_5
REMARK    4  A    between atoms: O_5  and  C_6
REMARK    5  A    between atoms: C_10  and  C_11
REMARK    6  A    between atoms: C_10  and  C_12
REMARK    7  A    between atoms: C_17  and  C_18
REMARK    8  A    between atoms: C_18  and  C_19
REMARK                            x       y       z     vdW  Elec       q    Type
REMARK                         _______ _______ _______ _____ _____    ______ ____
ROOT
ATOM      1  C   LIG A   1      -8.562  -0.081 125.720  0.00  0.00    +0.060 A 
ATOM      2  C   LIG A   1      -8.707  -1.450 126.028  0.00  0.00    +0.141 A 
ATOM      3  C   LIG A   1      -8.302  -1.912 127.304  0.00  0.00    +0.059 A 
ATOM      4  C   LIG A   1      -8.671  -3.227 127.827  0.00  0.00    +0.015 C 
ATOM      5  C   LIG A   1      -8.047  -3.672 128.925  0.00  0.00    +0.020 C 
ATOM      6  C   LIG A   1      -6.995  -2.854 129.639  0.00  0.00    +0.123 C 
ATOM      7  C   LIG A   1      -5.580  -3.273 129.214  0.00  0.00    +0.060 C 
ATOM      8  C   LIG A   1      -7.139  -3.059 131.155  0.00  0.00    +0.060 C 
ATOM      9  O   LIG A   1      -7.137  -1.434 129.403  0.00  0.00    -0.481 OA
ATOM     10  C   LIG A   1      -7.591  -1.057 128.164  0.00  0.00    +0.132 A 
ATOM     11  C   LIG A   1      -7.357   0.266 127.803  0.00  0.00    +0.047 A 
ATOM     12  C   LIG A   1      -7.854   0.750 126.601  0.00  0.00    +0.019 A 
ENDROOT
BRANCH   1  14
ATOM     13  O   LIG A   1     -10.453   0.757 124.585  0.00  0.00    -0.291 OA
ATOM     14  C   LIG A   1      -9.210   0.619 124.574  0.00  0.00    +0.174 C 
BRANCH  14  15
ATOM     15  C   LIG A   1      -8.392   1.090 123.402  0.00  0.00    +0.159 C 
BRANCH  15  16
ATOM     16  C   LIG A   1      -8.353   2.587 123.163  0.00  0.00    +0.171 C 
ATOM     17  O   LIG A   1      -8.654   3.365 124.077  0.00  0.00    -0.292 OA
BRANCH  16  18
ATOM     18  C   LIG A   1      -7.877   3.181 121.873  0.00  0.00    +0.018 A 
ATOM     19  C   LIG A   1      -8.844   3.576 120.932  0.00  0.00    +0.011 A 
ATOM     20  C   LIG A   1      -8.469   4.153 119.713  0.00  0.00    +0.001 A 
ATOM     21  C   LIG A   1      -7.122   4.343 119.422  0.00  0.00    +0.000 A 
ATOM     22  C   LIG A   1      -6.155   3.978 120.358  0.00  0.00    +0.001 A 
ATOM     23  C   LIG A   1      -6.529   3.415 121.588  0.00  0.00    +0.011 A 
ENDBRANCH  16  18
ENDBRANCH  15  16
ENDBRANCH  14  15
ENDBRANCH   1  14
BRANCH   2  24
ATOM     24  O   LIG A   1      -9.311  -2.344 125.180  0.00  0.00    -0.494 OA
ATOM     25  C   LIG A   1      -8.425  -2.898 124.196  0.00  0.00    +0.277 C 
ENDBRANCH   2  24
TORSDOF 5
ENDMDL
MODEL 2
REMARK VINA RESULT:      -8.2      3.805      5.170
REMARK  Name = NuBBE_1325
REMARK  8 active torsions:
REMARK  status: ('A' for Active; 'I' for Inactive)
REMARK    1  A    between atoms: C_2  and  C_3
REMARK    2  A    between atoms: C_2  and  C_17
REMARK    3  A    between atoms: C_4  and  O_5
REMARK    4  A    between atoms: O_5  and  C_6
REMARK    5  A    between atoms: C_10  and  C_11
REMARK    6  A    between atoms: C_10  and  C_12
REMARK    7  A    between atoms: C_17  and  C_18
REMARK    8  A    between atoms: C_18  and  C_19
REMARK                            x       y       z     vdW  Elec       q    Type
REMARK                         _______ _______ _______ _____ _____    ______ ____
ROOT
ATOM      1  C   LIG A   1      -7.713  -2.001 127.777  0.00  0.00    +0.060 A 
ATOM      2  C   LIG A   1      -6.308  -2.097 127.716  0.00  0.00    +0.141 A 
ATOM      3  C   LIG A   1      -5.608  -2.620 128.830  0.00  0.00    +0.059 A 
ATOM      4  C   LIG A   1      -4.204  -3.031 128.766  0.00  0.00    +0.015 C 
ATOM      5  C   LIG A   1      -3.562  -3.281 129.914  0.00  0.00    +0.020 C 
ATOM      6  C   LIG A   1      -4.245  -3.166 131.258  0.00  0.00    +0.123 C 
ATOM      7  C   LIG A   1      -3.956  -1.809 131.916  0.00  0.00    +0.060 C 
ATOM      8  C   LIG A   1      -3.734  -4.284 132.180  0.00  0.00    +0.060 C 
ATOM      9  O   LIG A   1      -5.680  -3.330 131.172  0.00  0.00    -0.481 OA
ATOM     10  C   LIG A   1      -6.287  -2.853 130.037  0.00  0.00    +0.132 A 
ATOM     11  C   LIG A   1      -7.662  -2.651 130.119  0.00  0.00    +0.047 A 
ATOM     12  C   LIG A   1      -8.367  -2.246 128.994  0.00  0.00    +0.019 A 
ENDROOT
BRANCH   1  14
ATOM     13  O   LIG A   1      -8.803  -0.603 126.220  0.00  0.00    -0.291 OA
ATOM     14  C   LIG A   1      -8.615  -1.776 126.611  0.00  0.00    +0.174 C 
BRANCH  14  15
ATOM     15  C   LIG A   1      -9.332  -2.930 125.962  0.00  0.00    +0.159 C 
BRANCH  15  16
ATOM     16  C   LIG A   1      -8.963  -3.231 124.522  0.00  0.00    +0.171 C 
ATOM     17  O   LIG A   1      -9.852  -3.450 123.691  0.00  0.00    -0.292 OA
BRANCH  16  18
ATOM     18  C   LIG A   1      -7.548  -3.191 124.033  0.00  0.00    +0.018 A 
ATOM     19  C   LIG A   1      -7.172  -2.134 123.185  0.00  0.00    +0.011 A 
ATOM     20  C   LIG A   1      -5.862  -2.027 122.705  0.00  0.00    +0.001 A 
ATOM     21  C   LIG A   1      -4.911  -2.975 123.070  0.00  0.00    +0.000 A 
ATOM     22  C   LIG A   1      -5.265  -4.014 123.930  0.00  0.00    +0.001 A 
ATOM     23  C   LIG A   1      -6.574  -4.114 124.426  0.00  0.00    +0.011 A 
ENDBRANCH  16  18
ENDBRANCH  15  16
ENDBRANCH  14  15
ENDBRANCH   1  14
BRANCH   2  24
ATOM     24  O   LIG A   1      -5.589  -1.791 126.587  0.00  0.00    -0.494 OA
ATOM     25  C   LIG A   1      -5.347  -0.386 126.417  0.00  0.00    +0.277 C 
ENDBRANCH   2  24
TORSDOF 5
ENDMDL
MODEL 3
REMARK VINA RESULT:      -8.2      7.967     10.870
REMARK  Name = NuBBE_1325
REMARK  8 active torsions:
REMARK  status: ('A' for Active; 'I' for Inactive)
REMARK    1  A    between atoms: C_2  and  C_3
REMARK    2  A    between atoms: C_2  and  C_17
REMARK    3  A    between atoms: C_4  and  O_5
REMARK    4  A    between atoms: O_5  and  C_6
REMARK    5  A    between atoms: C_10  and  C_11
REMARK    6  A    between atoms: C_10  and  C_12
REMARK    7  A    between atoms: C_17  and  C_18
REMARK    8  A    between atoms: C_18  and  C_19
REMARK                            x       y       z     vdW  Elec       q    Type
REMARK                         _______ _______ _______ _____ _____    ______ ____
ROOT
ATOM      1  C   LIG A   1      -9.564   5.672 131.563  0.00  0.00    +0.060 A 
ATOM      2  C   LIG A   1      -9.475   6.182 130.251  0.00  0.00    +0.141 A 
ATOM      3  C   LIG A   1     -10.480   7.067 129.790  0.00  0.00    +0.059 A 
ATOM      4  C   LIG A   1     -10.335   7.871 128.576  0.00  0.00    +0.015 C 
ATOM      5  C   LIG A   1     -11.419   8.488 128.089  0.00  0.00    +0.020 C 
ATOM      6  C   LIG A   1     -12.770   8.389 128.762  0.00  0.00    +0.123 C 
ATOM      7  C   LIG A   1     -13.643   7.311 128.104  0.00  0.00    +0.060 C 
ATOM      8  C   LIG A   1     -13.488   9.743 128.654  0.00  0.00    +0.060 C 
ATOM      9  O   LIG A   1     -12.670   8.091 130.174  0.00  0.00    -0.481 OA
ATOM     10  C   LIG A   1     -11.637   7.274 130.560  0.00  0.00    +0.132 A 
ATOM     11  C   LIG A   1     -11.763   6.677 131.810  0.00  0.00    +0.047 A 
ATOM     12  C   LIG A   1     -10.728   5.899 132.311  0.00  0.00    +0.019 A 
ENDROOT
BRANCH   1  14
ATOM     13  O   LIG A   1      -8.301   3.767 132.144  0.00  0.00    -0.291 OA
ATOM     14  C   LIG A   1      -8.459   4.997 132.303  0.00  0.00    +0.174 C 
BRANCH  14  15
ATOM     15  C   LIG A   1      -7.600   5.768 133.269  0.00  0.00    +0.159 C 
BRANCH  15  16
ATOM     16  C   LIG A   1      -6.104   5.542 133.170  0.00  0.00    +0.171 C 
ATOM     17  O   LIG A   1      -5.588   4.571 133.738  0.00  0.00    -0.292 OA
BRANCH  16  18
ATOM     18  C   LIG A   1      -5.216   6.409 132.331  0.00  0.00    +0.018 A 
ATOM     19  C   LIG A   1      -3.929   6.702 132.817  0.00  0.00    +0.011 A 
ATOM     20  C   LIG A   1      -3.043   7.492 132.077  0.00  0.00    +0.001 A 
ATOM     21  C   LIG A   1      -3.432   7.996 130.840  0.00  0.00    +0.000 A 
ATOM     22  C   LIG A   1      -4.697   7.692 130.336  0.00  0.00    +0.001 A 
ATOM     23  C   LIG A   1      -5.581   6.886 131.069  0.00  0.00    +0.011 A 
ENDBRANCH  16  18
ENDBRANCH  15  16
ENDBRANCH  14  15
ENDBRANCH   1  14
BRANCH   2  24
ATOM     24  O   LIG A   1      -8.407   5.932 129.425  0.00  0.00    -0.494 OA
ATOM     25  C   LIG A   1      -8.473   4.660 128.762  0.00  0.00    +0.277 C 
ENDBRANCH   2  24
TORSDOF 5
ENDMDL
MODEL 4
REMARK VINA RESULT:      -8.1      3.040      6.093
REMARK  Name = NuBBE_1325
REMARK  8 active torsions:
REMARK  status: ('A' for Active; 'I' for Inactive)
REMARK    1  A    between atoms: C_2  and  C_3
REMARK    2  A    between atoms: C_2  and  C_17
REMARK    3  A    between atoms: C_4  and  O_5
REMARK    4  A    between atoms: O_5  and  C_6
REMARK    5  A    between atoms: C_10  and  C_11
REMARK    6  A    between atoms: C_10  and  C_12
REMARK    7  A    between atoms: C_17  and  C_18
REMARK    8  A    between atoms: C_18  and  C_19
REMARK                            x       y       z     vdW  Elec       q    Type
REMARK                         _______ _______ _______ _____ _____    ______ ____
ROOT
ATOM      1  C   LIG A   1      -7.848   0.854 125.429  0.00  0.00    +0.060 A 
ATOM      2  C   LIG A   1      -7.380   2.173 125.256  0.00  0.00    +0.141 A 
ATOM      3  C   LIG A   1      -6.031   2.468 125.571  0.00  0.00    +0.059 A 
ATOM      4  C   LIG A   1      -5.372   3.708 125.159  0.00  0.00    +0.015 C 
ATOM      5  C   LIG A   1      -4.186   4.008 125.704  0.00  0.00    +0.020 C 
ATOM      6  C   LIG A   1      -3.511   3.103 126.710  0.00  0.00    +0.123 C 
ATOM      7  C   LIG A   1      -3.782   3.568 128.148  0.00  0.00    +0.060 C 
ATOM      8  C   LIG A   1      -1.995   3.115 126.461  0.00  0.00    +0.060 C 
ATOM      9  O   LIG A   1      -3.934   1.724 126.592  0.00  0.00    -0.481 OA
ATOM     10  C   LIG A   1      -5.239   1.510 126.225  0.00  0.00    +0.132 A 
ATOM     11  C   LIG A   1      -5.749   0.242 126.491  0.00  0.00    +0.047 A 
ATOM     12  C   LIG A   1      -7.033  -0.084 126.080  0.00  0.00    +0.019 A 
ENDROOT
BRANCH   1  14
ATOM     13  O   LIG A   1     -10.139   0.311 125.584  0.00  0.00    -0.291 OA
ATOM     14  C   LIG A   1      -9.115   0.307 124.865  0.00  0.00    +0.174 C 
BRANCH  14  15
ATOM     15  C   LIG A   1      -9.143  -0.297 123.487  0.00  0.00    +0.159 C 
BRANCH  15  16
ATOM     16  C   LIG A   1      -8.895  -1.791 123.399  0.00  0.00    +0.171 C 
ATOM     17  O   LIG A   1      -9.839  -2.561 123.180  0.00  0.00    -0.292 OA
BRANCH  16  18
ATOM     18  C   LIG A   1      -7.521  -2.382 123.482  0.00  0.00    +0.018 A 
ATOM     19  C   LIG A   1      -7.333  -3.501 124.312  0.00  0.00    +0.011 A 
ATOM     20  C   LIG A   1      -6.079  -4.112 124.423  0.00  0.00    +0.001 A 
ATOM     21  C   LIG A   1      -4.999  -3.613 123.703  0.00  0.00    +0.000 A 
ATOM     22  C   LIG A   1      -5.179  -2.518 122.858  0.00  0.00    +0.001 A 
ATOM     23  C   LIG A   1      -6.438  -1.913 122.732  0.00  0.00    +0.011 A 
ENDBRANCH  16  18
ENDBRANCH  15  16
ENDBRANCH  14  15
ENDBRANCH   1  14
BRANCH   2  24
ATOM     24  O   LIG A   1      -8.148   3.170 124.706  0.00  0.00    -0.494 OA
ATOM     25  C   LIG A   1      -8.148   3.176 123.270  0.00  0.00    +0.277 C 
ENDBRANCH   2  24
TORSDOF 5
ENDMDL
MODEL 5
REMARK VINA RESULT:      -8.0      5.701      7.142
REMARK  Name = NuBBE_1325
REMARK  8 active torsions:
REMARK  status: ('A' for Active; 'I' for Inactive)
REMARK    1  A    between atoms: C_2  and  C_3
REMARK    2  A    between atoms: C_2  and  C_17
REMARK    3  A    between atoms: C_4  and  O_5
REMARK    4  A    between atoms: O_5  and  C_6
REMARK    5  A    between atoms: C_10  and  C_11
REMARK    6  A    between atoms: C_10  and  C_12
REMARK    7  A    between atoms: C_17  and  C_18
REMARK    8  A    between atoms: C_18  and  C_19
REMARK                            x       y       z     vdW  Elec       q    Type
REMARK                         _______ _______ _______ _____ _____    ______ ____
ROOT
ATOM      1  C   LIG A   1      -9.383   2.572 130.589  0.00  0.00    +0.060 A 
ATOM      2  C   LIG A   1      -8.652   2.073 129.491  0.00  0.00    +0.141 A 
ATOM      3  C   LIG A   1      -8.237   0.719 129.502  0.00  0.00    +0.059 A 
ATOM      4  C   LIG A   1      -7.739   0.031 128.310  0.00  0.00    +0.015 C 
ATOM      5  C   LIG A   1      -7.146  -1.159 128.465  0.00  0.00    +0.020 C 
ATOM      6  C   LIG A   1      -6.992  -1.810 129.822  0.00  0.00    +0.123 C 
ATOM      7  C   LIG A   1      -5.600  -1.545 130.413  0.00  0.00    +0.060 C 
ATOM      8  C   LIG A   1      -7.190  -3.327 129.679  0.00  0.00    +0.060 C 
ATOM      9  O   LIG A   1      -7.982  -1.357 130.774  0.00  0.00    -0.481 OA
ATOM     10  C   LIG A   1      -8.384  -0.048 130.669  0.00  0.00    +0.132 A 
ATOM     11  C   LIG A   1      -9.011   0.490 131.788  0.00  0.00    +0.047 A 
ATOM     12  C   LIG A   1      -9.520   1.781 131.739  0.00  0.00    +0.019 A 
ENDROOT
BRANCH   1  14
ATOM     13  O   LIG A   1     -11.327   3.842 130.175  0.00  0.00    -0.291 OA
ATOM     14  C   LIG A   1     -10.153   3.848 130.605  0.00  0.00    +0.174 C 
BRANCH  14  15
ATOM     15  C   LIG A   1      -9.507   5.127 131.068  0.00  0.00    +0.159 C 
BRANCH  15  16
ATOM     16  C   LIG A   1     -10.443   6.266 131.424  0.00  0.00    +0.171 C 
ATOM     17  O   LIG A   1     -10.676   6.524 132.611  0.00  0.00    -0.292 OA
BRANCH  16  18
ATOM     18  C   LIG A   1     -11.043   7.164 130.386  0.00  0.00    +0.018 A 
ATOM     19  C   LIG A   1     -10.223   7.587 129.325  0.00  0.00    +0.011 A 
ATOM     20  C   LIG A   1     -10.724   8.413 128.313  0.00  0.00    +0.001 A 
ATOM     21  C   LIG A   1     -12.053   8.823 128.347  0.00  0.00    +0.000 A 
ATOM     22  C   LIG A   1     -12.883   8.389 129.381  0.00  0.00    +0.001 A 
ATOM     23  C   LIG A   1     -12.388   7.548 130.388  0.00  0.00    +0.011 A 
ENDBRANCH  16  18
ENDBRANCH  15  16
ENDBRANCH  14  15
ENDBRANCH   1  14
BRANCH   2  24
ATOM     24  O   LIG A   1      -8.401   2.816 128.364  0.00  0.00    -0.494 OA
ATOM     25  C   LIG A   1      -7.224   3.632 128.458  0.00  0.00    +0.277 C 
ENDBRANCH   2  24
TORSDOF 5
ENDMDL
MODEL 6
REMARK VINA RESULT:      -8.0      3.344      6.023
REMARK  Name = NuBBE_1325
REMARK  8 active torsions:
REMARK  status: ('A' for Active; 'I' for Inactive)
REMARK    1  A    between atoms: C_2  and  C_3
REMARK    2  A    between atoms: C_2  and  C_17
REMARK    3  A    between atoms: C_4  and  O_5
REMARK    4  A    between atoms: O_5  and  C_6
REMARK    5  A    between atoms: C_10  and  C_11
REMARK    6  A    between atoms: C_10  and  C_12
REMARK    7  A    between atoms: C_17  and  C_18
REMARK    8  A    between atoms: C_18  and  C_19
REMARK                            x       y       z     vdW  Elec       q    Type
REMARK                         _______ _______ _______ _____ _____    ______ ____
ROOT
ATOM      1  C   LIG A   1      -7.155   2.058 125.120  0.00  0.00    +0.060 A 
ATOM      2  C   LIG A   1      -6.468   1.663 126.287  0.00  0.00    +0.141 A 
ATOM      3  C   LIG A   1      -5.409   2.473 126.766  0.00  0.00    +0.059 A 
ATOM      4  C   LIG A   1      -4.834   2.319 128.102  0.00  0.00    +0.015 C 
ATOM      5  C   LIG A   1      -3.688   2.955 128.377  0.00  0.00    +0.020 C 
ATOM      6  C   LIG A   1      -2.990   3.830 127.360  0.00  0.00    +0.123 C 
ATOM      7  C   LIG A   1      -1.868   3.065 126.643  0.00  0.00    +0.060 C 
ATOM      8  C   LIG A   1      -2.384   5.047 128.074  0.00  0.00    +0.060 C 
ATOM      9  O   LIG A   1      -3.894   4.352 126.358  0.00  0.00    -0.481 OA
ATOM     10  C   LIG A   1      -4.933   3.538 125.983  0.00  0.00    +0.132 A 
ATOM     11  C   LIG A   1      -5.551   3.852 124.776  0.00  0.00    +0.047 A 
ATOM     12  C   LIG A   1      -6.661   3.130 124.361  0.00  0.00    +0.019 A 
ENDROOT
BRANCH   1  14
ATOM     13  O   LIG A   1      -9.406   1.452 125.483  0.00  0.00    -0.291 OA
ATOM     14  C   LIG A   1      -8.465   1.512 124.662  0.00  0.00    +0.174 C 
BRANCH  14  15
ATOM     15  C   LIG A   1      -8.627   0.983 123.262  0.00  0.00    +0.159 C 
BRANCH  15  16
ATOM     16  C   LIG A   1      -8.988  -0.485 123.133  0.00  0.00    +0.171 C 
ATOM     17  O   LIG A   1     -10.093  -0.810 122.681  0.00  0.00    -0.292 OA
BRANCH  16  18
ATOM     18  C   LIG A   1      -8.018  -1.580 123.453  0.00  0.00    +0.018 A 
ATOM     19  C   LIG A   1      -6.693  -1.441 123.001  0.00  0.00    +0.011 A 
ATOM     20  C   LIG A   1      -5.732  -2.418 123.280  0.00  0.00    +0.001 A 
ATOM     21  C   LIG A   1      -6.082  -3.545 124.016  0.00  0.00    +0.000 A 
ATOM     22  C   LIG A   1      -7.386  -3.682 124.491  0.00  0.00    +0.001 A 
ATOM     23  C   LIG A   1      -8.348  -2.696 124.227  0.00  0.00    +0.011 A 
ENDBRANCH  16  18
ENDBRANCH  15  16
ENDBRANCH  14  15
ENDBRANCH   1  14
BRANCH   2  24
ATOM     24  O   LIG A   1      -6.838   0.574 127.036  0.00  0.00    -0.494 OA
ATOM     25  C   LIG A   1      -6.235  -0.656 126.607  0.00  0.00    +0.277 C 
ENDBRANCH   2  24
TORSDOF 5
ENDMDL
MODEL 7
REMARK VINA RESULT:      -7.9      6.545      7.985
REMARK  Name = NuBBE_1325
REMARK  8 active torsions:
REMARK  status: ('A' for Active; 'I' for Inactive)
REMARK    1  A    between atoms: C_2  and  C_3
REMARK    2  A    between atoms: C_2  and  C_17
REMARK    3  A    between atoms: C_4  and  O_5
REMARK    4  A    between atoms: O_5  and  C_6
REMARK    5  A    between atoms: C_10  and  C_11
REMARK    6  A    between atoms: C_10  and  C_12
REMARK    7  A    between atoms: C_17  and  C_18
REMARK    8  A    between atoms: C_18  and  C_19
REMARK                            x       y       z     vdW  Elec       q    Type
REMARK                         _______ _______ _______ _____ _____    ______ ____
ROOT
ATOM      1  C   LIG A   1      -8.795   4.556 131.806  0.00  0.00    +0.060 A 
ATOM      2  C   LIG A   1      -8.555   3.542 130.856  0.00  0.00    +0.141 A 
ATOM      3  C   LIG A   1      -8.305   2.223 131.309  0.00  0.00    +0.059 A 
ATOM      4  C   LIG A   1      -8.336   1.059 130.422  0.00  0.00    +0.015 C 
ATOM      5  C   LIG A   1      -7.852  -0.101 130.882  0.00  0.00    +0.020 C 
ATOM      6  C   LIG A   1      -7.296  -0.244 132.281  0.00  0.00    +0.123 C 
ATOM      7  C   LIG A   1      -5.765  -0.121 132.288  0.00  0.00    +0.060 C 
ATOM      8  C   LIG A   1      -7.687  -1.619 132.842  0.00  0.00    +0.060 C 
ATOM      9  O   LIG A   1      -7.832   0.739 133.197  0.00  0.00    -0.481 OA
ATOM     10  C   LIG A   1      -8.108   1.980 132.678  0.00  0.00    +0.132 A 
ATOM     11  C   LIG A   1      -8.240   3.013 133.601  0.00  0.00    +0.047 A 
ATOM     12  C   LIG A   1      -8.597   4.282 133.168  0.00  0.00    +0.019 A 
ENDROOT
BRANCH   1  14
ATOM     13  O   LIG A   1      -8.591   6.840 131.252  0.00  0.00    -0.291 OA
ATOM     14  C   LIG A   1      -9.373   5.898 131.509  0.00  0.00    +0.174 C 
BRANCH  14  15
ATOM     15  C   LIG A   1     -10.859   6.126 131.584  0.00  0.00    +0.159 C 
BRANCH  15  16
ATOM     16  C   LIG A   1     -11.648   5.856 130.317  0.00  0.00    +0.171 C 
ATOM     17  O   LIG A   1     -11.780   4.695 129.909  0.00  0.00    -0.292 OA
BRANCH  16  18
ATOM     18  C   LIG A   1     -12.358   6.942 129.569  0.00  0.00    +0.018 A 
ATOM     19  C   LIG A   1     -12.188   8.266 130.008  0.00  0.00    +0.011 A 
ATOM     20  C   LIG A   1     -12.809   9.330 129.345  0.00  0.00    +0.001 A 
ATOM     21  C   LIG A   1     -13.606   9.082 128.232  0.00  0.00    +0.000 A 
ATOM     22  C   LIG A   1     -13.762   7.775 127.771  0.00  0.00    +0.001 A 
ATOM     23  C   LIG A   1     -13.127   6.708 128.425  0.00  0.00    +0.011 A 
ENDBRANCH  16  18
ENDBRANCH  15  16
ENDBRANCH  14  15
ENDBRANCH   1  14
BRANCH   2  24
ATOM     24  O   LIG A   1      -8.644   3.753 129.503  0.00  0.00    -0.494 OA
ATOM     25  C   LIG A   1      -7.436   4.260 128.914  0.00  0.00    +0.277 C 
ENDBRANCH   2  24
TORSDOF 5
ENDMDL
MODEL 8
REMARK VINA RESULT:      -7.9      7.839      9.294
REMARK  Name = NuBBE_1325
REMARK  8 active torsions:
REMARK  status: ('A' for Active; 'I' for Inactive)
REMARK    1  A    between atoms: C_2  and  C_3
REMARK    2  A    between atoms: C_2  and  C_17
REMARK    3  A    between atoms: C_4  and  O_5
REMARK    4  A    between atoms: O_5  and  C_6
REMARK    5  A    between atoms: C_10  and  C_11
REMARK    6  A    between atoms: C_10  and  C_12
REMARK    7  A    between atoms: C_17  and  C_18
REMARK    8  A    between atoms: C_18  and  C_19
REMARK                            x       y       z     vdW  Elec       q    Type
REMARK                         _______ _______ _______ _____ _____    ______ ____
ROOT
ATOM      1  C   LIG A   1      -9.335   5.549 131.483  0.00  0.00    +0.060 A 
ATOM      2  C   LIG A   1      -8.774   4.930 132.619  0.00  0.00    +0.141 A 
ATOM      3  C   LIG A   1      -7.484   5.325 133.048  0.00  0.00    +0.059 A 
ATOM      4  C   LIG A   1      -6.938   4.967 134.358  0.00  0.00    +0.015 C 
ATOM      5  C   LIG A   1      -5.634   5.172 134.580  0.00  0.00    +0.020 C 
ATOM      6  C   LIG A   1      -4.723   5.769 133.530  0.00  0.00    +0.123 C 
ATOM      7  C   LIG A   1      -3.961   4.677 132.766  0.00  0.00    +0.060 C 
ATOM      8  C   LIG A   1      -3.709   6.699 134.213  0.00  0.00    +0.060 C 
ATOM      9  O   LIG A   1      -5.438   6.580 132.568  0.00  0.00    -0.481 OA
ATOM     10  C   LIG A   1      -6.707   6.173 132.241  0.00  0.00    +0.132 A 
ATOM     11  C   LIG A   1      -7.232   6.694 131.063  0.00  0.00    +0.047 A 
ATOM     12  C   LIG A   1      -8.538   6.398 130.700  0.00  0.00    +0.019 A 
ENDROOT
BRANCH   1  14
ATOM     13  O   LIG A   1     -11.106   4.685 130.186  0.00  0.00    -0.291 OA
ATOM     14  C   LIG A   1     -10.771   5.487 131.085  0.00  0.00    +0.174 C 
BRANCH  14  15
ATOM     15  C   LIG A   1     -11.779   6.415 131.707  0.00  0.00    +0.159 C 
BRANCH  15  16
ATOM     16  C   LIG A   1     -12.383   7.465 130.793  0.00  0.00    +0.171 C 
ATOM     17  O   LIG A   1     -13.097   8.357 131.268  0.00  0.00    -0.292 OA
BRANCH  16  18
ATOM     18  C   LIG A   1     -12.080   7.522 129.328  0.00  0.00    +0.018 A 
ATOM     19  C   LIG A   1     -13.009   6.954 128.439  0.00  0.00    +0.011 A 
ATOM     20  C   LIG A   1     -12.796   6.987 127.057  0.00  0.00    +0.001 A 
ATOM     21  C   LIG A   1     -11.652   7.591 126.546  0.00  0.00    +0.000 A 
ATOM     22  C   LIG A   1     -10.735   8.181 127.416  0.00  0.00    +0.001 A 
ATOM     23  C   LIG A   1     -10.954   8.163 128.802  0.00  0.00    +0.011 A 
ENDBRANCH  16  18
ENDBRANCH  15  16
ENDBRANCH  14  15
ENDBRANCH   1  14
BRANCH   2  24
ATOM     24  O   LIG A   1      -9.461   4.023 133.387  0.00  0.00    -0.494 OA
ATOM     25  C   LIG A   1      -9.346   2.668 132.926  0.00  0.00    +0.277 C 
ENDBRANCH   2  24
TORSDOF 5
ENDMDL
MODEL 9
REMARK VINA RESULT:      -7.7      7.296      9.522
REMARK  Name = NuBBE_1325
REMARK  8 active torsions:
REMARK  status: ('A' for Active; 'I' for Inactive)
REMARK    1  A    between atoms: C_2  and  C_3
REMARK    2  A    between atoms: C_2  and  C_17
REMARK    3  A    between atoms: C_4  and  O_5
REMARK    4  A    between atoms: O_5  and  C_6
REMARK    5  A    between atoms: C_10  and  C_11
REMARK    6  A    between atoms: C_10  and  C_12
REMARK    7  A    between atoms: C_17  and  C_18
REMARK    8  A    between atoms: C_18  and  C_19
REMARK                            x       y       z     vdW  Elec       q    Type
REMARK                         _______ _______ _______ _____ _____    ______ ____
ROOT
ATOM      1  C   LIG A   1      -8.049   4.332 131.147  0.00  0.00    +0.060 A 
ATOM      2  C   LIG A   1      -7.228   5.380 131.612  0.00  0.00    +0.141 A 
ATOM      3  C   LIG A   1      -6.162   5.829 130.795  0.00  0.00    +0.059 A 
ATOM      4  C   LIG A   1      -5.444   7.080 131.043  0.00  0.00    +0.015 C 
ATOM      5  C   LIG A   1      -4.304   7.301 130.375  0.00  0.00    +0.020 C 
ATOM      6  C   LIG A   1      -3.755   6.311 129.373  0.00  0.00    +0.123 C 
ATOM      7  C   LIG A   1      -2.682   5.414 130.006  0.00  0.00    +0.060 C 
ATOM      8  C   LIG A   1      -3.131   7.078 128.197  0.00  0.00    +0.060 C 
ATOM      9  O   LIG A   1      -4.780   5.460 128.809  0.00  0.00    -0.481 OA
ATOM     10  C   LIG A   1      -5.817   5.111 129.638  0.00  0.00    +0.132 A 
ATOM     11  C   LIG A   1      -6.570   4.009 129.245  0.00  0.00    +0.047 A 
ATOM     12  C   LIG A   1      -7.684   3.637 129.984  0.00  0.00    +0.019 A 
ENDROOT
BRANCH   1  14
ATOM     13  O   LIG A   1      -9.410   3.093 132.623  0.00  0.00    -0.291 OA
ATOM     14  C   LIG A   1      -9.374   3.955 131.717  0.00  0.00    +0.174 C 
BRANCH  14  15
ATOM     15  C   LIG A   1     -10.643   4.550 131.169  0.00  0.00    +0.159 C 
BRANCH  15  16
ATOM     16  C   LIG A   1     -10.876   6.022 131.453  0.00  0.00    +0.171 C 
ATOM     17  O   LIG A   1     -10.680   6.469 132.590  0.00  0.00    -0.292 OA
BRANCH  16  18
ATOM     18  C   LIG A   1     -11.258   6.994 130.379  0.00  0.00    +0.018 A 
ATOM     19  C   LIG A   1     -10.258   7.418 129.487  0.00  0.00    +0.011 A 
ATOM     20  C   LIG A   1     -10.550   8.312 128.451  0.00  0.00    +0.001 A 
ATOM     21  C   LIG A   1     -11.846   8.791 128.293  0.00  0.00    +0.000 A 
ATOM     22  C   LIG A   1     -12.852   8.358 129.157  0.00  0.00    +0.001 A 
ATOM     23  C   LIG A   1     -12.566   7.449 130.186  0.00  0.00    +0.011 A 
ENDBRANCH  16  18
ENDBRANCH  15  16
ENDBRANCH  14  15
ENDBRANCH   1  14
BRANCH   2  24
ATOM     24  O   LIG A   1      -7.470   6.051 132.785  0.00  0.00    -0.494 OA
ATOM     25  C   LIG A   1      -6.897   5.422 133.942  0.00  0.00    +0.277 C 
ENDBRANCH   2  24
TORSDOF 5
ENDMDL
