MODEL 1
REMARK VINA RESULT:      -7.1      0.000      0.000
REMARK  Name = NuBBE_374
REMARK  22 active torsions:
REMARK  status: ('A' for Active; 'I' for Inactive)
REMARK    1  A    between atoms: C_1  and  C_2
REMARK    2  A    between atoms: C_2  and  C_3
REMARK    3  A    between atoms: C_2  and  O_34
REMARK    4  A    between atoms: C_4  and  C_5
REMARK    5  A    between atoms: C_5  and  C_6
REMARK    6  A    between atoms: C_7  and  C_8
REMARK    7  A    between atoms: N_9  and  C_10
REMARK    8  A    between atoms: C_10  and  C_11
REMARK    9  A    between atoms: C_11  and  C_12
REMARK   10  A    between atoms: C_11  and  C_13
REMARK   11  A    between atoms: C_11  and  C_31
REMARK   12  A    between atoms: C_13  and  C_14
REMARK   13  A    between atoms: C_14  and  C_15
REMARK   14  A    between atoms: C_14  and  C_16
REMARK   15  A    between atoms: C_14  and  C_29
REMARK   16  A    between atoms: C_16  and  N_17
REMARK   17  A    between atoms: C_18  and  C_19
REMARK   18  A    between atoms: C_20  and  C_21
REMARK   19  A    between atoms: C_20  and  C_26
REMARK   20  A    between atoms: C_22  and  C_23
REMARK   21  A    between atoms: C_23  and  C_24
REMARK   22  A    between atoms: C_23  and  O_25
REMARK                            x       y       z     vdW  Elec       q    Type
REMARK                         _______ _______ _______ _____ _____    ______ ____
ROOT
ATOM      1  C   LIG A   1      -7.963  -2.164 125.772  0.00  0.00    +0.147 C 
ATOM      2  O   LIG A   1      -8.769  -2.542 126.641  0.00  0.00    -0.296 OA
ENDROOT
BRANCH   1   3
ATOM      3  C   LIG A   1      -6.546  -1.708 126.260  0.00  0.00    +0.039 C 
ATOM      4  C   LIG A   1      -5.366  -2.538 125.757  0.00  0.00    +0.020 C 
ATOM      5  C   LIG A   1      -6.352  -0.244 125.827  0.00  0.00    +0.020 C 
BRANCH   3   6
ATOM      6  C   LIG A   1      -6.504  -1.799 127.823  0.00  0.00    +0.118 C 
BRANCH   6   8
ATOM      7  C   LIG A   1      -6.782   0.144 129.376  0.00  0.00    +0.237 C 
ATOM      8  N   LIG A   1      -7.297  -0.748 128.468  0.00  0.00    -0.311 N 
ATOM      9  H   LIG A   1      -8.283  -0.684 128.262  0.00  0.00    +0.149 HD
ATOM     10  O   LIG A   1      -5.622   0.173 129.750  0.00  0.00    -0.271 OA
BRANCH   7  13
ATOM     11  C   LIG A   1      -8.172   2.229 129.263  0.00  0.00    -0.046 C 
ATOM     12  C   LIG A   1      -7.591   2.727 127.967  0.00  0.00    +0.044 C 
ATOM     13  C   LIG A   1      -7.815   1.086 129.882  0.00  0.00    +0.070 C 
BRANCH  11  15
ATOM     14  C   LIG A   1      -9.296   4.421 129.623  0.00  0.00    +0.004 C 
ATOM     15  C   LIG A   1      -9.155   3.109 129.884  0.00  0.00    +0.002 C 
BRANCH  14  17
ATOM     16  C   LIG A   1      -9.692   6.338 131.221  0.00  0.00    +0.042 C 
ATOM     17  C   LIG A   1     -10.317   5.320 130.274  0.00  0.00    +0.134 C 
BRANCH  17  18
ATOM     18  O   LIG A   1     -11.254   4.541 131.011  0.00  0.00    -0.388 OA
ATOM     19  H   LIG A   1     -12.120   4.975 130.913  0.00  0.00    +0.210 HD
ENDBRANCH  17  18
ENDBRANCH  14  17
ENDBRANCH  11  15
ENDBRANCH   7  13
ENDBRANCH   6   8
ENDBRANCH   3   6
ENDBRANCH   1   3
BRANCH   1  20
ATOM     20  C   LIG A   1      -8.496  -2.016 124.294  0.00  0.00    +0.039 C 
ATOM     21  C   LIG A   1      -9.356  -3.281 124.013  0.00  0.00    +0.020 C 
ATOM     22  C   LIG A   1      -7.428  -2.033 123.199  0.00  0.00    +0.020 C 
BRANCH  20  23
ATOM     23  C   LIG A   1      -9.416  -0.766 124.176  0.00  0.00    +0.118 C 
BRANCH  23  24
ATOM     24  N   LIG A   1      -8.895   0.288 123.292  0.00  0.00    -0.311 N 
ATOM     25  C   LIG A   1      -9.052   1.645 123.547  0.00  0.00    +0.237 C 
ATOM     26  O   LIG A   1      -9.674   2.106 124.474  0.00  0.00    -0.271 OA
ATOM     27  H   LIG A   1      -8.362   0.003 122.484  0.00  0.00    +0.149 HD
BRANCH  25  28
ATOM     28  C   LIG A   1      -8.281   2.495 122.586  0.00  0.00    +0.070 C 
ATOM     29  C   LIG A   1      -7.083   3.090 122.773  0.00  0.00    -0.046 C 
ATOM     30  C   LIG A   1      -6.241   3.023 124.022  0.00  0.00    +0.044 C 
BRANCH  29  31
ATOM     31  C   LIG A   1      -6.529   3.875 121.663  0.00  0.00    +0.002 C 
ATOM     32  C   LIG A   1      -5.233   4.204 121.508  0.00  0.00    +0.004 C 
BRANCH  32  33
ATOM     33  C   LIG A   1      -4.650   5.085 120.439  0.00  0.00    +0.134 C 
ATOM     34  C   LIG A   1      -5.671   5.423 119.359  0.00  0.00    +0.042 C 
BRANCH  33  35
ATOM     35  O   LIG A   1      -4.157   6.293 120.999  0.00  0.00    -0.388 OA
ATOM     36  H   LIG A   1      -3.314   6.077 121.429  0.00  0.00    +0.210 HD
ENDBRANCH  33  35
ENDBRANCH  32  33
ENDBRANCH  29  31
ENDBRANCH  25  28
ENDBRANCH  23  24
ENDBRANCH  20  23
ENDBRANCH   1  20
TORSDOF 14
ENDMDL
MODEL 2
REMARK VINA RESULT:      -7.0      2.822      6.223
REMARK  Name = NuBBE_374
REMARK  22 active torsions:
REMARK  status: ('A' for Active; 'I' for Inactive)
REMARK    1  A    between atoms: C_1  and  C_2
REMARK    2  A    between atoms: C_2  and  C_3
REMARK    3  A    between atoms: C_2  and  O_34
REMARK    4  A    between atoms: C_4  and  C_5
REMARK    5  A    between atoms: C_5  and  C_6
REMARK    6  A    between atoms: C_7  and  C_8
REMARK    7  A    between atoms: N_9  and  C_10
REMARK    8  A    between atoms: C_10  and  C_11
REMARK    9  A    between atoms: C_11  and  C_12
REMARK   10  A    between atoms: C_11  and  C_13
REMARK   11  A    between atoms: C_11  and  C_31
REMARK   12  A    between atoms: C_13  and  C_14
REMARK   13  A    between atoms: C_14  and  C_15
REMARK   14  A    between atoms: C_14  and  C_16
REMARK   15  A    between atoms: C_14  and  C_29
REMARK   16  A    between atoms: C_16  and  N_17
REMARK   17  A    between atoms: C_18  and  C_19
REMARK   18  A    between atoms: C_20  and  C_21
REMARK   19  A    between atoms: C_20  and  C_26
REMARK   20  A    between atoms: C_22  and  C_23
REMARK   21  A    between atoms: C_23  and  C_24
REMARK   22  A    between atoms: C_23  and  O_25
REMARK                            x       y       z     vdW  Elec       q    Type
REMARK                         _______ _______ _______ _____ _____    ______ ____
ROOT
ATOM      1  C   LIG A   1      -8.752  -1.554 125.041  0.00  0.00    +0.147 C 
ATOM      2  O   LIG A   1      -9.692  -0.963 125.602  0.00  0.00    -0.296 OA
ENDROOT
BRANCH   1   3
ATOM      3  C   LIG A   1      -8.398  -1.110 123.581  0.00  0.00    +0.039 C 
ATOM      4  C   LIG A   1      -6.977  -1.423 123.114  0.00  0.00    +0.020 C 
ATOM      5  C   LIG A   1      -9.401  -1.788 122.630  0.00  0.00    +0.020 C 
BRANCH   3   6
ATOM      6  C   LIG A   1      -8.554   0.445 123.481  0.00  0.00    +0.118 C 
BRANCH   6   8
ATOM      7  C   LIG A   1      -6.962   2.361 123.721  0.00  0.00    +0.237 C 
ATOM      8  N   LIG A   1      -7.469   1.162 124.157  0.00  0.00    -0.311 N 
ATOM      9  H   LIG A   1      -7.045   0.748 124.974  0.00  0.00    +0.149 HD
ATOM     10  O   LIG A   1      -7.345   2.968 122.736  0.00  0.00    -0.271 OA
BRANCH   7  13
ATOM     11  C   LIG A   1      -5.979   3.841 125.492  0.00  0.00    -0.046 C 
ATOM     12  C   LIG A   1      -7.245   4.603 125.772  0.00  0.00    +0.044 C 
ATOM     13  C   LIG A   1      -5.856   2.849 124.587  0.00  0.00    +0.070 C 
BRANCH  11  15
ATOM     14  C   LIG A   1      -3.826   3.475 126.689  0.00  0.00    +0.004 C 
ATOM     15  C   LIG A   1      -4.809   4.279 126.243  0.00  0.00    +0.002 C 
BRANCH  14  17
ATOM     16  C   LIG A   1      -2.716   5.409 127.878  0.00  0.00    +0.042 C 
ATOM     17  C   LIG A   1      -2.622   3.944 127.466  0.00  0.00    +0.134 C 
BRANCH  17  18
ATOM     18  O   LIG A   1      -1.442   3.773 126.689  0.00  0.00    -0.388 OA
ATOM     19  H   LIG A   1      -1.721   3.408 125.831  0.00  0.00    +0.210 HD
ENDBRANCH  17  18
ENDBRANCH  14  17
ENDBRANCH  11  15
ENDBRANCH   7  13
ENDBRANCH   6   8
ENDBRANCH   3   6
ENDBRANCH   1   3
BRANCH   1  20
ATOM     20  C   LIG A   1      -8.127  -2.801 125.779  0.00  0.00    +0.039 C 
ATOM     21  C   LIG A   1      -8.201  -3.984 124.774  0.00  0.00    +0.020 C 
ATOM     22  C   LIG A   1      -8.893  -3.297 127.006  0.00  0.00    +0.020 C 
BRANCH  20  23
ATOM     23  C   LIG A   1      -6.629  -2.537 126.110  0.00  0.00    +0.118 C 
BRANCH  23  24
ATOM     24  N   LIG A   1      -6.405  -1.464 127.091  0.00  0.00    -0.311 N 
ATOM     25  C   LIG A   1      -5.641  -0.333 126.825  0.00  0.00    +0.237 C 
ATOM     26  O   LIG A   1      -5.037  -0.134 125.800  0.00  0.00    -0.271 OA
ATOM     27  H   LIG A   1      -6.867  -1.540 127.985  0.00  0.00    +0.149 HD
BRANCH  25  28
ATOM     28  C   LIG A   1      -5.719   0.675 127.929  0.00  0.00    +0.070 C 
ATOM     29  C   LIG A   1      -6.772   1.440 128.288  0.00  0.00    -0.046 C 
ATOM     30  C   LIG A   1      -8.133   1.444 127.638  0.00  0.00    +0.044 C 
BRANCH  29  31
ATOM     31  C   LIG A   1      -6.596   2.358 129.420  0.00  0.00    +0.002 C 
ATOM     32  C   LIG A   1      -6.422   3.690 129.328  0.00  0.00    +0.004 C 
BRANCH  32  33
ATOM     33  C   LIG A   1      -6.144   4.641 130.457  0.00  0.00    +0.134 C 
ATOM     34  C   LIG A   1      -4.724   4.494 130.992  0.00  0.00    +0.042 C 
BRANCH  33  35
ATOM     35  O   LIG A   1      -6.340   5.984 130.041  0.00  0.00    -0.388 OA
ATOM     36  H   LIG A   1      -7.194   6.011 129.579  0.00  0.00    +0.210 HD
ENDBRANCH  33  35
ENDBRANCH  32  33
ENDBRANCH  29  31
ENDBRANCH  25  28
ENDBRANCH  23  24
ENDBRANCH  20  23
ENDBRANCH   1  20
TORSDOF 14
ENDMDL
MODEL 3
REMARK VINA RESULT:      -7.0      3.662      8.599
REMARK  Name = NuBBE_374
REMARK  22 active torsions:
REMARK  status: ('A' for Active; 'I' for Inactive)
REMARK    1  A    between atoms: C_1  and  C_2
REMARK    2  A    between atoms: C_2  and  C_3
REMARK    3  A    between atoms: C_2  and  O_34
REMARK    4  A    between atoms: C_4  and  C_5
REMARK    5  A    between atoms: C_5  and  C_6
REMARK    6  A    between atoms: C_7  and  C_8
REMARK    7  A    between atoms: N_9  and  C_10
REMARK    8  A    between atoms: C_10  and  C_11
REMARK    9  A    between atoms: C_11  and  C_12
REMARK   10  A    between atoms: C_11  and  C_13
REMARK   11  A    between atoms: C_11  and  C_31
REMARK   12  A    between atoms: C_13  and  C_14
REMARK   13  A    between atoms: C_14  and  C_15
REMARK   14  A    between atoms: C_14  and  C_16
REMARK   15  A    between atoms: C_14  and  C_29
REMARK   16  A    between atoms: C_16  and  N_17
REMARK   17  A    between atoms: C_18  and  C_19
REMARK   18  A    between atoms: C_20  and  C_21
REMARK   19  A    between atoms: C_20  and  C_26
REMARK   20  A    between atoms: C_22  and  C_23
REMARK   21  A    between atoms: C_23  and  C_24
REMARK   22  A    between atoms: C_23  and  O_25
REMARK                            x       y       z     vdW  Elec       q    Type
REMARK                         _______ _______ _______ _____ _____    ______ ____
ROOT
ATOM      1  C   LIG A   1      -8.738  -1.436 124.930  0.00  0.00    +0.147 C 
ATOM      2  O   LIG A   1      -9.594  -0.788 125.556  0.00  0.00    -0.296 OA
ENDROOT
BRANCH   1   3
ATOM      3  C   LIG A   1      -8.431  -0.985 123.461  0.00  0.00    +0.039 C 
ATOM      4  C   LIG A   1      -7.045  -1.344 122.928  0.00  0.00    +0.020 C 
ATOM      5  C   LIG A   1      -9.499  -1.610 122.547  0.00  0.00    +0.020 C 
BRANCH   3   6
ATOM      6  C   LIG A   1      -8.531   0.576 123.389  0.00  0.00    +0.118 C 
BRANCH   6   8
ATOM      7  C   LIG A   1      -7.761   2.354 124.972  0.00  0.00    +0.237 C 
ATOM      8  N   LIG A   1      -7.513   1.243 124.206  0.00  0.00    -0.311 N 
ATOM      9  H   LIG A   1      -6.568   0.890 124.191  0.00  0.00    +0.149 HD
ATOM     10  O   LIG A   1      -8.839   2.914 125.069  0.00  0.00    -0.271 OA
BRANCH   7  13
ATOM     11  C   LIG A   1      -5.601   3.620 125.132  0.00  0.00    -0.046 C 
ATOM     12  C   LIG A   1      -5.634   4.152 123.725  0.00  0.00    +0.044 C 
ATOM     13  C   LIG A   1      -6.542   2.828 125.681  0.00  0.00    +0.070 C 
BRANCH  11  15
ATOM     14  C   LIG A   1      -3.610   3.095 126.532  0.00  0.00    +0.004 C 
ATOM     15  C   LIG A   1      -4.414   3.971 125.903  0.00  0.00    +0.002 C 
BRANCH  14  17
ATOM     16  C   LIG A   1      -2.516   4.834 128.004  0.00  0.00    +0.042 C 
ATOM     17  C   LIG A   1      -2.386   3.474 127.327  0.00  0.00    +0.134 C 
BRANCH  17  18
ATOM     18  O   LIG A   1      -1.242   3.505 126.480  0.00  0.00    -0.388 OA
ATOM     19  H   LIG A   1      -0.846   4.389 126.575  0.00  0.00    +0.210 HD
ENDBRANCH  17  18
ENDBRANCH  14  17
ENDBRANCH  11  15
ENDBRANCH   7  13
ENDBRANCH   6   8
ENDBRANCH   3   6
ENDBRANCH   1   3
BRANCH   1  20
ATOM     20  C   LIG A   1      -8.174  -2.747 125.604  0.00  0.00    +0.039 C 
ATOM     21  C   LIG A   1      -6.690  -2.450 125.959  0.00  0.00    +0.020 C 
ATOM     22  C   LIG A   1      -8.108  -3.981 124.703  0.00  0.00    +0.020 C 
BRANCH  20  23
ATOM     23  C   LIG A   1      -8.941  -3.046 126.926  0.00  0.00    +0.118 C 
BRANCH  23  24
ATOM     24  N   LIG A   1      -8.100  -3.586 128.005  0.00  0.00    -0.311 N 
ATOM     25  C   LIG A   1      -7.736  -2.854 129.128  0.00  0.00    +0.237 C 
ATOM     26  O   LIG A   1      -8.012  -1.694 129.316  0.00  0.00    -0.271 OA
ATOM     27  H   LIG A   1      -7.813  -4.551 127.938  0.00  0.00    +0.149 HD
BRANCH  25  28
ATOM     28  C   LIG A   1      -7.027  -3.693 130.146  0.00  0.00    +0.070 C 
ATOM     29  C   LIG A   1      -5.703  -3.940 130.248  0.00  0.00    -0.046 C 
ATOM     30  C   LIG A   1      -4.626  -3.411 129.335  0.00  0.00    +0.044 C 
BRANCH  29  31
ATOM     31  C   LIG A   1      -5.251  -4.799 131.348  0.00  0.00    +0.002 C 
ATOM     32  C   LIG A   1      -5.608  -4.670 132.639  0.00  0.00    +0.004 C 
BRANCH  32  33
ATOM     33  C   LIG A   1      -5.089  -5.470 133.801  0.00  0.00    +0.134 C 
ATOM     34  C   LIG A   1      -4.052  -4.699 134.609  0.00  0.00    +0.042 C 
BRANCH  33  35
ATOM     35  O   LIG A   1      -6.152  -5.850 134.662  0.00  0.00    -0.388 OA
ATOM     36  H   LIG A   1      -6.972  -5.528 134.252  0.00  0.00    +0.210 HD
ENDBRANCH  33  35
ENDBRANCH  32  33
ENDBRANCH  29  31
ENDBRANCH  25  28
ENDBRANCH  23  24
ENDBRANCH  20  23
ENDBRANCH   1  20
TORSDOF 14
ENDMDL
MODEL 4
REMARK VINA RESULT:      -7.0      3.441      5.996
REMARK  Name = NuBBE_374
REMARK  22 active torsions:
REMARK  status: ('A' for Active; 'I' for Inactive)
REMARK    1  A    between atoms: C_1  and  C_2
REMARK    2  A    between atoms: C_2  and  C_3
REMARK    3  A    between atoms: C_2  and  O_34
REMARK    4  A    between atoms: C_4  and  C_5
REMARK    5  A    between atoms: C_5  and  C_6
REMARK    6  A    between atoms: C_7  and  C_8
REMARK    7  A    between atoms: N_9  and  C_10
REMARK    8  A    between atoms: C_10  and  C_11
REMARK    9  A    between atoms: C_11  and  C_12
REMARK   10  A    between atoms: C_11  and  C_13
REMARK   11  A    between atoms: C_11  and  C_31
REMARK   12  A    between atoms: C_13  and  C_14
REMARK   13  A    between atoms: C_14  and  C_15
REMARK   14  A    between atoms: C_14  and  C_16
REMARK   15  A    between atoms: C_14  and  C_29
REMARK   16  A    between atoms: C_16  and  N_17
REMARK   17  A    between atoms: C_18  and  C_19
REMARK   18  A    between atoms: C_20  and  C_21
REMARK   19  A    between atoms: C_20  and  C_26
REMARK   20  A    between atoms: C_22  and  C_23
REMARK   21  A    between atoms: C_23  and  C_24
REMARK   22  A    between atoms: C_23  and  O_25
REMARK                            x       y       z     vdW  Elec       q    Type
REMARK                         _______ _______ _______ _____ _____    ______ ____
ROOT
ATOM      1  C   LIG A   1      -8.586  -0.565 123.437  0.00  0.00    +0.147 C 
ATOM      2  O   LIG A   1      -9.735  -1.020 123.302  0.00  0.00    -0.296 OA
ENDROOT
BRANCH   1   3
ATOM      3  C   LIG A   1      -7.425  -1.599 123.634  0.00  0.00    +0.039 C 
ATOM      4  C   LIG A   1      -6.507  -1.810 122.432  0.00  0.00    +0.020 C 
ATOM      5  C   LIG A   1      -6.583  -1.133 124.835  0.00  0.00    +0.020 C 
BRANCH   3   6
ATOM      6  C   LIG A   1      -8.054  -2.999 123.949  0.00  0.00    +0.118 C 
BRANCH   6   8
ATOM      7  C   LIG A   1      -9.000  -3.263 126.251  0.00  0.00    +0.237 C 
ATOM      8  N   LIG A   1      -7.952  -3.353 125.369  0.00  0.00    -0.311 N 
ATOM      9  H   LIG A   1      -7.061  -3.654 125.734  0.00  0.00    +0.149 HD
ATOM     10  O   LIG A   1     -10.125  -2.887 125.969  0.00  0.00    -0.271 OA
BRANCH   7  13
ATOM     11  C   LIG A   1      -8.056  -2.841 128.537  0.00  0.00    -0.046 C 
ATOM     12  C   LIG A   1      -7.754  -1.385 128.309  0.00  0.00    +0.044 C 
ATOM     13  C   LIG A   1      -8.608  -3.668 127.627  0.00  0.00    +0.070 C 
BRANCH  11  15
ATOM     14  C   LIG A   1      -6.385  -3.586 130.226  0.00  0.00    +0.004 C 
ATOM     15  C   LIG A   1      -7.654  -3.365 129.837  0.00  0.00    +0.002 C 
BRANCH  14  17
ATOM     16  C   LIG A   1      -4.960  -3.252 132.286  0.00  0.00    +0.042 C 
ATOM     17  C   LIG A   1      -5.984  -4.129 131.575  0.00  0.00    +0.134 C 
BRANCH  17  18
ATOM     18  O   LIG A   1      -5.432  -5.433 131.432  0.00  0.00    -0.388 OA
ATOM     19  H   LIG A   1      -5.802  -5.807 130.612  0.00  0.00    +0.210 HD
ENDBRANCH  17  18
ENDBRANCH  14  17
ENDBRANCH  11  15
ENDBRANCH   7  13
ENDBRANCH   6   8
ENDBRANCH   3   6
ENDBRANCH   1   3
BRANCH   1  20
ATOM     20  C   LIG A   1      -8.429   0.999 123.572  0.00  0.00    +0.039 C 
ATOM     21  C   LIG A   1      -9.496   1.626 122.631  0.00  0.00    +0.020 C 
ATOM     22  C   LIG A   1      -7.102   1.578 123.079  0.00  0.00    +0.020 C 
BRANCH  20  23
ATOM     23  C   LIG A   1      -8.741   1.449 125.029  0.00  0.00    +0.118 C 
BRANCH  23  24
ATOM     24  N   LIG A   1      -7.666   2.224 125.668  0.00  0.00    -0.311 N 
ATOM     25  C   LIG A   1      -7.734   3.597 125.872  0.00  0.00    +0.237 C 
ATOM     26  O   LIG A   1      -8.637   4.307 125.503  0.00  0.00    -0.271 OA
ATOM     27  H   LIG A   1      -6.862   1.720 126.009  0.00  0.00    +0.149 HD
BRANCH  25  28
ATOM     28  C   LIG A   1      -6.588   4.105 126.692  0.00  0.00    +0.070 C 
ATOM     29  C   LIG A   1      -5.306   4.291 126.311  0.00  0.00    -0.046 C 
ATOM     30  C   LIG A   1      -4.737   4.021 124.941  0.00  0.00    +0.044 C 
BRANCH  29  31
ATOM     31  C   LIG A   1      -4.364   4.809 127.310  0.00  0.00    +0.002 C 
ATOM     32  C   LIG A   1      -4.241   6.099 127.675  0.00  0.00    +0.004 C 
BRANCH  32  33
ATOM     33  C   LIG A   1      -3.225   6.674 128.620  0.00  0.00    +0.134 C 
ATOM     34  C   LIG A   1      -3.187   5.921 129.945  0.00  0.00    +0.042 C 
BRANCH  33  35
ATOM     35  O   LIG A   1      -1.929   6.646 128.040  0.00  0.00    -0.388 OA
ATOM     36  H   LIG A   1      -1.740   5.717 127.825  0.00  0.00    +0.210 HD
ENDBRANCH  33  35
ENDBRANCH  32  33
ENDBRANCH  29  31
ENDBRANCH  25  28
ENDBRANCH  23  24
ENDBRANCH  20  23
ENDBRANCH   1  20
TORSDOF 14
ENDMDL
MODEL 5
REMARK VINA RESULT:      -7.0      4.436      8.583
REMARK  Name = NuBBE_374
REMARK  22 active torsions:
REMARK  status: ('A' for Active; 'I' for Inactive)
REMARK    1  A    between atoms: C_1  and  C_2
REMARK    2  A    between atoms: C_2  and  C_3
REMARK    3  A    between atoms: C_2  and  O_34
REMARK    4  A    between atoms: C_4  and  C_5
REMARK    5  A    between atoms: C_5  and  C_6
REMARK    6  A    between atoms: C_7  and  C_8
REMARK    7  A    between atoms: N_9  and  C_10
REMARK    8  A    between atoms: C_10  and  C_11
REMARK    9  A    between atoms: C_11  and  C_12
REMARK   10  A    between atoms: C_11  and  C_13
REMARK   11  A    between atoms: C_11  and  C_31
REMARK   12  A    between atoms: C_13  and  C_14
REMARK   13  A    between atoms: C_14  and  C_15
REMARK   14  A    between atoms: C_14  and  C_16
REMARK   15  A    between atoms: C_14  and  C_29
REMARK   16  A    between atoms: C_16  and  N_17
REMARK   17  A    between atoms: C_18  and  C_19
REMARK   18  A    between atoms: C_20  and  C_21
REMARK   19  A    between atoms: C_20  and  C_26
REMARK   20  A    between atoms: C_22  and  C_23
REMARK   21  A    between atoms: C_23  and  C_24
REMARK   22  A    between atoms: C_23  and  O_25
REMARK                            x       y       z     vdW  Elec       q    Type
REMARK                         _______ _______ _______ _____ _____    ______ ____
ROOT
ATOM      1  C   LIG A   1      -8.315   0.273 131.881  0.00  0.00    +0.147 C 
ATOM      2  O   LIG A   1      -9.388  -0.278 131.582  0.00  0.00    -0.296 OA
ENDROOT
BRANCH   1   3
ATOM      3  C   LIG A   1      -7.201  -0.627 132.516  0.00  0.00    +0.039 C 
ATOM      4  C   LIG A   1      -6.492  -0.048 133.740  0.00  0.00    +0.020 C 
ATOM      5  C   LIG A   1      -7.846  -1.971 132.897  0.00  0.00    +0.020 C 
BRANCH   3   6
ATOM      6  C   LIG A   1      -6.085  -0.869 131.444  0.00  0.00    +0.118 C 
BRANCH   6   8
ATOM      7  C   LIG A   1      -6.502  -2.088 129.299  0.00  0.00    +0.237 C 
ATOM      8  N   LIG A   1      -6.625  -0.969 130.085  0.00  0.00    -0.311 N 
ATOM      9  H   LIG A   1      -7.089  -0.168 129.684  0.00  0.00    +0.149 HD
ATOM     10  O   LIG A   1      -5.943  -3.119 129.629  0.00  0.00    -0.271 OA
BRANCH   7  13
ATOM     11  C   LIG A   1      -8.137  -2.657 127.483  0.00  0.00    -0.046 C 
ATOM     12  C   LIG A   1      -8.792  -3.793 128.221  0.00  0.00    +0.044 C 
ATOM     13  C   LIG A   1      -7.128  -1.904 127.963  0.00  0.00    +0.070 C 
BRANCH  11  15
ATOM     14  C   LIG A   1      -8.407  -3.228 125.075  0.00  0.00    +0.004 C 
ATOM     15  C   LIG A   1      -8.631  -2.425 126.131  0.00  0.00    +0.002 C 
BRANCH  14  17
ATOM     16  C   LIG A   1      -9.008  -1.490 123.341  0.00  0.00    +0.042 C 
ATOM     17  C   LIG A   1      -8.924  -2.974 123.681  0.00  0.00    +0.134 C 
BRANCH  17  18
ATOM     18  O   LIG A   1     -10.221  -3.540 123.530  0.00  0.00    -0.388 OA
ATOM     19  H   LIG A   1     -10.496  -3.851 124.411  0.00  0.00    +0.210 HD
ENDBRANCH  17  18
ENDBRANCH  14  17
ENDBRANCH  11  15
ENDBRANCH   7  13
ENDBRANCH   6   8
ENDBRANCH   3   6
ENDBRANCH   1   3
BRANCH   1  20
ATOM     20  C   LIG A   1      -8.240   1.844 131.756  0.00  0.00    +0.039 C 
ATOM     21  C   LIG A   1      -8.897   2.205 130.394  0.00  0.00    +0.020 C 
ATOM     22  C   LIG A   1      -6.832   2.436 131.666  0.00  0.00    +0.020 C 
BRANCH  20  23
ATOM     23  C   LIG A   1      -9.069   2.516 132.889  0.00  0.00    +0.118 C 
BRANCH  23  24
ATOM     24  N   LIG A   1      -9.841   3.692 132.460  0.00  0.00    -0.311 N 
ATOM     25  C   LIG A   1      -9.477   4.998 132.767  0.00  0.00    +0.237 C 
ATOM     26  O   LIG A   1      -8.538   5.308 133.458  0.00  0.00    -0.271 OA
ATOM     27  H   LIG A   1     -10.650   3.536 131.878  0.00  0.00    +0.149 HD
BRANCH  25  28
ATOM     28  C   LIG A   1     -10.334   6.005 132.065  0.00  0.00    +0.070 C 
ATOM     29  C   LIG A   1     -10.264   6.409 130.779  0.00  0.00    -0.046 C 
ATOM     30  C   LIG A   1      -9.282   5.920 129.744  0.00  0.00    +0.044 C 
BRANCH  29  31
ATOM     31  C   LIG A   1     -11.231   7.415 130.324  0.00  0.00    +0.002 C 
ATOM     32  C   LIG A   1     -11.613   7.614 129.049  0.00  0.00    +0.004 C 
BRANCH  32  33
ATOM     33  C   LIG A   1     -12.524   8.695 128.541  0.00  0.00    +0.134 C 
ATOM     34  C   LIG A   1     -13.774   8.125 127.880  0.00  0.00    +0.042 C 
BRANCH  33  35
ATOM     35  O   LIG A   1     -12.918   9.557 129.598  0.00  0.00    -0.388 OA
ATOM     36  H   LIG A   1     -12.391   9.304 130.374  0.00  0.00    +0.210 HD
ENDBRANCH  33  35
ENDBRANCH  32  33
ENDBRANCH  29  31
ENDBRANCH  25  28
ENDBRANCH  23  24
ENDBRANCH  20  23
ENDBRANCH   1  20
TORSDOF 14
ENDMDL
MODEL 6
REMARK VINA RESULT:      -6.9      3.467      7.633
REMARK  Name = NuBBE_374
REMARK  22 active torsions:
REMARK  status: ('A' for Active; 'I' for Inactive)
REMARK    1  A    between atoms: C_1  and  C_2
REMARK    2  A    between atoms: C_2  and  C_3
REMARK    3  A    between atoms: C_2  and  O_34
REMARK    4  A    between atoms: C_4  and  C_5
REMARK    5  A    between atoms: C_5  and  C_6
REMARK    6  A    between atoms: C_7  and  C_8
REMARK    7  A    between atoms: N_9  and  C_10
REMARK    8  A    between atoms: C_10  and  C_11
REMARK    9  A    between atoms: C_11  and  C_12
REMARK   10  A    between atoms: C_11  and  C_13
REMARK   11  A    between atoms: C_11  and  C_31
REMARK   12  A    between atoms: C_13  and  C_14
REMARK   13  A    between atoms: C_14  and  C_15
REMARK   14  A    between atoms: C_14  and  C_16
REMARK   15  A    between atoms: C_14  and  C_29
REMARK   16  A    between atoms: C_16  and  N_17
REMARK   17  A    between atoms: C_18  and  C_19
REMARK   18  A    between atoms: C_20  and  C_21
REMARK   19  A    between atoms: C_20  and  C_26
REMARK   20  A    between atoms: C_22  and  C_23
REMARK   21  A    between atoms: C_23  and  C_24
REMARK   22  A    between atoms: C_23  and  O_25
REMARK                            x       y       z     vdW  Elec       q    Type
REMARK                         _______ _______ _______ _____ _____    ______ ____
ROOT
ATOM      1  C   LIG A   1      -8.843  -1.211 124.844  0.00  0.00    +0.147 C 
ATOM      2  O   LIG A   1      -9.657  -1.606 125.697  0.00  0.00    -0.296 OA
ENDROOT
BRANCH   1   3
ATOM      3  C   LIG A   1      -7.948  -2.294 124.151  0.00  0.00    +0.039 C 
ATOM      4  C   LIG A   1      -8.291  -3.748 124.472  0.00  0.00    +0.020 C 
ATOM      5  C   LIG A   1      -8.045  -2.078 122.631  0.00  0.00    +0.020 C 
BRANCH   3   6
ATOM      6  C   LIG A   1      -6.466  -2.088 124.615  0.00  0.00    +0.118 C 
BRANCH   6   8
ATOM      7  C   LIG A   1      -5.753  -1.730 126.987  0.00  0.00    +0.237 C 
ATOM      8  N   LIG A   1      -6.240  -2.539 125.991  0.00  0.00    -0.311 N 
ATOM      9  H   LIG A   1      -6.424  -3.504 126.224  0.00  0.00    +0.149 HD
ATOM     10  O   LIG A   1      -5.455  -0.555 126.853  0.00  0.00    -0.271 OA
BRANCH   7  13
ATOM     11  C   LIG A   1      -6.638  -2.924 129.007  0.00  0.00    -0.046 C 
ATOM     12  C   LIG A   1      -8.090  -2.795 128.635  0.00  0.00    +0.044 C 
ATOM     13  C   LIG A   1      -5.607  -2.455 128.276  0.00  0.00    +0.070 C 
BRANCH  11  15
ATOM     14  C   LIG A   1      -5.211  -4.128 130.655  0.00  0.00    +0.004 C 
ATOM     15  C   LIG A   1      -6.379  -3.567 130.290  0.00  0.00    +0.002 C 
BRANCH  14  17
ATOM     16  C   LIG A   1      -6.016  -4.447 133.029  0.00  0.00    +0.042 C 
ATOM     17  C   LIG A   1      -4.958  -4.790 131.986  0.00  0.00    +0.134 C 
BRANCH  17  18
ATOM     18  O   LIG A   1      -3.687  -4.398 132.493  0.00  0.00    -0.388 OA
ATOM     19  H   LIG A   1      -3.763  -4.390 133.464  0.00  0.00    +0.210 HD
ENDBRANCH  17  18
ENDBRANCH  14  17
ENDBRANCH  11  15
ENDBRANCH   7  13
ENDBRANCH   6   8
ENDBRANCH   3   6
ENDBRANCH   1   3
BRANCH   1  20
ATOM     20  C   LIG A   1      -8.665   0.348 124.670  0.00  0.00    +0.039 C 
ATOM     21  C   LIG A   1      -9.673   0.780 123.567  0.00  0.00    +0.020 C 
ATOM     22  C   LIG A   1      -7.305   0.805 124.139  0.00  0.00    +0.020 C 
BRANCH  20  23
ATOM     23  C   LIG A   1      -9.040   1.085 125.988  0.00  0.00    +0.118 C 
BRANCH  23  24
ATOM     24  N   LIG A   1      -8.058   0.927 127.072  0.00  0.00    -0.311 N 
ATOM     25  C   LIG A   1      -8.199   1.517 128.322  0.00  0.00    +0.237 C 
ATOM     26  O   LIG A   1      -9.096   2.260 128.638  0.00  0.00    -0.271 OA
ATOM     27  H   LIG A   1      -7.266   0.325 126.903  0.00  0.00    +0.149 HD
BRANCH  25  28
ATOM     28  C   LIG A   1      -7.151   1.056 129.287  0.00  0.00    +0.070 C 
ATOM     29  C   LIG A   1      -7.324   0.413 130.462  0.00  0.00    -0.046 C 
ATOM     30  C   LIG A   1      -8.643   0.010 131.071  0.00  0.00    +0.044 C 
BRANCH  29  31
ATOM     31  C   LIG A   1      -6.124   0.061 131.231  0.00  0.00    +0.002 C 
ATOM     32  C   LIG A   1      -6.112  -0.599 132.404  0.00  0.00    +0.004 C 
BRANCH  32  33
ATOM     33  C   LIG A   1      -4.913  -0.890 133.261  0.00  0.00    +0.134 C 
ATOM     34  C   LIG A   1      -3.623  -0.916 132.449  0.00  0.00    +0.042 C 
BRANCH  33  35
ATOM     35  O   LIG A   1      -4.786   0.079 134.291  0.00  0.00    -0.388 OA
ATOM     36  H   LIG A   1      -4.105  -0.250 134.901  0.00  0.00    +0.210 HD
ENDBRANCH  33  35
ENDBRANCH  32  33
ENDBRANCH  29  31
ENDBRANCH  25  28
ENDBRANCH  23  24
ENDBRANCH  20  23
ENDBRANCH   1  20
TORSDOF 14
ENDMDL
MODEL 7
REMARK VINA RESULT:      -6.9      2.473      7.070
REMARK  Name = NuBBE_374
REMARK  22 active torsions:
REMARK  status: ('A' for Active; 'I' for Inactive)
REMARK    1  A    between atoms: C_1  and  C_2
REMARK    2  A    between atoms: C_2  and  C_3
REMARK    3  A    between atoms: C_2  and  O_34
REMARK    4  A    between atoms: C_4  and  C_5
REMARK    5  A    between atoms: C_5  and  C_6
REMARK    6  A    between atoms: C_7  and  C_8
REMARK    7  A    between atoms: N_9  and  C_10
REMARK    8  A    between atoms: C_10  and  C_11
REMARK    9  A    between atoms: C_11  and  C_12
REMARK   10  A    between atoms: C_11  and  C_13
REMARK   11  A    between atoms: C_11  and  C_31
REMARK   12  A    between atoms: C_13  and  C_14
REMARK   13  A    between atoms: C_14  and  C_15
REMARK   14  A    between atoms: C_14  and  C_16
REMARK   15  A    between atoms: C_14  and  C_29
REMARK   16  A    between atoms: C_16  and  N_17
REMARK   17  A    between atoms: C_18  and  C_19
REMARK   18  A    between atoms: C_20  and  C_21
REMARK   19  A    between atoms: C_20  and  C_26
REMARK   20  A    between atoms: C_22  and  C_23
REMARK   21  A    between atoms: C_23  and  C_24
REMARK   22  A    between atoms: C_23  and  O_25
REMARK                            x       y       z     vdW  Elec       q    Type
REMARK                         _______ _______ _______ _____ _____    ______ ____
ROOT
ATOM      1  C   LIG A   1      -8.572  -1.697 124.865  0.00  0.00    +0.147 C 
ATOM      2  O   LIG A   1      -9.555  -1.301 125.517  0.00  0.00    -0.296 OA
ENDROOT
BRANCH   1   3
ATOM      3  C   LIG A   1      -8.375  -1.097 123.432  0.00  0.00    +0.039 C 
ATOM      4  C   LIG A   1      -6.990  -1.282 122.814  0.00  0.00    +0.020 C 
ATOM      5  C   LIG A   1      -9.427  -1.736 122.509  0.00  0.00    +0.020 C 
BRANCH   3   6
ATOM      6  C   LIG A   1      -8.614   0.449 123.502  0.00  0.00    +0.118 C 
BRANCH   6   8
ATOM      7  C   LIG A   1      -7.883   2.287 125.035  0.00  0.00    +0.237 C 
ATOM      8  N   LIG A   1      -7.624   1.133 124.339  0.00  0.00    -0.311 N 
ATOM      9  H   LIG A   1      -6.688   0.758 124.392  0.00  0.00    +0.149 HD
ATOM     10  O   LIG A   1      -8.951   2.875 125.046  0.00  0.00    -0.271 OA
BRANCH   7  13
ATOM     11  C   LIG A   1      -5.734   3.561 125.265  0.00  0.00    -0.046 C 
ATOM     12  C   LIG A   1      -5.719   4.086 123.855  0.00  0.00    +0.044 C 
ATOM     13  C   LIG A   1      -6.692   2.768 125.785  0.00  0.00    +0.070 C 
BRANCH  11  15
ATOM     14  C   LIG A   1      -3.638   3.060 126.512  0.00  0.00    +0.004 C 
ATOM     15  C   LIG A   1      -4.577   3.920 126.076  0.00  0.00    +0.002 C 
BRANCH  14  17
ATOM     16  C   LIG A   1      -2.512   4.887 127.847  0.00  0.00    +0.042 C 
ATOM     17  C   LIG A   1      -2.446   3.447 127.351  0.00  0.00    +0.134 C 
BRANCH  17  18
ATOM     18  O   LIG A   1      -1.247   3.288 126.601  0.00  0.00    -0.388 OA
ATOM     19  H   LIG A   1      -0.814   2.480 126.931  0.00  0.00    +0.210 HD
ENDBRANCH  17  18
ENDBRANCH  14  17
ENDBRANCH  11  15
ENDBRANCH   7  13
ENDBRANCH   6   8
ENDBRANCH   3   6
ENDBRANCH   1   3
BRANCH   1  20
ATOM     20  C   LIG A   1      -7.725  -2.884 125.468  0.00  0.00    +0.039 C 
ATOM     21  C   LIG A   1      -6.367  -2.269 125.909  0.00  0.00    +0.020 C 
ATOM     22  C   LIG A   1      -7.338  -3.989 124.483  0.00  0.00    +0.020 C 
BRANCH  20  23
ATOM     23  C   LIG A   1      -8.429  -3.465 126.729  0.00  0.00    +0.118 C 
BRANCH  23  24
ATOM     24  N   LIG A   1      -8.569  -2.510 127.839  0.00  0.00    -0.311 N 
ATOM     25  C   LIG A   1      -7.864  -2.618 129.031  0.00  0.00    +0.237 C 
ATOM     26  O   LIG A   1      -7.116  -3.523 129.312  0.00  0.00    -0.271 OA
ATOM     27  H   LIG A   1      -9.177  -1.717 127.702  0.00  0.00    +0.149 HD
BRANCH  25  28
ATOM     28  C   LIG A   1      -8.062  -1.427 129.916  0.00  0.00    +0.070 C 
ATOM     29  C   LIG A   1      -7.513  -0.198 129.798  0.00  0.00    -0.046 C 
ATOM     30  C   LIG A   1      -6.557   0.250 128.721  0.00  0.00    +0.044 C 
BRANCH  29  31
ATOM     31  C   LIG A   1      -7.873   0.811 130.801  0.00  0.00    +0.002 C 
ATOM     32  C   LIG A   1      -8.845   1.732 130.670  0.00  0.00    +0.004 C 
BRANCH  32  33
ATOM     33  C   LIG A   1      -9.174   2.837 131.634  0.00  0.00    +0.134 C 
ATOM     34  C   LIG A   1      -9.965   3.958 130.971  0.00  0.00    +0.042 C 
BRANCH  33  35
ATOM     35  O   LIG A   1      -9.922   2.337 132.733  0.00  0.00    -0.388 OA
ATOM     36  H   LIG A   1     -10.448   3.079 133.073  0.00  0.00    +0.210 HD
ENDBRANCH  33  35
ENDBRANCH  32  33
ENDBRANCH  29  31
ENDBRANCH  25  28
ENDBRANCH  23  24
ENDBRANCH  20  23
ENDBRANCH   1  20
TORSDOF 14
ENDMDL
MODEL 8
REMARK VINA RESULT:      -6.9      4.487      6.033
REMARK  Name = NuBBE_374
REMARK  22 active torsions:
REMARK  status: ('A' for Active; 'I' for Inactive)
REMARK    1  A    between atoms: C_1  and  C_2
REMARK    2  A    between atoms: C_2  and  C_3
REMARK    3  A    between atoms: C_2  and  O_34
REMARK    4  A    between atoms: C_4  and  C_5
REMARK    5  A    between atoms: C_5  and  C_6
REMARK    6  A    between atoms: C_7  and  C_8
REMARK    7  A    between atoms: N_9  and  C_10
REMARK    8  A    between atoms: C_10  and  C_11
REMARK    9  A    between atoms: C_11  and  C_12
REMARK   10  A    between atoms: C_11  and  C_13
REMARK   11  A    between atoms: C_11  and  C_31
REMARK   12  A    between atoms: C_13  and  C_14
REMARK   13  A    between atoms: C_14  and  C_15
REMARK   14  A    between atoms: C_14  and  C_16
REMARK   15  A    between atoms: C_14  and  C_29
REMARK   16  A    between atoms: C_16  and  N_17
REMARK   17  A    between atoms: C_18  and  C_19
REMARK   18  A    between atoms: C_20  and  C_21
REMARK   19  A    between atoms: C_20  and  C_26
REMARK   20  A    between atoms: C_22  and  C_23
REMARK   21  A    between atoms: C_23  and  C_24
REMARK   22  A    between atoms: C_23  and  O_25
REMARK                            x       y       z     vdW  Elec       q    Type
REMARK                         _______ _______ _______ _____ _____    ______ ____
ROOT
ATOM      1  C   LIG A   1      -5.819  -2.405 128.611  0.00  0.00    +0.147 C 
ATOM      2  O   LIG A   1      -5.289  -1.907 127.602  0.00  0.00    -0.296 OA
ENDROOT
BRANCH   1   3
ATOM      3  C   LIG A   1      -7.370  -2.246 128.757  0.00  0.00    +0.039 C 
ATOM      4  C   LIG A   1      -8.208  -3.460 128.358  0.00  0.00    +0.020 C 
ATOM      5  C   LIG A   1      -7.667  -1.890 130.224  0.00  0.00    +0.020 C 
BRANCH   3   6
ATOM      6  C   LIG A   1      -7.840  -1.073 127.831  0.00  0.00    +0.118 C 
BRANCH   6   8
ATOM      7  C   LIG A   1      -8.297   1.376 128.069  0.00  0.00    +0.237 C 
ATOM      8  N   LIG A   1      -7.611   0.244 128.433  0.00  0.00    -0.311 N 
ATOM      9  H   LIG A   1      -6.894   0.341 129.136  0.00  0.00    +0.149 HD
ATOM     10  O   LIG A   1      -9.167   1.425 127.217  0.00  0.00    -0.271 OA
BRANCH   7  13
ATOM     11  C   LIG A   1      -8.128   2.797 130.129  0.00  0.00    -0.046 C 
ATOM     12  C   LIG A   1      -8.931   1.879 131.012  0.00  0.00    +0.044 C 
ATOM     13  C   LIG A   1      -7.848   2.571 128.831  0.00  0.00    +0.070 C 
BRANCH  11  15
ATOM     14  C   LIG A   1      -7.055   5.044 130.128  0.00  0.00    +0.004 C 
ATOM     15  C   LIG A   1      -7.687   4.037 130.758  0.00  0.00    +0.002 C 
BRANCH  14  17
ATOM     16  C   LIG A   1      -6.271   6.135 132.268  0.00  0.00    +0.042 C 
ATOM     17  C   LIG A   1      -6.604   6.320 130.792  0.00  0.00    +0.134 C 
BRANCH  17  18
ATOM     18  O   LIG A   1      -7.619   7.313 130.684  0.00  0.00    -0.388 OA
ATOM     19  H   LIG A   1      -8.128   7.285 131.514  0.00  0.00    +0.210 HD
ENDBRANCH  17  18
ENDBRANCH  14  17
ENDBRANCH  11  15
ENDBRANCH   7  13
ENDBRANCH   6   8
ENDBRANCH   3   6
ENDBRANCH   1   3
BRANCH   1  20
ATOM     20  C   LIG A   1      -4.866  -2.992 129.723  0.00  0.00    +0.039 C 
ATOM     21  C   LIG A   1      -3.675  -3.652 128.973  0.00  0.00    +0.020 C 
ATOM     22  C   LIG A   1      -5.453  -4.123 130.570  0.00  0.00    +0.020 C 
BRANCH  20  23
ATOM     23  C   LIG A   1      -4.305  -1.845 130.613  0.00  0.00    +0.118 C 
BRANCH  23  24
ATOM     24  N   LIG A   1      -4.244  -0.535 129.947  0.00  0.00    -0.311 N 
ATOM     25  C   LIG A   1      -4.852   0.607 130.453  0.00  0.00    +0.237 C 
ATOM     26  O   LIG A   1      -5.537   0.644 131.446  0.00  0.00    -0.271 OA
ATOM     27  H   LIG A   1      -3.696  -0.463 129.103  0.00  0.00    +0.149 HD
BRANCH  25  28
ATOM     28  C   LIG A   1      -4.490   1.833 129.673  0.00  0.00    +0.070 C 
ATOM     29  C   LIG A   1      -4.025   3.013 130.140  0.00  0.00    -0.046 C 
ATOM     30  C   LIG A   1      -3.763   3.357 131.584  0.00  0.00    +0.044 C 
BRANCH  29  31
ATOM     31  C   LIG A   1      -3.737   4.069 129.162  0.00  0.00    +0.002 C 
ATOM     32  C   LIG A   1      -3.217   5.277 129.446  0.00  0.00    +0.004 C 
BRANCH  32  33
ATOM     33  C   LIG A   1      -3.000   6.412 128.486  0.00  0.00    +0.134 C 
ATOM     34  C   LIG A   1      -3.632   7.708 128.980  0.00  0.00    +0.042 C 
BRANCH  33  35
ATOM     35  O   LIG A   1      -1.614   6.631 128.273  0.00  0.00    -0.388 OA
ATOM     36  H   LIG A   1      -1.446   6.460 127.331  0.00  0.00    +0.210 HD
ENDBRANCH  33  35
ENDBRANCH  32  33
ENDBRANCH  29  31
ENDBRANCH  25  28
ENDBRANCH  23  24
ENDBRANCH  20  23
ENDBRANCH   1  20
TORSDOF 14
ENDMDL
MODEL 9
REMARK VINA RESULT:      -6.9      2.997      7.242
REMARK  Name = NuBBE_374
REMARK  22 active torsions:
REMARK  status: ('A' for Active; 'I' for Inactive)
REMARK    1  A    between atoms: C_1  and  C_2
REMARK    2  A    between atoms: C_2  and  C_3
REMARK    3  A    between atoms: C_2  and  O_34
REMARK    4  A    between atoms: C_4  and  C_5
REMARK    5  A    between atoms: C_5  and  C_6
REMARK    6  A    between atoms: C_7  and  C_8
REMARK    7  A    between atoms: N_9  and  C_10
REMARK    8  A    between atoms: C_10  and  C_11
REMARK    9  A    between atoms: C_11  and  C_12
REMARK   10  A    between atoms: C_11  and  C_13
REMARK   11  A    between atoms: C_11  and  C_31
REMARK   12  A    between atoms: C_13  and  C_14
REMARK   13  A    between atoms: C_14  and  C_15
REMARK   14  A    between atoms: C_14  and  C_16
REMARK   15  A    between atoms: C_14  and  C_29
REMARK   16  A    between atoms: C_16  and  N_17
REMARK   17  A    between atoms: C_18  and  C_19
REMARK   18  A    between atoms: C_20  and  C_21
REMARK   19  A    between atoms: C_20  and  C_26
REMARK   20  A    between atoms: C_22  and  C_23
REMARK   21  A    between atoms: C_23  and  C_24
REMARK   22  A    between atoms: C_23  and  O_25
REMARK                            x       y       z     vdW  Elec       q    Type
REMARK                         _______ _______ _______ _____ _____    ______ ____
ROOT
ATOM      1  C   LIG A   1      -8.211  -1.382 124.507  0.00  0.00    +0.147 C 
ATOM      2  O   LIG A   1      -8.964  -0.453 124.850  0.00  0.00    -0.296 OA
ENDROOT
BRANCH   1   3
ATOM      3  C   LIG A   1      -6.847  -0.989 123.844  0.00  0.00    +0.039 C 
ATOM      4  C   LIG A   1      -6.369  -1.897 122.712  0.00  0.00    +0.020 C 
ATOM      5  C   LIG A   1      -6.982   0.448 123.312  0.00  0.00    +0.020 C 
BRANCH   3   6
ATOM      6  C   LIG A   1      -5.729  -1.037 124.939  0.00  0.00    +0.118 C 
BRANCH   6   8
ATOM      7  C   LIG A   1      -5.540   0.718 126.713  0.00  0.00    +0.237 C 
ATOM      8  N   LIG A   1      -6.143  -0.400 126.193  0.00  0.00    -0.311 N 
ATOM      9  H   LIG A   1      -6.894  -0.814 126.725  0.00  0.00    +0.149 HD
ATOM     10  O   LIG A   1      -4.604   1.311 126.205  0.00  0.00    -0.271 OA
BRANCH   7  13
ATOM     11  C   LIG A   1      -7.290   1.850 128.109  0.00  0.00    -0.046 C 
ATOM     12  C   LIG A   1      -8.119   2.333 126.949  0.00  0.00    +0.044 C 
ATOM     13  C   LIG A   1      -6.153   1.135 128.002  0.00  0.00    +0.070 C 
BRANCH  11  15
ATOM     14  C   LIG A   1      -9.057   2.396 129.776  0.00  0.00    +0.004 C 
ATOM     15  C   LIG A   1      -7.765   2.257 129.426  0.00  0.00    +0.002 C 
BRANCH  14  17
ATOM     16  C   LIG A   1      -9.797   1.637 132.070  0.00  0.00    +0.042 C 
ATOM     17  C   LIG A   1      -9.534   2.819 131.143  0.00  0.00    +0.134 C 
BRANCH  17  18
ATOM     18  O   LIG A   1     -10.736   3.573 131.030  0.00  0.00    -0.388 OA
ATOM     19  H   LIG A   1     -10.476   4.510 130.986  0.00  0.00    +0.210 HD
ENDBRANCH  17  18
ENDBRANCH  14  17
ENDBRANCH  11  15
ENDBRANCH   7  13
ENDBRANCH   6   8
ENDBRANCH   3   6
ENDBRANCH   1   3
BRANCH   1  20
ATOM     20  C   LIG A   1      -8.770  -2.853 124.611  0.00  0.00    +0.039 C 
ATOM     21  C   LIG A   1      -7.529  -3.790 124.628  0.00  0.00    +0.020 C 
ATOM     22  C   LIG A   1      -9.593  -3.336 123.415  0.00  0.00    +0.020 C 
BRANCH  20  23
ATOM     23  C   LIG A   1      -9.542  -3.044 125.949  0.00  0.00    +0.118 C 
BRANCH  23  24
ATOM     24  N   LIG A   1      -8.733  -3.606 127.041  0.00  0.00    -0.311 N 
ATOM     25  C   LIG A   1      -8.129  -2.828 128.021  0.00  0.00    +0.237 C 
ATOM     26  O   LIG A   1      -8.147  -1.622 128.055  0.00  0.00    -0.271 OA
ATOM     27  H   LIG A   1      -8.653  -4.610 127.098  0.00  0.00    +0.149 HD
BRANCH  25  28
ATOM     28  C   LIG A   1      -7.513  -3.659 129.104  0.00  0.00    +0.070 C 
ATOM     29  C   LIG A   1      -6.240  -3.634 129.554  0.00  0.00    -0.046 C 
ATOM     30  C   LIG A   1      -5.135  -2.741 129.049  0.00  0.00    +0.044 C 
BRANCH  29  31
ATOM     31  C   LIG A   1      -5.880  -4.553 130.640  0.00  0.00    +0.002 C 
ATOM     32  C   LIG A   1      -5.740  -4.217 131.936  0.00  0.00    +0.004 C 
BRANCH  32  33
ATOM     33  C   LIG A   1      -5.280  -5.111 133.053  0.00  0.00    +0.134 C 
ATOM     34  C   LIG A   1      -3.784  -4.979 133.311  0.00  0.00    +0.042 C 
BRANCH  33  35
ATOM     35  O   LIG A   1      -5.980  -4.814 134.252  0.00  0.00    -0.388 OA
ATOM     36  H   LIG A   1      -6.587  -4.083 134.047  0.00  0.00    +0.210 HD
ENDBRANCH  33  35
ENDBRANCH  32  33
ENDBRANCH  29  31
ENDBRANCH  25  28
ENDBRANCH  23  24
ENDBRANCH  20  23
ENDBRANCH   1  20
TORSDOF 14
ENDMDL
