MODEL 1
REMARK VINA RESULT:     -10.6      0.000      0.000
REMARK  Name = NuBBE_1967
REMARK  13 active torsions:
REMARK  status: ('A' for Active; 'I' for Inactive)
REMARK    1  A    between atoms: O_1  and  C_2
REMARK    2  A    between atoms: C_4  and  C_29
REMARK    3  A    between atoms: C_6  and  C_22
REMARK    4  A    between atoms: C_11  and  C_13
REMARK    5  A    between atoms: C_14  and  C_15
REMARK    6  A    between atoms: C_18  and  O_21
REMARK    7  A    between atoms: C_25  and  O_28
REMARK    8  A    between atoms: C_33  and  O_35
REMARK    9  A    between atoms: C_36  and  C_48
REMARK   10  A    between atoms: C_38  and  C_41
REMARK   11  A    between atoms: C_44  and  O_47
REMARK   12  A    between atoms: C_50  and  O_51
REMARK   13  A    between atoms: C_53  and  O_55
REMARK                            x       y       z     vdW  Elec       q    Type
REMARK                         _______ _______ _______ _____ _____    ______ ____
ROOT
ATOM      1  C   LIG A   1      -6.036   3.630 132.403  0.00  0.00    +0.125 A 
ATOM      2  C   LIG A   1      -6.672   3.842 131.202  0.00  0.00    +0.047 A 
ATOM      3  C   LIG A   1      -7.810   3.126 130.559  0.00  0.00    +0.101 C 
ATOM      4  C   LIG A   1      -8.154   4.158 129.445  0.00  0.00    +0.215 C 
ATOM      5  O   LIG A   1      -6.974   4.986 129.212  0.00  0.00    -0.483 OA
ATOM      6  C   LIG A   1      -6.221   4.844 130.354  0.00  0.00    +0.129 A 
ATOM      7  C   LIG A   1      -5.123   5.634 130.649  0.00  0.00    +0.054 A 
ATOM      8  C   LIG A   1      -4.458   5.426 131.865  0.00  0.00    -0.018 A 
ATOM      9  C   LIG A   1      -4.943   4.426 132.738  0.00  0.00    +0.054 A 
ENDROOT
BRANCH   3  10
ATOM     10  C   LIG A   1      -7.396   1.766 130.011  0.00  0.00    -0.029 A 
ATOM     11  C   LIG A   1      -8.201   0.641 130.240  0.00  0.00    +0.050 A 
ATOM     12  C   LIG A   1      -7.790  -0.573 129.721  0.00  0.00    +0.129 A 
ATOM     13  C   LIG A   1      -6.633  -0.721 128.966  0.00  0.00    +0.047 A 
ATOM     14  C   LIG A   1      -5.816   0.366 128.757  0.00  0.00    +0.124 A 
ATOM     15  C   LIG A   1      -6.192   1.602 129.280  0.00  0.00    +0.050 A 
ATOM     16  C   LIG A   1      -6.544  -2.129 128.478  0.00  0.00    +0.101 C 
ATOM     17  C   LIG A   1      -7.533  -2.783 129.488  0.00  0.00    +0.215 C 
ATOM     18  O   LIG A   1      -8.470  -1.751 129.929  0.00  0.00    -0.483 OA
BRANCH  17  19
ATOM     19  C   LIG A   1      -6.843  -3.425 130.697  0.00  0.00    -0.006 A 
ATOM     20  C   LIG A   1      -7.127  -3.025 132.017  0.00  0.00    +0.011 A 
ATOM     21  C   LIG A   1      -6.487  -3.615 133.108  0.00  0.00    +0.046 A 
ATOM     22  C   LIG A   1      -5.551  -4.615 132.888  0.00  0.00    +0.117 A 
ATOM     23  C   LIG A   1      -5.244  -5.027 131.597  0.00  0.00    +0.046 A 
ATOM     24  C   LIG A   1      -5.884  -4.432 130.504  0.00  0.00    +0.011 A 
BRANCH  22  25
ATOM     25  O   LIG A   1      -4.907  -5.220 133.926  0.00  0.00    -0.507 OA
ATOM     26  H   LIG A   1      -5.381  -5.008 134.748  0.00  0.00    +0.292 HD
ENDBRANCH  22  25
ENDBRANCH  17  19
BRANCH  16  27
ATOM     27  C   LIG A   1      -6.976  -2.255 127.017  0.00  0.00    -0.029 A 
ATOM     28  C   LIG A   1      -6.055  -2.136 125.956  0.00  0.00    +0.050 A 
ATOM     29  C   LIG A   1      -6.473  -2.275 124.633  0.00  0.00    +0.121 A 
ATOM     30  C   LIG A   1      -7.800  -2.535 124.326  0.00  0.00    +0.090 A 
ATOM     31  C   LIG A   1      -8.713  -2.660 125.366  0.00  0.00    +0.121 A 
ATOM     32  C   LIG A   1      -8.317  -2.527 126.698  0.00  0.00    +0.050 A 
BRANCH  29  33
ATOM     33  O   LIG A   1      -5.592  -2.162 123.598  0.00  0.00    -0.507 OA
ATOM     34  H   LIG A   1      -5.786  -1.345 123.110  0.00  0.00    +0.292 HD
ENDBRANCH  29  33
BRANCH  31  35
ATOM     35  O   LIG A   1     -10.031  -2.919 125.118  0.00  0.00    -0.507 OA
ATOM     36  H   LIG A   1     -10.249  -3.787 125.499  0.00  0.00    +0.292 HD
ENDBRANCH  31  35
ENDBRANCH  16  27
BRANCH  14  37
ATOM     37  O   LIG A   1      -4.645   0.305 128.069  0.00  0.00    -0.506 OA
ATOM     38  H   LIG A   1      -3.991   0.888 128.486  0.00  0.00    +0.292 HD
ENDBRANCH  14  37
ENDBRANCH   3  10
BRANCH   4  39
ATOM     39  C   LIG A   1      -9.361   5.034 129.781  0.00  0.00    -0.006 A 
ATOM     40  C   LIG A   1      -9.349   6.421 129.555  0.00  0.00    +0.011 A 
ATOM     41  C   LIG A   1     -10.455   7.214 129.862  0.00  0.00    +0.046 A 
ATOM     42  C   LIG A   1     -11.587   6.621 130.407  0.00  0.00    +0.117 A 
ATOM     43  C   LIG A   1     -11.626   5.254 130.646  0.00  0.00    +0.046 A 
ATOM     44  C   LIG A   1     -10.516   4.460 130.338  0.00  0.00    +0.011 A 
BRANCH  42  45
ATOM     45  O   LIG A   1     -12.689   7.361 130.719  0.00  0.00    -0.507 OA
ATOM     46  H   LIG A   1     -12.445   8.301 130.690  0.00  0.00    +0.292 HD
ENDBRANCH  42  45
ENDBRANCH   4  39
BRANCH   1  47
ATOM     47  O   LIG A   1      -6.409   2.676 133.297  0.00  0.00    -0.506 OA
ATOM     48  H   LIG A   1      -5.945   2.829 134.134  0.00  0.00    +0.292 HD
ENDBRANCH   1  47
BRANCH   8  49
ATOM     49  C   LIG A   1      -3.282   6.254 132.204  0.00  0.00    +0.009 C 
ATOM     50  C   LIG A   1      -3.333   7.574 132.414  0.00  0.00    +0.008 C 
BRANCH  50  51
ATOM     51  C   LIG A   1      -2.162   8.388 132.725  0.00  0.00    -0.025 A 
ATOM     52  C   LIG A   1      -2.270   9.783 132.739  0.00  0.00    +0.011 A 
ATOM     53  C   LIG A   1      -1.172  10.566 133.094  0.00  0.00    +0.046 A 
ATOM     54  C   LIG A   1       0.028   9.945 133.432  0.00  0.00    +0.117 A 
ATOM     55  C   LIG A   1       0.144   8.560 133.425  0.00  0.00    +0.046 A 
ATOM     56  C   LIG A   1      -0.955   7.776 133.072  0.00  0.00    +0.011 A 
BRANCH  54  57
ATOM     57  O   LIG A   1       1.125  10.672 133.786  0.00  0.00    -0.507 OA
ATOM     58  H   LIG A   1       1.117  10.792 134.749  0.00  0.00    +0.292 HD
ENDBRANCH  54  57
ENDBRANCH  50  51
ENDBRANCH   8  49
TORSDOF 13
ENDMDL
MODEL 2
REMARK VINA RESULT:     -10.6      3.795     10.607
REMARK  Name = NuBBE_1967
REMARK  13 active torsions:
REMARK  status: ('A' for Active; 'I' for Inactive)
REMARK    1  A    between atoms: O_1  and  C_2
REMARK    2  A    between atoms: C_4  and  C_29
REMARK    3  A    between atoms: C_6  and  C_22
REMARK    4  A    between atoms: C_11  and  C_13
REMARK    5  A    between atoms: C_14  and  C_15
REMARK    6  A    between atoms: C_18  and  O_21
REMARK    7  A    between atoms: C_25  and  O_28
REMARK    8  A    between atoms: C_33  and  O_35
REMARK    9  A    between atoms: C_36  and  C_48
REMARK   10  A    between atoms: C_38  and  C_41
REMARK   11  A    between atoms: C_44  and  O_47
REMARK   12  A    between atoms: C_50  and  O_51
REMARK   13  A    between atoms: C_53  and  O_55
REMARK                            x       y       z     vdW  Elec       q    Type
REMARK                         _______ _______ _______ _____ _____    ______ ____
ROOT
ATOM      1  C   LIG A   1      -7.063   4.545 129.440  0.00  0.00    +0.125 A 
ATOM      2  C   LIG A   1      -8.130   4.904 130.230  0.00  0.00    +0.047 A 
ATOM      3  C   LIG A   1      -8.342   6.089 131.108  0.00  0.00    +0.101 C 
ATOM      4  C   LIG A   1      -9.873   5.948 131.349  0.00  0.00    +0.215 C 
ATOM      5  O   LIG A   1     -10.247   4.558 131.102  0.00  0.00    -0.483 OA
ATOM      6  C   LIG A   1      -9.229   4.060 130.323  0.00  0.00    +0.129 A 
ATOM      7  C   LIG A   1      -9.290   2.839 129.675  0.00  0.00    +0.054 A 
ATOM      8  C   LIG A   1      -8.207   2.454 128.872  0.00  0.00    -0.018 A 
ATOM      9  C   LIG A   1      -7.107   3.333 128.755  0.00  0.00    +0.054 A 
ENDROOT
BRANCH   3  10
ATOM     10  C   LIG A   1      -7.521   6.007 132.389  0.00  0.00    -0.029 A 
ATOM     11  C   LIG A   1      -8.162   5.826 133.623  0.00  0.00    +0.050 A 
ATOM     12  C   LIG A   1      -7.379   5.752 134.761  0.00  0.00    +0.129 A 
ATOM     13  C   LIG A   1      -5.991   5.825 134.731  0.00  0.00    +0.047 A 
ATOM     14  C   LIG A   1      -5.348   6.033 133.533  0.00  0.00    +0.124 A 
ATOM     15  C   LIG A   1      -6.108   6.128 132.368  0.00  0.00    +0.050 A 
ATOM     16  C   LIG A   1      -5.460   5.607 136.110  0.00  0.00    +0.101 C 
ATOM     17  C   LIG A   1      -6.765   5.910 136.907  0.00  0.00    +0.215 C 
ATOM     18  O   LIG A   1      -7.899   5.632 136.029  0.00  0.00    -0.483 OA
BRANCH  17  19
ATOM     19  C   LIG A   1      -6.843   7.347 137.436  0.00  0.00    -0.006 A 
ATOM     20  C   LIG A   1      -5.722   8.200 137.444  0.00  0.00    +0.011 A 
ATOM     21  C   LIG A   1      -5.807   9.504 137.934  0.00  0.00    +0.046 A 
ATOM     22  C   LIG A   1      -7.019   9.970 138.423  0.00  0.00    +0.117 A 
ATOM     23  C   LIG A   1      -8.141   9.150 138.434  0.00  0.00    +0.046 A 
ATOM     24  C   LIG A   1      -8.054   7.841 137.946  0.00  0.00    +0.011 A 
BRANCH  22  25
ATOM     25  O   LIG A   1      -7.146  11.239 138.905  0.00  0.00    -0.507 OA
ATOM     26  H   LIG A   1      -8.064  11.528 138.769  0.00  0.00    +0.292 HD
ENDBRANCH  22  25
ENDBRANCH  17  19
BRANCH  16  27
ATOM     27  C   LIG A   1      -4.934   4.185 136.300  0.00  0.00    -0.029 A 
ATOM     28  C   LIG A   1      -5.471   3.092 135.590  0.00  0.00    +0.050 A 
ATOM     29  C   LIG A   1      -4.959   1.808 135.767  0.00  0.00    +0.121 A 
ATOM     30  C   LIG A   1      -3.908   1.572 136.641  0.00  0.00    +0.090 A 
ATOM     31  C   LIG A   1      -3.368   2.644 137.340  0.00  0.00    +0.121 A 
ATOM     32  C   LIG A   1      -3.864   3.939 137.176  0.00  0.00    +0.050 A 
BRANCH  29  33
ATOM     33  O   LIG A   1      -5.471   0.742 135.086  0.00  0.00    -0.507 OA
ATOM     34  H   LIG A   1      -5.830   0.106 135.726  0.00  0.00    +0.292 HD
ENDBRANCH  29  33
BRANCH  31  35
ATOM     35  O   LIG A   1      -2.331   2.466 138.210  0.00  0.00    -0.507 OA
ATOM     36  H   LIG A   1      -2.025   1.546 138.138  0.00  0.00    +0.292 HD
ENDBRANCH  31  35
ENDBRANCH  16  27
BRANCH  14  37
ATOM     37  O   LIG A   1      -4.000   6.161 133.415  0.00  0.00    -0.506 OA
ATOM     38  H   LIG A   1      -3.662   5.492 132.799  0.00  0.00    +0.292 HD
ENDBRANCH  14  37
ENDBRANCH   3  10
BRANCH   4  39
ATOM     39  C   LIG A   1     -10.713   6.887 130.484  0.00  0.00    -0.006 A 
ATOM     40  C   LIG A   1     -10.164   7.560 129.379  0.00  0.00    +0.011 A 
ATOM     41  C   LIG A   1     -10.938   8.414 128.593  0.00  0.00    +0.046 A 
ATOM     42  C   LIG A   1     -12.275   8.608 128.913  0.00  0.00    +0.117 A 
ATOM     43  C   LIG A   1     -12.845   7.961 130.002  0.00  0.00    +0.046 A 
ATOM     44  C   LIG A   1     -12.068   7.105 130.790  0.00  0.00    +0.011 A 
BRANCH  42  45
ATOM     45  O   LIG A   1     -13.064   9.434 128.169  0.00  0.00    -0.507 OA
ATOM     46  H   LIG A   1     -12.976   9.183 127.235  0.00  0.00    +0.292 HD
ENDBRANCH  42  45
ENDBRANCH   4  39
BRANCH   1  47
ATOM     47  O   LIG A   1      -5.948   5.308 129.285  0.00  0.00    -0.506 OA
ATOM     48  H   LIG A   1      -6.011   5.792 128.447  0.00  0.00    +0.292 HD
ENDBRANCH   1  47
BRANCH   8  49
ATOM     49  C   LIG A   1      -8.245   1.154 128.169  0.00  0.00    +0.009 C 
ATOM     50  C   LIG A   1      -8.549   1.014 126.874  0.00  0.00    +0.008 C 
BRANCH  50  51
ATOM     51  C   LIG A   1      -8.608  -0.277 126.194  0.00  0.00    -0.025 A 
ATOM     52  C   LIG A   1      -8.958  -0.332 124.840  0.00  0.00    +0.011 A 
ATOM     53  C   LIG A   1      -8.959  -1.554 124.168  0.00  0.00    +0.046 A 
ATOM     54  C   LIG A   1      -8.609  -2.712 124.857  0.00  0.00    +0.117 A 
ATOM     55  C   LIG A   1      -8.256  -2.666 126.201  0.00  0.00    +0.046 A 
ATOM     56  C   LIG A   1      -8.253  -1.444 126.874  0.00  0.00    +0.011 A 
BRANCH  54  57
ATOM     57  O   LIG A   1      -8.595  -3.927 124.238  0.00  0.00    -0.507 OA
ATOM     58  H   LIG A   1      -9.468  -4.336 124.346  0.00  0.00    +0.292 HD
ENDBRANCH  54  57
ENDBRANCH  50  51
ENDBRANCH   8  49
TORSDOF 13
ENDMDL
MODEL 3
REMARK VINA RESULT:     -10.5      3.792      8.092
REMARK  Name = NuBBE_1967
REMARK  13 active torsions:
REMARK  status: ('A' for Active; 'I' for Inactive)
REMARK    1  A    between atoms: O_1  and  C_2
REMARK    2  A    between atoms: C_4  and  C_29
REMARK    3  A    between atoms: C_6  and  C_22
REMARK    4  A    between atoms: C_11  and  C_13
REMARK    5  A    between atoms: C_14  and  C_15
REMARK    6  A    between atoms: C_18  and  O_21
REMARK    7  A    between atoms: C_25  and  O_28
REMARK    8  A    between atoms: C_33  and  O_35
REMARK    9  A    between atoms: C_36  and  C_48
REMARK   10  A    between atoms: C_38  and  C_41
REMARK   11  A    between atoms: C_44  and  O_47
REMARK   12  A    between atoms: C_50  and  O_51
REMARK   13  A    between atoms: C_53  and  O_55
REMARK                            x       y       z     vdW  Elec       q    Type
REMARK                         _______ _______ _______ _____ _____    ______ ____
ROOT
ATOM      1  C   LIG A   1      -3.980   2.879 127.456  0.00  0.00    +0.125 A 
ATOM      2  C   LIG A   1      -4.798   3.472 128.390  0.00  0.00    +0.047 A 
ATOM      3  C   LIG A   1      -4.930   3.247 129.857  0.00  0.00    +0.101 C 
ATOM      4  C   LIG A   1      -5.763   4.509 130.227  0.00  0.00    +0.215 C 
ATOM      5  O   LIG A   1      -6.440   4.977 129.021  0.00  0.00    -0.483 OA
ATOM      6  C   LIG A   1      -5.722   4.426 127.986  0.00  0.00    +0.129 A 
ATOM      7  C   LIG A   1      -5.887   4.791 126.661  0.00  0.00    +0.054 A 
ATOM      8  C   LIG A   1      -5.068   4.191 125.695  0.00  0.00    -0.018 A 
ATOM      9  C   LIG A   1      -4.106   3.247 126.118  0.00  0.00    +0.054 A 
ENDROOT
BRANCH   3  10
ATOM     10  C   LIG A   1      -5.646   1.940 130.174  0.00  0.00    -0.029 A 
ATOM     11  C   LIG A   1      -5.162   0.730 129.656  0.00  0.00    +0.050 A 
ATOM     12  C   LIG A   1      -5.840  -0.433 129.973  0.00  0.00    +0.129 A 
ATOM     13  C   LIG A   1      -6.959  -0.457 130.797  0.00  0.00    +0.047 A 
ATOM     14  C   LIG A   1      -7.464   0.724 131.290  0.00  0.00    +0.124 A 
ATOM     15  C   LIG A   1      -6.815   1.917 130.977  0.00  0.00    +0.050 A 
ATOM     16  C   LIG A   1      -7.376  -1.875 131.014  0.00  0.00    +0.101 C 
ATOM     17  C   LIG A   1      -6.634  -2.518 129.804  0.00  0.00    +0.215 C 
ATOM     18  O   LIG A   1      -5.491  -1.668 129.477  0.00  0.00    -0.483 OA
BRANCH  17  19
ATOM     19  C   LIG A   1      -7.523  -2.710 128.570  0.00  0.00    -0.006 A 
ATOM     20  C   LIG A   1      -7.324  -1.974 127.386  0.00  0.00    +0.011 A 
ATOM     21  C   LIG A   1      -8.145  -2.156 126.272  0.00  0.00    +0.046 A 
ATOM     22  C   LIG A   1      -9.178  -3.081 126.331  0.00  0.00    +0.117 A 
ATOM     23  C   LIG A   1      -9.403  -3.818 127.488  0.00  0.00    +0.046 A 
ATOM     24  C   LIG A   1      -8.582  -3.632 128.606  0.00  0.00    +0.011 A 
BRANCH  22  25
ATOM     25  O   LIG A   1      -9.998  -3.293 125.264  0.00  0.00    -0.507 OA
ATOM     26  H   LIG A   1     -10.347  -4.199 125.320  0.00  0.00    +0.292 HD
ENDBRANCH  22  25
ENDBRANCH  17  19
BRANCH  16  27
ATOM     27  C   LIG A   1      -6.917  -2.402 132.374  0.00  0.00    -0.029 A 
ATOM     28  C   LIG A   1      -5.607  -2.879 132.583  0.00  0.00    +0.050 A 
ATOM     29  C   LIG A   1      -5.208  -3.335 133.838  0.00  0.00    +0.121 A 
ATOM     30  C   LIG A   1      -6.086  -3.331 134.912  0.00  0.00    +0.090 A 
ATOM     31  C   LIG A   1      -7.377  -2.857 134.717  0.00  0.00    +0.121 A 
ATOM     32  C   LIG A   1      -7.797  -2.393 133.469  0.00  0.00    +0.050 A 
BRANCH  29  33
ATOM     33  O   LIG A   1      -3.944  -3.799 134.053  0.00  0.00    -0.507 OA
ATOM     34  H   LIG A   1      -3.332  -3.045 134.067  0.00  0.00    +0.292 HD
ENDBRANCH  29  33
BRANCH  31  35
ATOM     35  O   LIG A   1      -8.279  -2.828 135.741  0.00  0.00    -0.507 OA
ATOM     36  H   LIG A   1      -9.127  -3.172 135.413  0.00  0.00    +0.292 HD
ENDBRANCH  31  35
ENDBRANCH  16  27
BRANCH  14  37
ATOM     37  O   LIG A   1      -8.577   0.799 132.067  0.00  0.00    -0.506 OA
ATOM     38  H   LIG A   1      -8.476   0.221 132.838  0.00  0.00    +0.292 HD
ENDBRANCH  14  37
ENDBRANCH   3  10
BRANCH   4  39
ATOM     39  C   LIG A   1      -4.924   5.633 130.837  0.00  0.00    -0.006 A 
ATOM     40  C   LIG A   1      -4.621   6.800 130.115  0.00  0.00    +0.011 A 
ATOM     41  C   LIG A   1      -3.857   7.821 130.680  0.00  0.00    +0.046 A 
ATOM     42  C   LIG A   1      -3.382   7.679 131.977  0.00  0.00    +0.117 A 
ATOM     43  C   LIG A   1      -3.661   6.535 132.713  0.00  0.00    +0.046 A 
ATOM     44  C   LIG A   1      -4.427   5.511 132.146  0.00  0.00    +0.011 A 
BRANCH  42  45
ATOM     45  O   LIG A   1      -2.633   8.656 132.564  0.00  0.00    -0.507 OA
ATOM     46  H   LIG A   1      -2.304   8.320 133.413  0.00  0.00    +0.292 HD
ENDBRANCH  42  45
ENDBRANCH   4  39
BRANCH   1  47
ATOM     47  O   LIG A   1      -3.044   1.940 127.759  0.00  0.00    -0.506 OA
ATOM     48  H   LIG A   1      -3.428   1.060 127.631  0.00  0.00    +0.292 HD
ENDBRANCH   1  47
BRANCH   8  49
ATOM     49  C   LIG A   1      -5.224   4.563 124.273  0.00  0.00    +0.009 C 
ATOM     50  C   LIG A   1      -5.717   3.746 123.336  0.00  0.00    +0.008 C 
BRANCH  50  51
ATOM     51  C   LIG A   1      -5.844   4.113 121.929  0.00  0.00    -0.025 A 
ATOM     52  C   LIG A   1      -6.968   3.702 121.204  0.00  0.00    +0.011 A 
ATOM     53  C   LIG A   1      -7.127   4.100 119.876  0.00  0.00    +0.046 A 
ATOM     54  C   LIG A   1      -6.157   4.906 119.285  0.00  0.00    +0.117 A 
ATOM     55  C   LIG A   1      -5.039   5.322 119.999  0.00  0.00    +0.046 A 
ATOM     56  C   LIG A   1      -4.881   4.927 121.327  0.00  0.00    +0.011 A 
BRANCH  54  57
ATOM     57  O   LIG A   1      -6.273   5.318 117.991  0.00  0.00    -0.507 OA
ATOM     58  H   LIG A   1      -6.923   6.039 117.956  0.00  0.00    +0.292 HD
ENDBRANCH  54  57
ENDBRANCH  50  51
ENDBRANCH   8  49
TORSDOF 13
ENDMDL
MODEL 4
REMARK VINA RESULT:     -10.4      1.488      4.477
REMARK  Name = NuBBE_1967
REMARK  13 active torsions:
REMARK  status: ('A' for Active; 'I' for Inactive)
REMARK    1  A    between atoms: O_1  and  C_2
REMARK    2  A    between atoms: C_4  and  C_29
REMARK    3  A    between atoms: C_6  and  C_22
REMARK    4  A    between atoms: C_11  and  C_13
REMARK    5  A    between atoms: C_14  and  C_15
REMARK    6  A    between atoms: C_18  and  O_21
REMARK    7  A    between atoms: C_25  and  O_28
REMARK    8  A    between atoms: C_33  and  O_35
REMARK    9  A    between atoms: C_36  and  C_48
REMARK   10  A    between atoms: C_38  and  C_41
REMARK   11  A    between atoms: C_44  and  O_47
REMARK   12  A    between atoms: C_50  and  O_51
REMARK   13  A    between atoms: C_53  and  O_55
REMARK                            x       y       z     vdW  Elec       q    Type
REMARK                         _______ _______ _______ _____ _____    ______ ____
ROOT
ATOM      1  C   LIG A   1      -6.711   4.712 132.910  0.00  0.00    +0.125 A 
ATOM      2  C   LIG A   1      -7.326   4.627 131.683  0.00  0.00    +0.047 A 
ATOM      3  C   LIG A   1      -8.523   3.857 131.241  0.00  0.00    +0.101 C 
ATOM      4  C   LIG A   1      -8.775   4.555 129.873  0.00  0.00    +0.215 C 
ATOM      5  O   LIG A   1      -7.527   5.180 129.444  0.00  0.00    -0.483 OA
ATOM      6  C   LIG A   1      -6.790   5.306 130.598  0.00  0.00    +0.129 A 
ATOM      7  C   LIG A   1      -5.626   6.051 130.684  0.00  0.00    +0.054 A 
ATOM      8  C   LIG A   1      -4.982   6.142 131.925  0.00  0.00    -0.018 A 
ATOM      9  C   LIG A   1      -5.553   5.476 133.033  0.00  0.00    +0.054 A 
ENDROOT
BRANCH   3  10
ATOM     10  C   LIG A   1      -8.230   2.367 131.111  0.00  0.00    -0.029 A 
ATOM     11  C   LIG A   1      -7.333   1.910 130.135  0.00  0.00    +0.050 A 
ATOM     12  C   LIG A   1      -7.092   0.550 130.055  0.00  0.00    +0.129 A 
ATOM     13  C   LIG A   1      -7.680  -0.374 130.910  0.00  0.00    +0.047 A 
ATOM     14  C   LIG A   1      -8.586   0.053 131.853  0.00  0.00    +0.124 A 
ATOM     15  C   LIG A   1      -8.864   1.416 131.951  0.00  0.00    +0.050 A 
ATOM     16  C   LIG A   1      -7.127  -1.730 130.618  0.00  0.00    +0.101 C 
ATOM     17  C   LIG A   1      -6.566  -1.446 129.192  0.00  0.00    +0.215 C 
ATOM     18  O   LIG A   1      -6.276  -0.016 129.103  0.00  0.00    -0.483 OA
BRANCH  17  19
ATOM     19  C   LIG A   1      -7.514  -1.867 128.063  0.00  0.00    -0.006 A 
ATOM     20  C   LIG A   1      -8.163  -3.117 128.062  0.00  0.00    +0.011 A 
ATOM     21  C   LIG A   1      -9.020  -3.488 127.025  0.00  0.00    +0.046 A 
ATOM     22  C   LIG A   1      -9.237  -2.609 125.973  0.00  0.00    +0.117 A 
ATOM     23  C   LIG A   1      -8.606  -1.371 125.943  0.00  0.00    +0.046 A 
ATOM     24  C   LIG A   1      -7.744  -1.001 126.982  0.00  0.00    +0.011 A 
BRANCH  22  25
ATOM     25  O   LIG A   1     -10.070  -2.931 124.943  0.00  0.00    -0.507 OA
ATOM     26  H   LIG A   1     -10.645  -2.168 124.764  0.00  0.00    +0.292 HD
ENDBRANCH  22  25
ENDBRANCH  17  19
BRANCH  16  27
ATOM     27  C   LIG A   1      -6.060  -2.141 131.633  0.00  0.00    -0.029 A 
ATOM     28  C   LIG A   1      -4.705  -1.787 131.472  0.00  0.00    +0.050 A 
ATOM     29  C   LIG A   1      -3.755  -2.157 132.423  0.00  0.00    +0.121 A 
ATOM     30  C   LIG A   1      -4.117  -2.879 133.550  0.00  0.00    +0.090 A 
ATOM     31  C   LIG A   1      -5.451  -3.227 133.721  0.00  0.00    +0.121 A 
ATOM     32  C   LIG A   1      -6.419  -2.865 132.782  0.00  0.00    +0.050 A 
BRANCH  29  33
ATOM     33  O   LIG A   1      -2.441  -1.821 132.278  0.00  0.00    -0.507 OA
ATOM     34  H   LIG A   1      -2.127  -1.425 133.107  0.00  0.00    +0.292 HD
ENDBRANCH  29  33
BRANCH  31  35
ATOM     35  O   LIG A   1      -5.860  -3.935 134.814  0.00  0.00    -0.507 OA
ATOM     36  H   LIG A   1      -5.072  -4.208 135.315  0.00  0.00    +0.292 HD
ENDBRANCH  31  35
ENDBRANCH  16  27
BRANCH  14  37
ATOM     37  O   LIG A   1      -9.240  -0.784 132.701  0.00  0.00    -0.506 OA
ATOM     38  H   LIG A   1     -10.194  -0.610 132.659  0.00  0.00    +0.292 HD
ENDBRANCH  14  37
ENDBRANCH   3  10
BRANCH   4  39
ATOM     39  C   LIG A   1      -9.901   5.588 129.917  0.00  0.00    -0.006 A 
ATOM     40  C   LIG A   1      -9.975   6.637 128.984  0.00  0.00    +0.011 A 
ATOM     41  C   LIG A   1     -11.006   7.575 129.030  0.00  0.00    +0.046 A 
ATOM     42  C   LIG A   1     -11.974   7.475 130.020  0.00  0.00    +0.117 A 
ATOM     43  C   LIG A   1     -11.925   6.453 130.960  0.00  0.00    +0.046 A 
ATOM     44  C   LIG A   1     -10.890   5.513 130.913  0.00  0.00    +0.011 A 
BRANCH  42  45
ATOM     45  O   LIG A   1     -12.998   8.371 130.098  0.00  0.00    -0.507 OA
ATOM     46  H   LIG A   1     -12.621   9.261 130.189  0.00  0.00    +0.292 HD
ENDBRANCH  42  45
ENDBRANCH   4  39
BRANCH   1  47
ATOM     47  O   LIG A   1      -7.166   4.086 134.028  0.00  0.00    -0.506 OA
ATOM     48  H   LIG A   1      -6.477   4.118 134.710  0.00  0.00    +0.292 HD
ENDBRANCH   1  47
BRANCH   8  49
ATOM     49  C   LIG A   1      -3.738   6.930 132.045  0.00  0.00    +0.009 C 
ATOM     50  C   LIG A   1      -3.396   7.626 133.135  0.00  0.00    +0.008 C 
BRANCH  50  51
ATOM     51  C   LIG A   1      -2.176   8.422 133.235  0.00  0.00    -0.025 A 
ATOM     52  C   LIG A   1      -0.931   7.784 133.269  0.00  0.00    +0.011 A 
ATOM     53  C   LIG A   1       0.241   8.538 133.304  0.00  0.00    +0.046 A 
ATOM     54  C   LIG A   1       0.157   9.928 133.307  0.00  0.00    +0.117 A 
ATOM     55  C   LIG A   1      -1.074  10.571 133.270  0.00  0.00    +0.046 A 
ATOM     56  C   LIG A   1      -2.247   9.817 133.233  0.00  0.00    +0.011 A 
BRANCH  54  57
ATOM     57  O   LIG A   1       1.278  10.704 133.340  0.00  0.00    -0.507 OA
ATOM     58  H   LIG A   1       1.996  10.225 132.896  0.00  0.00    +0.292 HD
ENDBRANCH  54  57
ENDBRANCH  50  51
ENDBRANCH   8  49
TORSDOF 13
ENDMDL
MODEL 5
REMARK VINA RESULT:     -10.1      2.337      7.939
REMARK  Name = NuBBE_1967
REMARK  13 active torsions:
REMARK  status: ('A' for Active; 'I' for Inactive)
REMARK    1  A    between atoms: O_1  and  C_2
REMARK    2  A    between atoms: C_4  and  C_29
REMARK    3  A    between atoms: C_6  and  C_22
REMARK    4  A    between atoms: C_11  and  C_13
REMARK    5  A    between atoms: C_14  and  C_15
REMARK    6  A    between atoms: C_18  and  O_21
REMARK    7  A    between atoms: C_25  and  O_28
REMARK    8  A    between atoms: C_33  and  O_35
REMARK    9  A    between atoms: C_36  and  C_48
REMARK   10  A    between atoms: C_38  and  C_41
REMARK   11  A    between atoms: C_44  and  O_47
REMARK   12  A    between atoms: C_50  and  O_51
REMARK   13  A    between atoms: C_53  and  O_55
REMARK                            x       y       z     vdW  Elec       q    Type
REMARK                         _______ _______ _______ _____ _____    ______ ____
ROOT
ATOM      1  C   LIG A   1      -5.853   4.110 129.998  0.00  0.00    +0.125 A 
ATOM      2  C   LIG A   1      -5.406   3.973 131.291  0.00  0.00    +0.047 A 
ATOM      3  C   LIG A   1      -4.348   3.099 131.873  0.00  0.00    +0.101 C 
ATOM      4  C   LIG A   1      -4.207   3.776 133.267  0.00  0.00    +0.215 C 
ATOM      5  O   LIG A   1      -5.437   4.512 133.542  0.00  0.00    -0.483 OA
ATOM      6  C   LIG A   1      -6.011   4.701 132.307  0.00  0.00    +0.129 A 
ATOM      7  C   LIG A   1      -7.082   5.548 132.082  0.00  0.00    +0.054 A 
ATOM      8  C   LIG A   1      -7.556   5.692 130.771  0.00  0.00    -0.018 A 
ATOM      9  C   LIG A   1      -6.913   4.974 129.738  0.00  0.00    +0.054 A 
ENDROOT
BRANCH   3  10
ATOM     10  C   LIG A   1      -4.788   1.642 131.954  0.00  0.00    -0.029 A 
ATOM     11  C   LIG A   1      -4.242   0.694 131.076  0.00  0.00    +0.050 A 
ATOM     12  C   LIG A   1      -4.666  -0.618 131.188  0.00  0.00    +0.129 A 
ATOM     13  C   LIG A   1      -5.586  -1.038 132.141  0.00  0.00    +0.047 A 
ATOM     14  C   LIG A   1      -6.154  -0.116 132.989  0.00  0.00    +0.124 A 
ATOM     15  C   LIG A   1      -5.761   1.218 132.894  0.00  0.00    +0.050 A 
ATOM     16  C   LIG A   1      -5.739  -2.521 132.051  0.00  0.00    +0.101 C 
ATOM     17  C   LIG A   1      -5.162  -2.724 130.618  0.00  0.00    +0.215 C 
ATOM     18  O   LIG A   1      -4.243  -1.621 130.346  0.00  0.00    -0.483 OA
BRANCH  17  19
ATOM     19  C   LIG A   1      -6.237  -2.801 129.528  0.00  0.00    -0.006 A 
ATOM     20  C   LIG A   1      -7.533  -3.285 129.791  0.00  0.00    +0.011 A 
ATOM     21  C   LIG A   1      -8.500  -3.353 128.787  0.00  0.00    +0.046 A 
ATOM     22  C   LIG A   1      -8.178  -2.937 127.503  0.00  0.00    +0.117 A 
ATOM     23  C   LIG A   1      -6.906  -2.460 127.211  0.00  0.00    +0.046 A 
ATOM     24  C   LIG A   1      -5.936  -2.396 128.218  0.00  0.00    +0.011 A 
BRANCH  22  25
ATOM     25  O   LIG A   1      -9.095  -2.982 126.495  0.00  0.00    -0.507 OA
ATOM     26  H   LIG A   1      -9.749  -3.669 126.706  0.00  0.00    +0.292 HD
ENDBRANCH  22  25
ENDBRANCH  17  19
BRANCH  16  27
ATOM     27  C   LIG A   1      -4.951  -3.242 133.145  0.00  0.00    -0.029 A 
ATOM     28  C   LIG A   1      -5.487  -3.453 134.432  0.00  0.00    +0.050 A 
ATOM     29  C   LIG A   1      -4.755  -4.132 135.404  0.00  0.00    +0.121 A 
ATOM     30  C   LIG A   1      -3.485  -4.619 135.133  0.00  0.00    +0.090 A 
ATOM     31  C   LIG A   1      -2.951  -4.421 133.866  0.00  0.00    +0.121 A 
ATOM     32  C   LIG A   1      -3.668  -3.746 132.876  0.00  0.00    +0.050 A 
BRANCH  29  33
ATOM     33  O   LIG A   1      -5.262  -4.342 136.653  0.00  0.00    -0.507 OA
ATOM     34  H   LIG A   1      -4.887  -3.682 137.258  0.00  0.00    +0.292 HD
ENDBRANCH  29  33
BRANCH  31  35
ATOM     35  O   LIG A   1      -1.707  -4.882 133.546  0.00  0.00    -0.507 OA
ATOM     36  H   LIG A   1      -1.341  -4.316 132.846  0.00  0.00    +0.292 HD
ENDBRANCH  31  35
ENDBRANCH  16  27
BRANCH  14  37
ATOM     37  O   LIG A   1      -7.092  -0.429 133.921  0.00  0.00    -0.506 OA
ATOM     38  H   LIG A   1      -6.704  -0.369 134.808  0.00  0.00    +0.292 HD
ENDBRANCH  14  37
ENDBRANCH   3  10
BRANCH   4  39
ATOM     39  C   LIG A   1      -2.996   4.704 133.373  0.00  0.00    -0.006 A 
ATOM     40  C   LIG A   1      -1.892   4.574 132.513  0.00  0.00    +0.011 A 
ATOM     41  C   LIG A   1      -0.792   5.426 132.614  0.00  0.00    +0.046 A 
ATOM     42  C   LIG A   1      -0.785   6.416 133.587  0.00  0.00    +0.117 A 
ATOM     43  C   LIG A   1      -1.860   6.565 134.455  0.00  0.00    +0.046 A 
ATOM     44  C   LIG A   1      -2.962   5.710 134.353  0.00  0.00    +0.011 A 
BRANCH  42  45
ATOM     45  O   LIG A   1       0.270   7.269 133.718  0.00  0.00    -0.507 OA
ATOM     46  H   LIG A   1       1.090   6.763 133.597  0.00  0.00    +0.292 HD
ENDBRANCH  42  45
ENDBRANCH   4  39
BRANCH   1  47
ATOM     47  O   LIG A   1      -5.319   3.441 128.940  0.00  0.00    -0.506 OA
ATOM     48  H   LIG A   1      -5.786   3.705 128.133  0.00  0.00    +0.292 HD
ENDBRANCH   1  47
BRANCH   8  49
ATOM     49  C   LIG A   1      -8.699   6.590 130.503  0.00  0.00    +0.009 C 
ATOM     50  C   LIG A   1      -9.702   6.294 129.670  0.00  0.00    +0.008 C 
BRANCH  50  51
ATOM     51  C   LIG A   1     -10.816   7.197 129.393  0.00  0.00    -0.025 A 
ATOM     52  C   LIG A   1     -11.732   7.499 130.405  0.00  0.00    +0.011 A 
ATOM     53  C   LIG A   1     -12.764   8.407 130.167  0.00  0.00    +0.046 A 
ATOM     54  C   LIG A   1     -12.869   9.005 128.914  0.00  0.00    +0.117 A 
ATOM     55  C   LIG A   1     -11.962   8.713 127.902  0.00  0.00    +0.046 A 
ATOM     56  C   LIG A   1     -10.929   7.807 128.141  0.00  0.00    +0.011 A 
BRANCH  54  57
ATOM     57  O   LIG A   1     -13.861   9.899 128.638  0.00  0.00    -0.507 OA
ATOM     58  H   LIG A   1     -13.975   9.944 127.675  0.00  0.00    +0.292 HD
ENDBRANCH  54  57
ENDBRANCH  50  51
ENDBRANCH   8  49
TORSDOF 13
ENDMDL
MODEL 6
REMARK VINA RESULT:     -10.0      2.773      7.731
REMARK  Name = NuBBE_1967
REMARK  13 active torsions:
REMARK  status: ('A' for Active; 'I' for Inactive)
REMARK    1  A    between atoms: O_1  and  C_2
REMARK    2  A    between atoms: C_4  and  C_29
REMARK    3  A    between atoms: C_6  and  C_22
REMARK    4  A    between atoms: C_11  and  C_13
REMARK    5  A    between atoms: C_14  and  C_15
REMARK    6  A    between atoms: C_18  and  O_21
REMARK    7  A    between atoms: C_25  and  O_28
REMARK    8  A    between atoms: C_33  and  O_35
REMARK    9  A    between atoms: C_36  and  C_48
REMARK   10  A    between atoms: C_38  and  C_41
REMARK   11  A    between atoms: C_44  and  O_47
REMARK   12  A    between atoms: C_50  and  O_51
REMARK   13  A    between atoms: C_53  and  O_55
REMARK                            x       y       z     vdW  Elec       q    Type
REMARK                         _______ _______ _______ _____ _____    ______ ____
ROOT
ATOM      1  C   LIG A   1      -6.573   3.469 130.968  0.00  0.00    +0.125 A 
ATOM      2  C   LIG A   1      -6.523   3.107 132.294  0.00  0.00    +0.047 A 
ATOM      3  C   LIG A   1      -5.586   2.211 133.028  0.00  0.00    +0.101 C 
ATOM      4  C   LIG A   1      -5.962   2.601 134.487  0.00  0.00    +0.215 C 
ATOM      5  O   LIG A   1      -7.303   3.178 134.472  0.00  0.00    -0.483 OA
ATOM      6  C   LIG A   1      -7.496   3.571 133.168  0.00  0.00    +0.129 A 
ATOM      7  C   LIG A   1      -8.551   4.367 132.758  0.00  0.00    +0.054 A 
ATOM      8  C   LIG A   1      -8.621   4.739 131.408  0.00  0.00    -0.018 A 
ATOM      9  C   LIG A   1      -7.608   4.291 130.531  0.00  0.00    +0.054 A 
ENDROOT
BRANCH   3  10
ATOM     10  C   LIG A   1      -5.835   0.740 132.716  0.00  0.00    -0.029 A 
ATOM     11  C   LIG A   1      -5.125   0.111 131.684  0.00  0.00    +0.050 A 
ATOM     12  C   LIG A   1      -5.378  -1.227 131.438  0.00  0.00    +0.129 A 
ATOM     13  C   LIG A   1      -6.285  -1.974 132.180  0.00  0.00    +0.047 A 
ATOM     14  C   LIG A   1      -7.012  -1.365 133.176  0.00  0.00    +0.124 A 
ATOM     15  C   LIG A   1      -6.793  -0.014 133.441  0.00  0.00    +0.050 A 
ATOM     16  C   LIG A   1      -6.238  -3.394 131.722  0.00  0.00    +0.101 C 
ATOM     17  C   LIG A   1      -5.564  -3.165 130.336  0.00  0.00    +0.215 C 
ATOM     18  O   LIG A   1      -4.784  -1.932 130.417  0.00  0.00    -0.483 OA
BRANCH  17  19
ATOM     19  C   LIG A   1      -6.560  -3.087 129.173  0.00  0.00    -0.006 A 
ATOM     20  C   LIG A   1      -6.270  -2.381 127.989  0.00  0.00    +0.011 A 
ATOM     21  C   LIG A   1      -7.189  -2.315 126.941  0.00  0.00    +0.046 A 
ATOM     22  C   LIG A   1      -8.413  -2.955 127.067  0.00  0.00    +0.117 A 
ATOM     23  C   LIG A   1      -8.731  -3.653 128.226  0.00  0.00    +0.046 A 
ATOM     24  C   LIG A   1      -7.810  -3.717 129.278  0.00  0.00    +0.011 A 
BRANCH  22  25
ATOM     25  O   LIG A   1      -9.336  -2.919 126.065  0.00  0.00    -0.507 OA
ATOM     26  H   LIG A   1      -8.866  -2.925 125.214  0.00  0.00    +0.292 HD
ENDBRANCH  22  25
ENDBRANCH  17  19
BRANCH  16  27
ATOM     27  C   LIG A   1      -5.422  -4.273 132.670  0.00  0.00    -0.029 A 
ATOM     28  C   LIG A   1      -4.019  -4.372 132.570  0.00  0.00    +0.050 A 
ATOM     29  C   LIG A   1      -3.296  -5.164 133.460  0.00  0.00    +0.121 A 
ATOM     30  C   LIG A   1      -3.935  -5.873 134.467  0.00  0.00    +0.090 A 
ATOM     31  C   LIG A   1      -5.317  -5.776 134.577  0.00  0.00    +0.121 A 
ATOM     32  C   LIG A   1      -6.060  -4.987 133.697  0.00  0.00    +0.050 A 
BRANCH  29  33
ATOM     33  O   LIG A   1      -1.939  -5.268 133.373  0.00  0.00    -0.507 OA
ATOM     34  H   LIG A   1      -1.580  -4.419 133.068  0.00  0.00    +0.292 HD
ENDBRANCH  29  33
BRANCH  31  35
ATOM     35  O   LIG A   1      -5.994  -6.451 135.552  0.00  0.00    -0.507 OA
ATOM     36  H   LIG A   1      -5.371  -6.659 136.269  0.00  0.00    +0.292 HD
ENDBRANCH  31  35
ENDBRANCH  16  27
BRANCH  14  37
ATOM     37  O   LIG A   1      -7.950  -2.006 133.923  0.00  0.00    -0.506 OA
ATOM     38  H   LIG A   1      -8.497  -1.355 134.389  0.00  0.00    +0.292 HD
ENDBRANCH  14  37
ENDBRANCH   3  10
BRANCH   4  39
ATOM     39  C   LIG A   1      -4.972   3.572 135.131  0.00  0.00    -0.006 A 
ATOM     40  C   LIG A   1      -4.101   4.357 134.356  0.00  0.00    +0.011 A 
ATOM     41  C   LIG A   1      -3.202   5.242 134.951  0.00  0.00    +0.046 A 
ATOM     42  C   LIG A   1      -3.162   5.345 136.335  0.00  0.00    +0.117 A 
ATOM     43  C   LIG A   1      -4.007   4.578 137.128  0.00  0.00    +0.046 A 
ATOM     44  C   LIG A   1      -4.908   3.690 136.530  0.00  0.00    +0.011 A 
BRANCH  42  45
ATOM     45  O   LIG A   1      -2.298   6.198 136.954  0.00  0.00    -0.507 OA
ATOM     46  H   LIG A   1      -1.393   5.878 136.809  0.00  0.00    +0.292 HD
ENDBRANCH  42  45
ENDBRANCH   4  39
BRANCH   1  47
ATOM     47  O   LIG A   1      -5.662   3.067 130.041  0.00  0.00    -0.506 OA
ATOM     48  H   LIG A   1      -5.917   3.420 129.175  0.00  0.00    +0.292 HD
ENDBRANCH   1  47
BRANCH   8  49
ATOM     49  C   LIG A   1      -9.737   5.589 130.942  0.00  0.00    +0.009 C 
ATOM     50  C   LIG A   1      -9.629   6.497 129.967  0.00  0.00    +0.008 C 
BRANCH  50  51
ATOM     51  C   LIG A   1     -10.731   7.349 129.530  0.00  0.00    -0.025 A 
ATOM     52  C   LIG A   1     -11.763   7.661 130.421  0.00  0.00    +0.011 A 
ATOM     53  C   LIG A   1     -12.788   8.522 130.031  0.00  0.00    +0.046 A 
ATOM     54  C   LIG A   1     -12.772   9.064 128.748  0.00  0.00    +0.117 A 
ATOM     55  C   LIG A   1     -11.749   8.762 127.856  0.00  0.00    +0.046 A 
ATOM     56  C   LIG A   1     -10.723   7.902 128.247  0.00  0.00    +0.011 A 
BRANCH  54  57
ATOM     57  O   LIG A   1     -13.753   9.911 128.326  0.00  0.00    -0.507 OA
ATOM     58  H   LIG A   1     -14.606   9.454 128.400  0.00  0.00    +0.292 HD
ENDBRANCH  54  57
ENDBRANCH  50  51
ENDBRANCH   8  49
TORSDOF 13
ENDMDL
MODEL 7
REMARK VINA RESULT:      -9.8      2.865      9.694
REMARK  Name = NuBBE_1967
REMARK  13 active torsions:
REMARK  status: ('A' for Active; 'I' for Inactive)
REMARK    1  A    between atoms: O_1  and  C_2
REMARK    2  A    between atoms: C_4  and  C_29
REMARK    3  A    between atoms: C_6  and  C_22
REMARK    4  A    between atoms: C_11  and  C_13
REMARK    5  A    between atoms: C_14  and  C_15
REMARK    6  A    between atoms: C_18  and  O_21
REMARK    7  A    between atoms: C_25  and  O_28
REMARK    8  A    between atoms: C_33  and  O_35
REMARK    9  A    between atoms: C_36  and  C_48
REMARK   10  A    between atoms: C_38  and  C_41
REMARK   11  A    between atoms: C_44  and  O_47
REMARK   12  A    between atoms: C_50  and  O_51
REMARK   13  A    between atoms: C_53  and  O_55
REMARK                            x       y       z     vdW  Elec       q    Type
REMARK                         _______ _______ _______ _____ _____    ______ ____
ROOT
ATOM      1  C   LIG A   1      -4.707   0.615 129.591  0.00  0.00    +0.125 A 
ATOM      2  C   LIG A   1      -6.009   0.367 129.221  0.00  0.00    +0.047 A 
ATOM      3  C   LIG A   1      -7.010   1.226 128.529  0.00  0.00    +0.101 C 
ATOM      4  C   LIG A   1      -8.062   0.138 128.167  0.00  0.00    +0.215 C 
ATOM      5  O   LIG A   1      -7.876  -0.994 129.071  0.00  0.00    -0.483 OA
ATOM      6  C   LIG A   1      -6.592  -0.852 129.542  0.00  0.00    +0.129 A 
ATOM      7  C   LIG A   1      -5.927  -1.833 130.257  0.00  0.00    +0.054 A 
ATOM      8  C   LIG A   1      -4.604  -1.592 130.649  0.00  0.00    -0.018 A 
ATOM      9  C   LIG A   1      -4.005  -0.364 130.290  0.00  0.00    +0.054 A 
ENDROOT
BRANCH   3  10
ATOM     10  C   LIG A   1      -7.560   2.315 129.442  0.00  0.00    -0.029 A 
ATOM     11  C   LIG A   1      -6.847   3.509 129.621  0.00  0.00    +0.050 A 
ATOM     12  C   LIG A   1      -7.385   4.472 130.455  0.00  0.00    +0.129 A 
ATOM     13  C   LIG A   1      -8.606   4.318 131.101  0.00  0.00    +0.047 A 
ATOM     14  C   LIG A   1      -9.304   3.141 130.961  0.00  0.00    +0.124 A 
ATOM     15  C   LIG A   1      -8.783   2.142 130.140  0.00  0.00    +0.050 A 
ATOM     16  C   LIG A   1      -8.934   5.578 131.832  0.00  0.00    +0.101 C 
ATOM     17  C   LIG A   1      -7.504   6.195 131.878  0.00  0.00    +0.215 C 
ATOM     18  O   LIG A   1      -6.749   5.656 130.748  0.00  0.00    -0.483 OA
BRANCH  17  19
ATOM     19  C   LIG A   1      -6.760   5.925 133.191  0.00  0.00    -0.006 A 
ATOM     20  C   LIG A   1      -7.443   5.667 134.395  0.00  0.00    +0.011 A 
ATOM     21  C   LIG A   1      -6.752   5.427 135.584  0.00  0.00    +0.046 A 
ATOM     22  C   LIG A   1      -5.365   5.445 135.580  0.00  0.00    +0.117 A 
ATOM     23  C   LIG A   1      -4.663   5.703 134.409  0.00  0.00    +0.046 A 
ATOM     24  C   LIG A   1      -5.357   5.946 133.219  0.00  0.00    +0.011 A 
BRANCH  22  25
ATOM     25  O   LIG A   1      -4.652   5.211 136.719  0.00  0.00    -0.507 OA
ATOM     26  H   LIG A   1      -4.891   4.330 137.055  0.00  0.00    +0.292 HD
ENDBRANCH  22  25
ENDBRANCH  17  19
BRANCH  16  27
ATOM     27  C   LIG A   1      -9.952   6.429 131.072  0.00  0.00    -0.029 A 
ATOM     28  C   LIG A   1      -9.590   7.187 129.940  0.00  0.00    +0.050 A 
ATOM     29  C   LIG A   1     -10.542   7.938 129.253  0.00  0.00    +0.121 A 
ATOM     30  C   LIG A   1     -11.867   7.959 129.662  0.00  0.00    +0.090 A 
ATOM     31  C   LIG A   1     -12.234   7.211 130.773  0.00  0.00    +0.121 A 
ATOM     32  C   LIG A   1     -11.297   6.449 131.475  0.00  0.00    +0.050 A 
BRANCH  29  33
ATOM     33  O   LIG A   1     -10.204   8.676 128.156  0.00  0.00    -0.507 OA
ATOM     34  H   LIG A   1     -10.452   9.602 128.314  0.00  0.00    +0.292 HD
ENDBRANCH  29  33
BRANCH  31  35
ATOM     35  O   LIG A   1     -13.525   7.194 131.216  0.00  0.00    -0.507 OA
ATOM     36  H   LIG A   1     -14.046   6.628 130.620  0.00  0.00    +0.292 HD
ENDBRANCH  31  35
ENDBRANCH  16  27
BRANCH  14  37
ATOM     37  O   LIG A   1     -10.482   2.886 131.588  0.00  0.00    -0.506 OA
ATOM     38  H   LIG A   1     -10.418   2.051 132.077  0.00  0.00    +0.292 HD
ENDBRANCH  14  37
ENDBRANCH   3  10
BRANCH   4  39
ATOM     39  C   LIG A   1      -7.983  -0.324 126.712  0.00  0.00    -0.006 A 
ATOM     40  C   LIG A   1      -7.301   0.425 125.738  0.00  0.00    +0.011 A 
ATOM     41  C   LIG A   1      -7.232  -0.004 124.412  0.00  0.00    +0.046 A 
ATOM     42  C   LIG A   1      -7.855  -1.190 124.047  0.00  0.00    +0.117 A 
ATOM     43  C   LIG A   1      -8.541  -1.950 124.987  0.00  0.00    +0.046 A 
ATOM     44  C   LIG A   1      -8.610  -1.518 126.316  0.00  0.00    +0.011 A 
BRANCH  42  45
ATOM     45  O   LIG A   1      -7.809  -1.644 122.763  0.00  0.00    -0.507 OA
ATOM     46  H   LIG A   1      -8.494  -2.324 122.654  0.00  0.00    +0.292 HD
ENDBRANCH  42  45
ENDBRANCH   4  39
BRANCH   1  47
ATOM     47  O   LIG A   1      -4.053   1.776 129.317  0.00  0.00    -0.506 OA
ATOM     48  H   LIG A   1      -3.099   1.611 129.334  0.00  0.00    +0.292 HD
ENDBRANCH   1  47
BRANCH   8  49
ATOM     49  C   LIG A   1      -3.871  -2.623 131.414  0.00  0.00    +0.009 C 
ATOM     50  C   LIG A   1      -3.988  -2.798 132.735  0.00  0.00    +0.008 C 
BRANCH  50  51
ATOM     51  C   LIG A   1      -3.242  -3.803 133.486  0.00  0.00    -0.025 A 
ATOM     52  C   LIG A   1      -2.269  -3.400 134.407  0.00  0.00    +0.011 A 
ATOM     53  C   LIG A   1      -1.594  -4.351 135.172  0.00  0.00    +0.046 A 
ATOM     54  C   LIG A   1      -1.899  -5.700 135.008  0.00  0.00    +0.117 A 
ATOM     55  C   LIG A   1      -2.867  -6.110 134.098  0.00  0.00    +0.046 A 
ATOM     56  C   LIG A   1      -3.543  -5.159 133.334  0.00  0.00    +0.011 A 
BRANCH  54  57
ATOM     57  O   LIG A   1      -1.265  -6.662 135.736  0.00  0.00    -0.507 OA
ATOM     58  H   LIG A   1      -0.831  -7.276 135.121  0.00  0.00    +0.292 HD
ENDBRANCH  54  57
ENDBRANCH  50  51
ENDBRANCH   8  49
TORSDOF 13
ENDMDL
MODEL 8
REMARK VINA RESULT:      -9.8      3.448     10.305
REMARK  Name = NuBBE_1967
REMARK  13 active torsions:
REMARK  status: ('A' for Active; 'I' for Inactive)
REMARK    1  A    between atoms: O_1  and  C_2
REMARK    2  A    between atoms: C_4  and  C_29
REMARK    3  A    between atoms: C_6  and  C_22
REMARK    4  A    between atoms: C_11  and  C_13
REMARK    5  A    between atoms: C_14  and  C_15
REMARK    6  A    between atoms: C_18  and  O_21
REMARK    7  A    between atoms: C_25  and  O_28
REMARK    8  A    between atoms: C_33  and  O_35
REMARK    9  A    between atoms: C_36  and  C_48
REMARK   10  A    between atoms: C_38  and  C_41
REMARK   11  A    between atoms: C_44  and  O_47
REMARK   12  A    between atoms: C_50  and  O_51
REMARK   13  A    between atoms: C_53  and  O_55
REMARK                            x       y       z     vdW  Elec       q    Type
REMARK                         _______ _______ _______ _____ _____    ______ ____
ROOT
ATOM      1  C   LIG A   1      -7.144   4.591 129.336  0.00  0.00    +0.125 A 
ATOM      2  C   LIG A   1      -8.219   4.904 130.135  0.00  0.00    +0.047 A 
ATOM      3  C   LIG A   1      -8.431   6.025 131.095  0.00  0.00    +0.101 C 
ATOM      4  C   LIG A   1      -9.967   5.885 131.303  0.00  0.00    +0.215 C 
ATOM      5  O   LIG A   1     -10.352   4.522 130.949  0.00  0.00    -0.483 OA
ATOM      6  C   LIG A   1      -9.328   4.070 130.150  0.00  0.00    +0.129 A 
ATOM      7  C   LIG A   1      -9.393   2.900 129.413  0.00  0.00    +0.054 A 
ATOM      8  C   LIG A   1      -8.302   2.562 128.600  0.00  0.00    -0.018 A 
ATOM      9  C   LIG A   1      -7.191   3.433 128.564  0.00  0.00    +0.054 A 
ENDROOT
BRANCH   3  10
ATOM     10  C   LIG A   1      -7.631   5.838 132.379  0.00  0.00    -0.029 A 
ATOM     11  C   LIG A   1      -6.244   5.639 132.320  0.00  0.00    +0.050 A 
ATOM     12  C   LIG A   1      -5.557   5.479 133.509  0.00  0.00    +0.129 A 
ATOM     13  C   LIG A   1      -6.174   5.531 134.753  0.00  0.00    +0.047 A 
ATOM     14  C   LIG A   1      -7.538   5.696 134.828  0.00  0.00    +0.124 A 
ATOM     15  C   LIG A   1      -8.264   5.844 133.648  0.00  0.00    +0.050 A 
ATOM     16  C   LIG A   1      -5.134   5.426 135.820  0.00  0.00    +0.101 C 
ATOM     17  C   LIG A   1      -3.985   4.820 134.959  0.00  0.00    +0.215 C 
ATOM     18  O   LIG A   1      -4.207   5.222 133.571  0.00  0.00    -0.483 OA
BRANCH  17  19
ATOM     19  C   LIG A   1      -3.881   3.294 135.060  0.00  0.00    -0.006 A 
ATOM     20  C   LIG A   1      -3.487   2.500 133.965  0.00  0.00    +0.011 A 
ATOM     21  C   LIG A   1      -3.401   1.111 134.070  0.00  0.00    +0.046 A 
ATOM     22  C   LIG A   1      -3.712   0.499 135.276  0.00  0.00    +0.117 A 
ATOM     23  C   LIG A   1      -4.110   1.255 136.372  0.00  0.00    +0.046 A 
ATOM     24  C   LIG A   1      -4.199   2.648 136.265  0.00  0.00    +0.011 A 
BRANCH  22  25
ATOM     25  O   LIG A   1      -3.636  -0.854 135.422  0.00  0.00    -0.507 OA
ATOM     26  H   LIG A   1      -2.701  -1.100 135.522  0.00  0.00    +0.292 HD
ENDBRANCH  22  25
ENDBRANCH  17  19
BRANCH  16  27
ATOM     27  C   LIG A   1      -4.801   6.789 136.427  0.00  0.00    -0.029 A 
ATOM     28  C   LIG A   1      -3.735   7.577 135.946  0.00  0.00    +0.050 A 
ATOM     29  C   LIG A   1      -3.465   8.826 136.504  0.00  0.00    +0.121 A 
ATOM     30  C   LIG A   1      -4.236   9.326 137.543  0.00  0.00    +0.090 A 
ATOM     31  C   LIG A   1      -5.292   8.559 138.019  0.00  0.00    +0.121 A 
ATOM     32  C   LIG A   1      -5.581   7.307 137.474  0.00  0.00    +0.050 A 
BRANCH  29  33
ATOM     33  O   LIG A   1      -2.437   9.597 136.047  0.00  0.00    -0.507 OA
ATOM     34  H   LIG A   1      -2.355   9.472 135.088  0.00  0.00    +0.292 HD
ENDBRANCH  29  33
BRANCH  31  35
ATOM     35  O   LIG A   1      -6.083   9.006 139.038  0.00  0.00    -0.507 OA
ATOM     36  H   LIG A   1      -6.882   9.405 138.653  0.00  0.00    +0.292 HD
ENDBRANCH  31  35
ENDBRANCH  16  27
BRANCH  14  37
ATOM     37  O   LIG A   1      -8.230   5.715 135.998  0.00  0.00    -0.506 OA
ATOM     38  H   LIG A   1      -8.968   5.088 135.950  0.00  0.00    +0.292 HD
ENDBRANCH  14  37
ENDBRANCH   3  10
BRANCH   4  39
ATOM     39  C   LIG A   1     -10.783   6.896 130.497  0.00  0.00    -0.006 A 
ATOM     40  C   LIG A   1     -10.233   7.577 129.398  0.00  0.00    +0.011 A 
ATOM     41  C   LIG A   1     -10.985   8.497 128.667  0.00  0.00    +0.046 A 
ATOM     42  C   LIG A   1     -12.300   8.748 129.035  0.00  0.00    +0.117 A 
ATOM     43  C   LIG A   1     -12.870   8.093 130.120  0.00  0.00    +0.046 A 
ATOM     44  C   LIG A   1     -12.114   7.172 130.854  0.00  0.00    +0.011 A 
BRANCH  42  45
ATOM     45  O   LIG A   1     -13.068   9.638 128.345  0.00  0.00    -0.507 OA
ATOM     46  H   LIG A   1     -13.999   9.378 128.440  0.00  0.00    +0.292 HD
ENDBRANCH  42  45
ENDBRANCH   4  39
BRANCH   1  47
ATOM     47  O   LIG A   1      -6.018   5.350 129.254  0.00  0.00    -0.506 OA
ATOM     48  H   LIG A   1      -5.812   5.509 128.321  0.00  0.00    +0.292 HD
ENDBRANCH   1  47
BRANCH   8  49
ATOM     49  C   LIG A   1      -8.345   1.318 127.803  0.00  0.00    +0.009 C 
ATOM     50  C   LIG A   1      -8.807   1.249 126.550  0.00  0.00    +0.008 C 
BRANCH  50  51
ATOM     51  C   LIG A   1      -8.867   0.011 125.778  0.00  0.00    -0.025 A 
ATOM     52  C   LIG A   1      -9.007   0.066 124.387  0.00  0.00    +0.011 A 
ATOM     53  C   LIG A   1      -9.005  -1.110 123.637  0.00  0.00    +0.046 A 
ATOM     54  C   LIG A   1      -8.864  -2.333 124.287  0.00  0.00    +0.117 A 
ATOM     55  C   LIG A   1      -8.721  -2.398 125.669  0.00  0.00    +0.046 A 
ATOM     56  C   LIG A   1      -8.721  -1.222 126.419  0.00  0.00    +0.011 A 
BRANCH  54  57
ATOM     57  O   LIG A   1      -8.856  -3.506 123.593  0.00  0.00    -0.507 OA
ATOM     58  H   LIG A   1      -8.128  -4.055 123.926  0.00  0.00    +0.292 HD
ENDBRANCH  54  57
ENDBRANCH  50  51
ENDBRANCH   8  49
TORSDOF 13
ENDMDL
MODEL 9
REMARK VINA RESULT:      -9.3      2.281     10.765
REMARK  Name = NuBBE_1967
REMARK  13 active torsions:
REMARK  status: ('A' for Active; 'I' for Inactive)
REMARK    1  A    between atoms: O_1  and  C_2
REMARK    2  A    between atoms: C_4  and  C_29
REMARK    3  A    between atoms: C_6  and  C_22
REMARK    4  A    between atoms: C_11  and  C_13
REMARK    5  A    between atoms: C_14  and  C_15
REMARK    6  A    between atoms: C_18  and  O_21
REMARK    7  A    between atoms: C_25  and  O_28
REMARK    8  A    between atoms: C_33  and  O_35
REMARK    9  A    between atoms: C_36  and  C_48
REMARK   10  A    between atoms: C_38  and  C_41
REMARK   11  A    between atoms: C_44  and  O_47
REMARK   12  A    between atoms: C_50  and  O_51
REMARK   13  A    between atoms: C_53  and  O_55
REMARK                            x       y       z     vdW  Elec       q    Type
REMARK                         _______ _______ _______ _____ _____    ______ ____
ROOT
ATOM      1  C   LIG A   1      -5.018  -0.547 130.937  0.00  0.00    +0.125 A 
ATOM      2  C   LIG A   1      -6.058  -0.202 130.106  0.00  0.00    +0.047 A 
ATOM      3  C   LIG A   1      -6.143   0.806 129.012  0.00  0.00    +0.101 C 
ATOM      4  C   LIG A   1      -7.475   0.343 128.352  0.00  0.00    +0.215 C 
ATOM      5  O   LIG A   1      -8.233  -0.417 129.342  0.00  0.00    -0.483 OA
ATOM      6  C   LIG A   1      -7.295  -0.812 130.266  0.00  0.00    +0.129 A 
ATOM      7  C   LIG A   1      -7.545  -1.744 131.259  0.00  0.00    +0.054 A 
ATOM      8  C   LIG A   1      -6.498  -2.100 132.119  0.00  0.00    -0.018 A 
ATOM      9  C   LIG A   1      -5.233  -1.501 131.929  0.00  0.00    +0.054 A 
ENDROOT
BRANCH   3  10
ATOM     10  C   LIG A   1      -6.201   2.231 129.548  0.00  0.00    -0.029 A 
ATOM     11  C   LIG A   1      -6.968   2.523 130.684  0.00  0.00    +0.050 A 
ATOM     12  C   LIG A   1      -6.988   3.829 131.140  0.00  0.00    +0.129 A 
ATOM     13  C   LIG A   1      -6.267   4.853 130.536  0.00  0.00    +0.047 A 
ATOM     14  C   LIG A   1      -5.534   4.590 129.402  0.00  0.00    +0.124 A 
ATOM     15  C   LIG A   1      -5.504   3.287 128.907  0.00  0.00    +0.050 A 
ATOM     16  C   LIG A   1      -6.430   6.103 131.337  0.00  0.00    +0.101 C 
ATOM     17  C   LIG A   1      -7.711   5.702 132.128  0.00  0.00    +0.215 C 
ATOM     18  O   LIG A   1      -7.747   4.243 132.210  0.00  0.00    -0.483 OA
BRANCH  17  19
ATOM     19  C   LIG A   1      -9.008   6.231 131.507  0.00  0.00    -0.006 A 
ATOM     20  C   LIG A   1     -10.268   5.980 132.084  0.00  0.00    +0.011 A 
ATOM     21  C   LIG A   1     -11.441   6.464 131.504  0.00  0.00    +0.046 A 
ATOM     22  C   LIG A   1     -11.366   7.208 130.335  0.00  0.00    +0.117 A 
ATOM     23  C   LIG A   1     -10.138   7.467 129.738  0.00  0.00    +0.046 A 
ATOM     24  C   LIG A   1      -8.962   6.978 130.319  0.00  0.00    +0.011 A 
BRANCH  22  25
ATOM     25  O   LIG A   1     -12.488   7.703 129.739  0.00  0.00    -0.507 OA
ATOM     26  H   LIG A   1     -12.619   8.617 130.044  0.00  0.00    +0.292 HD
ENDBRANCH  22  25
ENDBRANCH  17  19
BRANCH  16  27
ATOM     27  C   LIG A   1      -5.214   6.375 132.223  0.00  0.00    -0.029 A 
ATOM     28  C   LIG A   1      -4.081   7.063 131.741  0.00  0.00    +0.050 A 
ATOM     29  C   LIG A   1      -2.994   7.316 132.576  0.00  0.00    +0.121 A 
ATOM     30  C   LIG A   1      -2.998   6.901 133.899  0.00  0.00    +0.090 A 
ATOM     31  C   LIG A   1      -4.112   6.228 134.384  0.00  0.00    +0.121 A 
ATOM     32  C   LIG A   1      -5.213   5.966 133.566  0.00  0.00    +0.050 A 
BRANCH  29  33
ATOM     33  O   LIG A   1      -1.893   7.980 132.121  0.00  0.00    -0.507 OA
ATOM     34  H   LIG A   1      -1.738   8.753 132.688  0.00  0.00    +0.292 HD
ENDBRANCH  29  33
BRANCH  31  35
ATOM     35  O   LIG A   1      -4.167   5.800 135.680  0.00  0.00    -0.507 OA
ATOM     36  H   LIG A   1      -3.260   5.765 136.030  0.00  0.00    +0.292 HD
ENDBRANCH  31  35
ENDBRANCH  16  27
BRANCH  14  37
ATOM     37  O   LIG A   1      -4.834   5.536 128.723  0.00  0.00    -0.506 OA
ATOM     38  H   LIG A   1      -4.172   5.109 128.157  0.00  0.00    +0.292 HD
ENDBRANCH  14  37
ENDBRANCH   3  10
BRANCH   4  39
ATOM     39  C   LIG A   1      -7.269  -0.488 127.086  0.00  0.00    -0.006 A 
ATOM     40  C   LIG A   1      -5.984  -0.785 126.600  0.00  0.00    +0.011 A 
ATOM     41  C   LIG A   1      -5.805  -1.545 125.445  0.00  0.00    +0.046 A 
ATOM     42  C   LIG A   1      -6.918  -2.013 124.758  0.00  0.00    +0.117 A 
ATOM     43  C   LIG A   1      -8.200  -1.731 125.210  0.00  0.00    +0.046 A 
ATOM     44  C   LIG A   1      -8.379  -0.968 126.369  0.00  0.00    +0.011 A 
BRANCH  42  45
ATOM     45  O   LIG A   1      -6.784  -2.760 123.625  0.00  0.00    -0.507 OA
ATOM     46  H   LIG A   1      -5.992  -2.460 123.152  0.00  0.00    +0.292 HD
ENDBRANCH  42  45
ENDBRANCH   4  39
BRANCH   1  47
ATOM     47  O   LIG A   1      -3.773  -0.006 130.851  0.00  0.00    -0.506 OA
ATOM     48  H   LIG A   1      -3.475  -0.044 129.930  0.00  0.00    +0.292 HD
ENDBRANCH   1  47
BRANCH   8  49
ATOM     49  C   LIG A   1      -6.738  -3.092 133.189  0.00  0.00    +0.009 C 
ATOM     50  C   LIG A   1      -7.742  -3.013 134.069  0.00  0.00    +0.008 C 
BRANCH  50  51
ATOM     51  C   LIG A   1      -7.957  -3.985 135.138  0.00  0.00    -0.025 A 
ATOM     52  C   LIG A   1      -7.371  -5.252 135.052  0.00  0.00    +0.011 A 
ATOM     53  C   LIG A   1      -7.522  -6.165 136.096  0.00  0.00    +0.046 A 
ATOM     54  C   LIG A   1      -8.261  -5.800 137.218  0.00  0.00    +0.117 A 
ATOM     55  C   LIG A   1      -8.844  -4.542 137.314  0.00  0.00    +0.046 A 
ATOM     56  C   LIG A   1      -8.691  -3.629 136.272  0.00  0.00    +0.011 A 
BRANCH  54  57
ATOM     57  O   LIG A   1      -8.433  -6.661 138.262  0.00  0.00    -0.507 OA
ATOM     58  H   LIG A   1      -7.806  -6.422 138.963  0.00  0.00    +0.292 HD
ENDBRANCH  54  57
ENDBRANCH  50  51
ENDBRANCH   8  49
TORSDOF 13
ENDMDL
