MODEL 1
REMARK VINA RESULT:      -8.2      0.000      0.000
REMARK  Name = NuBBE_995
REMARK  13 active torsions:
REMARK  status: ('A' for Active; 'I' for Inactive)
REMARK    1  A    between atoms: C_1  and  C_2
REMARK    2  A    between atoms: C_6  and  C_8
REMARK    3  A    between atoms: C_8  and  C_9
REMARK    4  A    between atoms: C_15  and  O_17
REMARK    5  A    between atoms: O_17  and  C_18
REMARK    6  A    between atoms: C_18  and  C_19
REMARK    7  A    between atoms: C_21  and  O_23
REMARK    8  A    between atoms: O_23  and  C_24
REMARK    9  A    between atoms: C_24  and  C_25
REMARK   10  A    between atoms: C_27  and  O_29
REMARK   11  A    between atoms: O_29  and  C_30
REMARK   12  A    between atoms: C_30  and  C_31
REMARK   13  A    between atoms: C_34  and  C_35
REMARK                            x       y       z     vdW  Elec       q    Type
REMARK                         _______ _______ _______ _____ _____    ______ ____
ROOT
ATOM      1  C   LIG A   1      -7.035  -2.165 127.123  0.00  0.00    +0.012 C 
ATOM      2  C   LIG A   1      -6.881  -1.232 125.901  0.00  0.00    -0.019 C 
ATOM      3  C   LIG A   1      -7.822   0.007 126.095  0.00  0.00    +0.006 C 
ATOM      4  C   LIG A   1      -9.201  -0.489 125.643  0.00  0.00    +0.079 C 
ATOM      5  C   LIG A   1      -8.885  -1.535 124.615  0.00  0.00    +0.137 C 
ATOM      6  C   LIG A   1      -7.403  -1.865 124.557  0.00  0.00    +0.061 C 
ATOM      7  O   LIG A   1      -9.748  -2.024 123.896  0.00  0.00    -0.297 OA
ATOM      8  C   LIG A   1      -7.281   1.242 125.330  0.00  0.00    -0.003 C 
ATOM      9  C   LIG A   1      -8.557   2.528 125.078  0.00  0.00    +0.004 C 
ATOM     10  C   LIG A   1      -8.159   4.305 125.369  0.00  0.00    +0.008 C 
ATOM     11  C   LIG A   1      -6.520   4.472 126.224  0.00  0.00    +0.040 C 
ATOM     12  C   LIG A   1      -7.285   3.385 126.691  0.00  0.00    +0.224 C 
ATOM     13  C   LIG A   1      -7.406   3.988 128.144  0.00  0.00    +0.257 C 
ATOM     14  C   LIG A   1      -6.149   3.745 129.003  0.00  0.00    +0.221 C 
ATOM     15  C   LIG A   1      -4.982   3.207 128.182  0.00  0.00    +0.055 C 
ATOM     16  C   LIG A   1      -5.182   3.298 126.639  0.00  0.00    -0.019 C 
ATOM     17  C   LIG A   1      -3.874   3.869 126.036  0.00  0.00    +0.012 C 
ATOM     18  C   LIG A   1      -5.571   1.613 125.964  0.00  0.00    -0.001 C 
ATOM     19  C   LIG A   1      -5.024   0.375 126.672  0.00  0.00    +0.005 C 
ATOM     20  C   LIG A   1      -5.381  -0.842 125.798  0.00  0.00    +0.008 C 
ENDROOT
BRANCH   6  21
ATOM     21  C   LIG A   1      -7.089  -3.346 124.321  0.00  0.00    +0.008 C 
ATOM     22  C   LIG A   1      -5.629  -3.606 123.941  0.00  0.00    +0.004 C 
ENDBRANCH   6  21
BRANCH  12  23
ATOM     23  O   LIG A   1      -6.480   3.232 125.001  0.00  0.00    -0.457 OA
BRANCH  23  24
ATOM     24  C   LIG A   1      -6.102   3.751 123.772  0.00  0.00    +0.304 C 
ATOM     25  C   LIG A   1      -6.397   2.753 122.654  0.00  0.00    +0.136 C 
ATOM     26  O   LIG A   1      -5.671   4.863 123.568  0.00  0.00    -0.251 OA
ENDBRANCH  23  24
ENDBRANCH  12  23
BRANCH  13  27
ATOM     27  O   LIG A   1      -8.548   3.241 128.688  0.00  0.00    -0.454 OA
BRANCH  27  28
ATOM     28  C   LIG A   1      -9.384   3.903 129.510  0.00  0.00    +0.304 C 
ATOM     29  C   LIG A   1      -9.893   3.021 130.594  0.00  0.00    +0.136 C 
ATOM     30  O   LIG A   1      -9.781   5.050 129.331  0.00  0.00    -0.251 OA
ENDBRANCH  27  28
ENDBRANCH  13  27
BRANCH  14  31
ATOM     31  O   LIG A   1      -6.404   2.763 130.035  0.00  0.00    -0.458 OA
BRANCH  31  32
ATOM     32  C   LIG A   1      -6.182   3.193 131.320  0.00  0.00    +0.304 C 
ATOM     33  C   LIG A   1      -5.164   2.215 131.885  0.00  0.00    +0.136 C 
ATOM     34  O   LIG A   1      -6.700   4.132 131.880  0.00  0.00    -0.251 OA
ENDBRANCH  31  32
ENDBRANCH  14  31
TORSDOF 7
ENDMDL
MODEL 2
REMARK VINA RESULT:      -8.2      3.185      8.131
REMARK  Name = NuBBE_995
REMARK  13 active torsions:
REMARK  status: ('A' for Active; 'I' for Inactive)
REMARK    1  A    between atoms: C_1  and  C_2
REMARK    2  A    between atoms: C_6  and  C_8
REMARK    3  A    between atoms: C_8  and  C_9
REMARK    4  A    between atoms: C_15  and  O_17
REMARK    5  A    between atoms: O_17  and  C_18
REMARK    6  A    between atoms: C_18  and  C_19
REMARK    7  A    between atoms: C_21  and  O_23
REMARK    8  A    between atoms: O_23  and  C_24
REMARK    9  A    between atoms: C_24  and  C_25
REMARK   10  A    between atoms: C_27  and  O_29
REMARK   11  A    between atoms: O_29  and  C_30
REMARK   12  A    between atoms: C_30  and  C_31
REMARK   13  A    between atoms: C_34  and  C_35
REMARK                            x       y       z     vdW  Elec       q    Type
REMARK                         _______ _______ _______ _____ _____    ______ ____
ROOT
ATOM      1  C   LIG A   1      -3.290   5.450 128.868  0.00  0.00    +0.012 C 
ATOM      2  C   LIG A   1      -3.747   5.375 130.342  0.00  0.00    -0.019 C 
ATOM      3  C   LIG A   1      -5.188   5.981 130.451  0.00  0.00    +0.006 C 
ATOM      4  C   LIG A   1      -4.959   7.496 130.516  0.00  0.00    +0.079 C 
ATOM      5  C   LIG A   1      -3.613   7.625 131.164  0.00  0.00    +0.137 C 
ATOM      6  C   LIG A   1      -2.905   6.289 131.309  0.00  0.00    +0.061 C 
ATOM      7  O   LIG A   1      -3.177   8.703 131.551  0.00  0.00    -0.297 OA
ATOM      8  C   LIG A   1      -5.958   5.377 131.654  0.00  0.00    -0.003 C 
ATOM      9  C   LIG A   1      -7.399   6.390 132.148  0.00  0.00    +0.004 C 
ATOM     10  C   LIG A   1      -9.015   5.587 132.530  0.00  0.00    +0.008 C 
ATOM     11  C   LIG A   1      -8.992   3.804 132.014  0.00  0.00    +0.040 C 
ATOM     12  C   LIG A   1      -8.330   4.655 131.108  0.00  0.00    +0.224 C 
ATOM     13  C   LIG A   1      -9.344   4.338 129.941  0.00  0.00    +0.257 C 
ATOM     14  C   LIG A   1      -9.045   3.003 129.231  0.00  0.00    +0.221 C 
ATOM     15  C   LIG A   1      -8.004   2.172 129.974  0.00  0.00    +0.055 C 
ATOM     16  C   LIG A   1      -7.685   2.674 131.415  0.00  0.00    -0.019 C 
ATOM     17  C   LIG A   1      -7.692   1.438 132.348  0.00  0.00    +0.012 C 
ATOM     18  C   LIG A   1      -6.039   3.532 131.422  0.00  0.00    -0.001 C 
ATOM     19  C   LIG A   1      -4.967   3.109 130.420  0.00  0.00    +0.005 C 
ATOM     20  C   LIG A   1      -3.684   3.884 130.775  0.00  0.00    +0.008 C 
ENDROOT
BRANCH   6  21
ATOM     21  C   LIG A   1      -1.393   6.339 131.073  0.00  0.00    +0.008 C 
ATOM     22  C   LIG A   1      -0.578   6.466 132.363  0.00  0.00    +0.004 C 
ENDBRANCH   6  21
BRANCH  12  23
ATOM     23  O   LIG A   1      -7.482   4.279 132.741  0.00  0.00    -0.457 OA
BRANCH  23  24
ATOM     24  C   LIG A   1      -7.486   4.133 134.119  0.00  0.00    +0.304 C 
ATOM     25  C   LIG A   1      -6.065   3.936 134.644  0.00  0.00    +0.136 C 
ATOM     26  O   LIG A   1      -8.450   4.226 134.845  0.00  0.00    -0.251 OA
ENDBRANCH  23  24
ENDBRANCH  12  23
BRANCH  13  27
ATOM     27  O   LIG A   1      -9.115   5.465 129.026  0.00  0.00    -0.454 OA
BRANCH  27  28
ATOM     28  C   LIG A   1     -10.099   6.377 128.913  0.00  0.00    +0.304 C 
ATOM     29  C   LIG A   1      -9.722   7.665 129.555  0.00  0.00    +0.136 C 
ATOM     30  O   LIG A   1     -11.213   6.154 128.451  0.00  0.00    -0.251 OA
ENDBRANCH  27  28
ENDBRANCH  13  27
BRANCH  14  31
ATOM     31  O   LIG A   1      -8.513   3.225 127.904  0.00  0.00    -0.458 OA
BRANCH  31  32
ATOM     32  C   LIG A   1      -8.367   2.097 127.135  0.00  0.00    +0.304 C 
ATOM     33  C   LIG A   1      -6.916   2.122 126.681  0.00  0.00    +0.136 C 
ATOM     34  O   LIG A   1      -9.216   1.278 126.865  0.00  0.00    -0.251 OA
ENDBRANCH  31  32
ENDBRANCH  14  31
TORSDOF 7
ENDMDL
MODEL 3
REMARK VINA RESULT:      -8.1      2.161      5.083
REMARK  Name = NuBBE_995
REMARK  13 active torsions:
REMARK  status: ('A' for Active; 'I' for Inactive)
REMARK    1  A    between atoms: C_1  and  C_2
REMARK    2  A    between atoms: C_6  and  C_8
REMARK    3  A    between atoms: C_8  and  C_9
REMARK    4  A    between atoms: C_15  and  O_17
REMARK    5  A    between atoms: O_17  and  C_18
REMARK    6  A    between atoms: C_18  and  C_19
REMARK    7  A    between atoms: C_21  and  O_23
REMARK    8  A    between atoms: O_23  and  C_24
REMARK    9  A    between atoms: C_24  and  C_25
REMARK   10  A    between atoms: C_27  and  O_29
REMARK   11  A    between atoms: O_29  and  C_30
REMARK   12  A    between atoms: C_30  and  C_31
REMARK   13  A    between atoms: C_34  and  C_35
REMARK                            x       y       z     vdW  Elec       q    Type
REMARK                         _______ _______ _______ _____ _____    ______ ____
ROOT
ATOM      1  C   LIG A   1      -7.459   0.173 123.417  0.00  0.00    +0.012 C 
ATOM      2  C   LIG A   1      -7.595  -0.520 124.791  0.00  0.00    -0.019 C 
ATOM      3  C   LIG A   1      -6.367  -0.118 125.678  0.00  0.00    +0.006 C 
ATOM      4  C   LIG A   1      -5.245  -1.060 125.224  0.00  0.00    +0.079 C 
ATOM      5  C   LIG A   1      -5.975  -2.290 124.772  0.00  0.00    +0.137 C 
ATOM      6  C   LIG A   1      -7.479  -2.089 124.718  0.00  0.00    +0.061 C 
ATOM      7  O   LIG A   1      -5.391  -3.336 124.513  0.00  0.00    -0.297 OA
ATOM      8  C   LIG A   1      -6.721  -0.191 127.186  0.00  0.00    -0.003 C 
ATOM      9  C   LIG A   1      -5.238  -0.253 128.255  0.00  0.00    +0.004 C 
ATOM     10  C   LIG A   1      -5.145   0.782 129.779  0.00  0.00    +0.008 C 
ATOM     11  C   LIG A   1      -6.523   2.025 129.806  0.00  0.00    +0.040 C 
ATOM     12  C   LIG A   1      -5.971   1.832 128.524  0.00  0.00    +0.224 C 
ATOM     13  C   LIG A   1      -5.460   3.322 128.430  0.00  0.00    +0.257 C 
ATOM     14  C   LIG A   1      -6.571   4.314 128.032  0.00  0.00    +0.221 C 
ATOM     15  C   LIG A   1      -7.956   3.679 128.070  0.00  0.00    +0.055 C 
ATOM     16  C   LIG A   1      -8.011   2.290 128.776  0.00  0.00    -0.019 C 
ATOM     17  C   LIG A   1      -9.228   2.305 129.734  0.00  0.00    +0.012 C 
ATOM     18  C   LIG A   1      -8.157   0.951 127.499  0.00  0.00    -0.001 C 
ATOM     19  C   LIG A   1      -8.853   1.250 126.172  0.00  0.00    +0.005 C 
ATOM     20  C   LIG A   1      -8.953  -0.080 125.403  0.00  0.00    +0.008 C 
ENDROOT
BRANCH   6  21
ATOM     21  C   LIG A   1      -8.174  -2.780 123.541  0.00  0.00    +0.008 C 
ATOM     22  C   LIG A   1      -9.499  -3.447 123.920  0.00  0.00    +0.004 C 
ENDBRANCH   6  21
BRANCH  12  23
ATOM     23  O   LIG A   1      -7.068   0.477 129.222  0.00  0.00    -0.457 OA
BRANCH  23  24
ATOM     24  C   LIG A   1      -7.490  -0.351 130.250  0.00  0.00    +0.304 C 
ATOM     25  C   LIG A   1      -7.886  -1.723 129.708  0.00  0.00    +0.136 C 
ATOM     26  O   LIG A   1      -7.481  -0.085 131.431  0.00  0.00    -0.251 OA
ENDBRANCH  23  24
ENDBRANCH  12  23
BRANCH  13  27
ATOM     27  O   LIG A   1      -4.453   3.230 127.364  0.00  0.00    -0.454 OA
BRANCH  27  28
ATOM     28  C   LIG A   1      -3.188   3.569 127.679  0.00  0.00    +0.304 C 
ATOM     29  C   LIG A   1      -2.223   3.074 126.660  0.00  0.00    +0.136 C 
ATOM     30  O   LIG A   1      -2.846   4.107 128.726  0.00  0.00    -0.251 OA
ENDBRANCH  27  28
ENDBRANCH  13  27
BRANCH  14  31
ATOM     31  O   LIG A   1      -6.383   4.794 126.680  0.00  0.00    -0.458 OA
BRANCH  31  32
ATOM     32  C   LIG A   1      -7.486   4.702 125.867  0.00  0.00    +0.304 C 
ATOM     33  C   LIG A   1      -7.075   3.740 124.763  0.00  0.00    +0.136 C 
ATOM     34  O   LIG A   1      -8.542   5.278 125.996  0.00  0.00    -0.251 OA
ENDBRANCH  31  32
ENDBRANCH  14  31
TORSDOF 7
ENDMDL
MODEL 4
REMARK VINA RESULT:      -8.0      2.192      6.706
REMARK  Name = NuBBE_995
REMARK  13 active torsions:
REMARK  status: ('A' for Active; 'I' for Inactive)
REMARK    1  A    between atoms: C_1  and  C_2
REMARK    2  A    between atoms: C_6  and  C_8
REMARK    3  A    between atoms: C_8  and  C_9
REMARK    4  A    between atoms: C_15  and  O_17
REMARK    5  A    between atoms: O_17  and  C_18
REMARK    6  A    between atoms: C_18  and  C_19
REMARK    7  A    between atoms: C_21  and  O_23
REMARK    8  A    between atoms: O_23  and  C_24
REMARK    9  A    between atoms: C_24  and  C_25
REMARK   10  A    between atoms: C_27  and  O_29
REMARK   11  A    between atoms: O_29  and  C_30
REMARK   12  A    between atoms: C_30  and  C_31
REMARK   13  A    between atoms: C_34  and  C_35
REMARK                            x       y       z     vdW  Elec       q    Type
REMARK                         _______ _______ _______ _____ _____    ______ ____
ROOT
ATOM      1  C   LIG A   1     -10.322   3.052 130.729  0.00  0.00    +0.012 C 
ATOM      2  C   LIG A   1      -8.778   3.111 130.733  0.00  0.00    -0.019 C 
ATOM      3  C   LIG A   1      -8.228   1.881 129.931  0.00  0.00    +0.006 C 
ATOM      4  C   LIG A   1      -8.267   0.724 130.936  0.00  0.00    +0.079 C 
ATOM      5  C   LIG A   1      -8.082   1.398 132.263  0.00  0.00    +0.137 C 
ATOM      6  C   LIG A   1      -8.145   2.913 132.161  0.00  0.00    +0.061 C 
ATOM      7  O   LIG A   1      -7.873   0.766 133.292  0.00  0.00    -0.297 OA
ATOM      8  C   LIG A   1      -6.833   2.187 129.329  0.00  0.00    -0.003 C 
ATOM      9  C   LIG A   1      -5.925   0.673 128.850  0.00  0.00    +0.004 C 
ATOM     10  C   LIG A   1      -5.036   0.592 127.236  0.00  0.00    +0.008 C 
ATOM     11  C   LIG A   1      -5.500   2.035 126.165  0.00  0.00    +0.040 C 
ATOM     12  C   LIG A   1      -6.585   1.510 126.895  0.00  0.00    +0.224 C 
ATOM     13  C   LIG A   1      -7.363   1.084 125.590  0.00  0.00    +0.257 C 
ATOM     14  C   LIG A   1      -8.107   2.258 124.924  0.00  0.00    +0.221 C 
ATOM     15  C   LIG A   1      -7.719   3.605 125.523  0.00  0.00    +0.055 C 
ATOM     16  C   LIG A   1      -6.463   3.564 126.445  0.00  0.00    -0.019 C 
ATOM     17  C   LIG A   1      -5.554   4.752 126.044  0.00  0.00    +0.012 C 
ATOM     18  C   LIG A   1      -6.994   3.674 128.220  0.00  0.00    -0.001 C 
ATOM     19  C   LIG A   1      -8.277   4.423 128.576  0.00  0.00    +0.005 C 
ATOM     20  C   LIG A   1      -8.361   4.473 130.113  0.00  0.00    +0.008 C 
ENDROOT
BRANCH   6  21
ATOM     21  C   LIG A   1      -8.850   3.602 133.333  0.00  0.00    +0.008 C 
ATOM     22  C   LIG A   1      -7.886   4.121 134.404  0.00  0.00    +0.004 C 
ENDBRANCH   6  21
BRANCH  12  23
ATOM     23  O   LIG A   1      -5.299   2.512 127.828  0.00  0.00    -0.457 OA
BRANCH  23  24
ATOM     24  C   LIG A   1      -3.992   2.901 128.077  0.00  0.00    +0.304 C 
ATOM     25  C   LIG A   1      -3.855   3.449 129.496  0.00  0.00    +0.136 C 
ATOM     26  O   LIG A   1      -3.051   2.764 127.328  0.00  0.00    -0.251 OA
ENDBRANCH  23  24
ENDBRANCH  12  23
BRANCH  13  27
ATOM     27  O   LIG A   1      -8.324   0.105 126.117  0.00  0.00    -0.454 OA
BRANCH  27  28
ATOM     28  C   LIG A   1      -8.447  -1.059 125.450  0.00  0.00    +0.304 C 
ATOM     29  C   LIG A   1      -7.178  -1.432 124.768  0.00  0.00    +0.136 C 
ATOM     30  O   LIG A   1      -9.495  -1.680 125.312  0.00  0.00    -0.251 OA
ENDBRANCH  27  28
ENDBRANCH  13  27
BRANCH  14  31
ATOM     31  O   LIG A   1      -9.538   2.135 125.099  0.00  0.00    -0.458 OA
BRANCH  31  32
ATOM     32  C   LIG A   1     -10.223   1.653 124.010  0.00  0.00    +0.304 C 
ATOM     33  C   LIG A   1      -9.330   1.969 122.820  0.00  0.00    +0.136 C 
ATOM     34  O   LIG A   1     -11.306   1.113 124.004  0.00  0.00    -0.251 OA
ENDBRANCH  31  32
ENDBRANCH  14  31
TORSDOF 7
ENDMDL
MODEL 5
REMARK VINA RESULT:      -7.9      4.146      7.965
REMARK  Name = NuBBE_995
REMARK  13 active torsions:
REMARK  status: ('A' for Active; 'I' for Inactive)
REMARK    1  A    between atoms: C_1  and  C_2
REMARK    2  A    between atoms: C_6  and  C_8
REMARK    3  A    between atoms: C_8  and  C_9
REMARK    4  A    between atoms: C_15  and  O_17
REMARK    5  A    between atoms: O_17  and  C_18
REMARK    6  A    between atoms: C_18  and  C_19
REMARK    7  A    between atoms: C_21  and  O_23
REMARK    8  A    between atoms: O_23  and  C_24
REMARK    9  A    between atoms: C_24  and  C_25
REMARK   10  A    between atoms: C_27  and  O_29
REMARK   11  A    between atoms: O_29  and  C_30
REMARK   12  A    between atoms: C_30  and  C_31
REMARK   13  A    between atoms: C_34  and  C_35
REMARK                            x       y       z     vdW  Elec       q    Type
REMARK                         _______ _______ _______ _____ _____    ______ ____
ROOT
ATOM      1  C   LIG A   1      -9.397   6.250 128.697  0.00  0.00    +0.012 C 
ATOM      2  C   LIG A   1      -9.364   5.793 130.173  0.00  0.00    -0.019 C 
ATOM      3  C   LIG A   1      -8.540   4.463 130.268  0.00  0.00    +0.006 C 
ATOM      4  C   LIG A   1      -9.537   3.369 129.868  0.00  0.00    +0.079 C 
ATOM      5  C   LIG A   1     -10.864   3.924 130.293  0.00  0.00    +0.137 C 
ATOM      6  C   LIG A   1     -10.775   5.375 130.734  0.00  0.00    +0.061 C 
ATOM      7  O   LIG A   1     -11.882   3.243 130.302  0.00  0.00    -0.297 OA
ATOM      8  C   LIG A   1      -7.906   4.299 131.674  0.00  0.00    -0.003 C 
ATOM      9  C   LIG A   1      -7.394   2.577 132.018  0.00  0.00    +0.004 C 
ATOM     10  C   LIG A   1      -5.759   2.230 132.797  0.00  0.00    +0.008 C 
ATOM     11  C   LIG A   1      -4.710   3.761 132.815  0.00  0.00    +0.040 C 
ATOM     12  C   LIG A   1      -5.462   3.615 131.634  0.00  0.00    +0.224 C 
ATOM     13  C   LIG A   1      -4.173   3.490 130.731  0.00  0.00    +0.257 C 
ATOM     14  C   LIG A   1      -3.534   4.854 130.405  0.00  0.00    +0.221 C 
ATOM     15  C   LIG A   1      -4.133   5.987 131.230  0.00  0.00    +0.055 C 
ATOM     16  C   LIG A   1      -5.025   5.518 132.420  0.00  0.00    -0.019 C 
ATOM     17  C   LIG A   1      -4.610   6.344 133.663  0.00  0.00    +0.012 C 
ATOM     18  C   LIG A   1      -6.813   5.772 131.991  0.00  0.00    -0.001 C 
ATOM     19  C   LIG A   1      -7.205   6.898 131.037  0.00  0.00    +0.005 C 
ATOM     20  C   LIG A   1      -8.744   6.950 131.006  0.00  0.00    +0.008 C 
ENDROOT
BRANCH   6  21
ATOM     21  C   LIG A   1     -11.969   6.241 130.321  0.00  0.00    +0.008 C 
ATOM     22  C   LIG A   1     -12.471   7.159 131.439  0.00  0.00    +0.004 C 
ENDBRANCH   6  21
BRANCH  12  23
ATOM     23  O   LIG A   1      -6.371   4.119 133.197  0.00  0.00    -0.457 OA
BRANCH  23  24
ATOM     24  C   LIG A   1      -6.603   4.037 134.561  0.00  0.00    +0.304 C 
ATOM     25  C   LIG A   1      -7.963   4.637 134.913  0.00  0.00    +0.136 C 
ATOM     26  O   LIG A   1      -5.889   3.498 135.376  0.00  0.00    -0.251 OA
ENDBRANCH  23  24
ENDBRANCH  12  23
BRANCH  13  27
ATOM     27  O   LIG A   1      -4.716   2.876 129.512  0.00  0.00    -0.454 OA
BRANCH  27  28
ATOM     28  C   LIG A   1      -4.775   1.531 129.471  0.00  0.00    +0.304 C 
ATOM     29  C   LIG A   1      -6.042   1.061 128.848  0.00  0.00    +0.136 C 
ATOM     30  O   LIG A   1      -3.957   0.777 129.988  0.00  0.00    -0.251 OA
ENDBRANCH  27  28
ENDBRANCH  13  27
BRANCH  14  31
ATOM     31  O   LIG A   1      -3.743   5.210 129.018  0.00  0.00    -0.458 OA
BRANCH  31  32
ATOM     32  C   LIG A   1      -2.604   5.522 128.316  0.00  0.00    +0.304 C 
ATOM     33  C   LIG A   1      -2.352   4.313 127.428  0.00  0.00    +0.136 C 
ATOM     34  O   LIG A   1      -1.942   6.531 128.403  0.00  0.00    -0.251 OA
ENDBRANCH  31  32
ENDBRANCH  14  31
TORSDOF 7
ENDMDL
MODEL 6
REMARK VINA RESULT:      -7.8      1.797      2.233
REMARK  Name = NuBBE_995
REMARK  13 active torsions:
REMARK  status: ('A' for Active; 'I' for Inactive)
REMARK    1  A    between atoms: C_1  and  C_2
REMARK    2  A    between atoms: C_6  and  C_8
REMARK    3  A    between atoms: C_8  and  C_9
REMARK    4  A    between atoms: C_15  and  O_17
REMARK    5  A    between atoms: O_17  and  C_18
REMARK    6  A    between atoms: C_18  and  C_19
REMARK    7  A    between atoms: C_21  and  O_23
REMARK    8  A    between atoms: O_23  and  C_24
REMARK    9  A    between atoms: C_24  and  C_25
REMARK   10  A    between atoms: C_27  and  O_29
REMARK   11  A    between atoms: O_29  and  C_30
REMARK   12  A    between atoms: C_30  and  C_31
REMARK   13  A    between atoms: C_34  and  C_35
REMARK                            x       y       z     vdW  Elec       q    Type
REMARK                         _______ _______ _______ _____ _____    ______ ____
ROOT
ATOM      1  C   LIG A   1      -7.651  -2.326 126.138  0.00  0.00    +0.012 C 
ATOM      2  C   LIG A   1      -7.203  -0.959 125.575  0.00  0.00    -0.019 C 
ATOM      3  C   LIG A   1      -7.968   0.174 126.341  0.00  0.00    +0.006 C 
ATOM      4  C   LIG A   1      -9.334   0.246 125.647  0.00  0.00    +0.079 C 
ATOM      5  C   LIG A   1      -9.043  -0.188 124.241  0.00  0.00    +0.137 C 
ATOM      6  C   LIG A   1      -7.631  -0.725 124.077  0.00  0.00    +0.061 C 
ATOM      7  O   LIG A   1      -9.866  -0.077 123.340  0.00  0.00    -0.297 OA
ATOM      8  C   LIG A   1      -7.156   1.495 126.339  0.00  0.00    -0.003 C 
ATOM      9  C   LIG A   1      -8.185   2.954 126.735  0.00  0.00    +0.004 C 
ATOM     10  C   LIG A   1      -7.572   4.235 127.912  0.00  0.00    +0.008 C 
ATOM     11  C   LIG A   1      -6.053   3.634 128.793  0.00  0.00    +0.040 C 
ATOM     12  C   LIG A   1      -7.023   2.630 128.606  0.00  0.00    +0.224 C 
ATOM     13  C   LIG A   1      -7.244   2.440 130.157  0.00  0.00    +0.257 C 
ATOM     14  C   LIG A   1      -6.161   1.564 130.816  0.00  0.00    +0.221 C 
ATOM     15  C   LIG A   1      -4.988   1.292 129.880  0.00  0.00    +0.055 C 
ATOM     16  C   LIG A   1      -4.967   2.176 128.596  0.00  0.00    -0.019 C 
ATOM     17  C   LIG A   1      -3.523   2.706 128.422  0.00  0.00    +0.012 C 
ATOM     18  C   LIG A   1      -5.508   1.161 127.138  0.00  0.00    -0.001 C 
ATOM     19  C   LIG A   1      -5.247  -0.343 127.130  0.00  0.00    +0.005 C 
ATOM     20  C   LIG A   1      -5.661  -0.868 125.743  0.00  0.00    +0.008 C 
ENDROOT
BRANCH   6  21
ATOM     21  C   LIG A   1      -7.509  -1.920 123.127  0.00  0.00    +0.008 C 
ATOM     22  C   LIG A   1      -6.168  -1.980 122.391  0.00  0.00    +0.004 C 
ENDBRANCH   6  21
BRANCH  12  23
ATOM     23  O   LIG A   1      -6.036   3.186 127.109  0.00  0.00    -0.457 OA
BRANCH  23  24
ATOM     24  C   LIG A   1      -5.444   4.165 126.326  0.00  0.00    +0.304 C 
ATOM     25  C   LIG A   1      -5.284   3.678 124.886  0.00  0.00    +0.136 C 
ATOM     26  O   LIG A   1      -5.156   5.286 126.678  0.00  0.00    -0.251 OA
ENDBRANCH  23  24
ENDBRANCH  12  23
BRANCH  13  27
ATOM     27  O   LIG A   1      -8.545   1.759 130.197  0.00  0.00    -0.454 OA
BRANCH  27  28
ATOM     28  C   LIG A   1      -9.596   2.460 130.664  0.00  0.00    +0.304 C 
ATOM     29  C   LIG A   1      -9.994   2.001 132.022  0.00  0.00    +0.136 C 
ATOM     30  O   LIG A   1     -10.230   3.288 130.019  0.00  0.00    -0.251 OA
ENDBRANCH  27  28
ENDBRANCH  13  27
BRANCH  14  31
ATOM     31  O   LIG A   1      -6.691   0.270 131.187  0.00  0.00    -0.458 OA
BRANCH  31  32
ATOM     32  C   LIG A   1      -6.670  -0.007 132.532  0.00  0.00    +0.304 C 
ATOM     33  C   LIG A   1      -5.997  -1.367 132.637  0.00  0.00    +0.136 C 
ATOM     34  O   LIG A   1      -7.110   0.675 133.429  0.00  0.00    -0.251 OA
ENDBRANCH  31  32
ENDBRANCH  14  31
TORSDOF 7
ENDMDL
MODEL 7
REMARK VINA RESULT:      -7.8      3.496      6.265
REMARK  Name = NuBBE_995
REMARK  13 active torsions:
REMARK  status: ('A' for Active; 'I' for Inactive)
REMARK    1  A    between atoms: C_1  and  C_2
REMARK    2  A    between atoms: C_6  and  C_8
REMARK    3  A    between atoms: C_8  and  C_9
REMARK    4  A    between atoms: C_15  and  O_17
REMARK    5  A    between atoms: O_17  and  C_18
REMARK    6  A    between atoms: C_18  and  C_19
REMARK    7  A    between atoms: C_21  and  O_23
REMARK    8  A    between atoms: O_23  and  C_24
REMARK    9  A    between atoms: C_24  and  C_25
REMARK   10  A    between atoms: C_27  and  O_29
REMARK   11  A    between atoms: O_29  and  C_30
REMARK   12  A    between atoms: C_30  and  C_31
REMARK   13  A    between atoms: C_34  and  C_35
REMARK                            x       y       z     vdW  Elec       q    Type
REMARK                         _______ _______ _______ _____ _____    ______ ____
ROOT
ATOM      1  C   LIG A   1      -8.796  -1.421 126.389  0.00  0.00    +0.012 C 
ATOM      2  C   LIG A   1      -7.765  -2.396 127.001  0.00  0.00    -0.019 C 
ATOM      3  C   LIG A   1      -6.591  -1.562 127.618  0.00  0.00    +0.006 C 
ATOM      4  C   LIG A   1      -5.689  -1.234 126.421  0.00  0.00    +0.079 C 
ATOM      5  C   LIG A   1      -5.905  -2.387 125.486  0.00  0.00    +0.137 C 
ATOM      6  C   LIG A   1      -7.038  -3.295 125.932  0.00  0.00    +0.061 C 
ATOM      7  O   LIG A   1      -5.203  -2.564 124.497  0.00  0.00    -0.297 OA
ATOM      8  C   LIG A   1      -5.902  -2.336 128.771  0.00  0.00    -0.003 C 
ATOM      9  C   LIG A   1      -4.243  -1.677 129.169  0.00  0.00    +0.004 C 
ATOM     10  C   LIG A   1      -3.734  -1.435 130.925  0.00  0.00    +0.008 C 
ATOM     11  C   LIG A   1      -5.195  -1.614 132.056  0.00  0.00    +0.040 C 
ATOM     12  C   LIG A   1      -5.498  -0.944 130.855  0.00  0.00    +0.224 C 
ATOM     13  C   LIG A   1      -5.869   0.397 131.601  0.00  0.00    +0.257 C 
ATOM     14  C   LIG A   1      -7.290   0.379 132.197  0.00  0.00    +0.221 C 
ATOM     15  C   LIG A   1      -7.919  -1.009 132.156  0.00  0.00    +0.055 C 
ATOM     16  C   LIG A   1      -6.923  -2.160 131.816  0.00  0.00    -0.019 C 
ATOM     17  C   LIG A   1      -7.181  -3.307 132.824  0.00  0.00    +0.012 C 
ATOM     18  C   LIG A   1      -7.188  -2.711 130.064  0.00  0.00    -0.001 C 
ATOM     19  C   LIG A   1      -8.575  -2.585 129.437  0.00  0.00    +0.005 C 
ATOM     20  C   LIG A   1      -8.511  -3.261 128.055  0.00  0.00    +0.008 C 
ENDROOT
BRANCH   6  21
ATOM     21  C   LIG A   1      -7.898  -3.849 124.792  0.00  0.00    +0.008 C 
ATOM     22  C   LIG A   1      -8.178  -2.826 123.688  0.00  0.00    +0.004 C 
ENDBRANCH   6  21
BRANCH  12  23
ATOM     23  O   LIG A   1      -5.223  -2.800 130.780  0.00  0.00    -0.457 OA
BRANCH  23  24
ATOM     24  C   LIG A   1      -4.518  -3.949 131.102  0.00  0.00    +0.304 C 
ATOM     25  C   LIG A   1      -5.334  -5.194 130.761  0.00  0.00    +0.136 C 
ATOM     26  O   LIG A   1      -3.383  -3.997 131.519  0.00  0.00    -0.251 OA
ENDBRANCH  23  24
ENDBRANCH  12  23
BRANCH  13  27
ATOM     27  O   LIG A   1      -5.783   1.382 130.515  0.00  0.00    -0.454 OA
BRANCH  27  28
ATOM     28  C   LIG A   1      -4.642   2.091 130.414  0.00  0.00    +0.304 C 
ATOM     29  C   LIG A   1      -4.109   2.067 129.025  0.00  0.00    +0.136 C 
ATOM     30  O   LIG A   1      -4.043   2.594 131.358  0.00  0.00    -0.251 OA
ENDBRANCH  27  28
ENDBRANCH  13  27
BRANCH  14  31
ATOM     31  O   LIG A   1      -8.178   1.247 131.454  0.00  0.00    -0.458 OA
BRANCH  31  32
ATOM     32  C   LIG A   1      -9.258   1.722 132.158  0.00  0.00    +0.304 C 
ATOM     33  C   LIG A   1      -8.665   2.682 133.177  0.00  0.00    +0.136 C 
ATOM     34  O   LIG A   1     -10.421   1.423 132.008  0.00  0.00    -0.251 OA
ENDBRANCH  31  32
ENDBRANCH  14  31
TORSDOF 7
ENDMDL
MODEL 8
REMARK VINA RESULT:      -7.7      3.459      6.176
REMARK  Name = NuBBE_995
REMARK  13 active torsions:
REMARK  status: ('A' for Active; 'I' for Inactive)
REMARK    1  A    between atoms: C_1  and  C_2
REMARK    2  A    between atoms: C_6  and  C_8
REMARK    3  A    between atoms: C_8  and  C_9
REMARK    4  A    between atoms: C_15  and  O_17
REMARK    5  A    between atoms: O_17  and  C_18
REMARK    6  A    between atoms: C_18  and  C_19
REMARK    7  A    between atoms: C_21  and  O_23
REMARK    8  A    between atoms: O_23  and  C_24
REMARK    9  A    between atoms: C_24  and  C_25
REMARK   10  A    between atoms: C_27  and  O_29
REMARK   11  A    between atoms: O_29  and  C_30
REMARK   12  A    between atoms: C_30  and  C_31
REMARK   13  A    between atoms: C_34  and  C_35
REMARK                            x       y       z     vdW  Elec       q    Type
REMARK                         _______ _______ _______ _____ _____    ______ ____
ROOT
ATOM      1  C   LIG A   1      -5.527  -0.585 127.712  0.00  0.00    +0.012 C 
ATOM      2  C   LIG A   1      -6.609  -0.422 128.803  0.00  0.00    -0.019 C 
ATOM      3  C   LIG A   1      -5.929   0.129 130.104  0.00  0.00    +0.006 C 
ATOM      4  C   LIG A   1      -5.327  -1.112 130.773  0.00  0.00    +0.079 C 
ATOM      5  C   LIG A   1      -6.235  -2.225 130.342  0.00  0.00    +0.137 C 
ATOM      6  C   LIG A   1      -7.231  -1.788 129.282  0.00  0.00    +0.061 C 
ATOM      7  O   LIG A   1      -6.173  -3.345 130.836  0.00  0.00    -0.297 OA
ATOM      8  C   LIG A   1      -6.943   0.921 130.970  0.00  0.00    -0.003 C 
ATOM      9  C   LIG A   1      -6.380   1.131 132.697  0.00  0.00    +0.004 C 
ATOM     10  C   LIG A   1      -6.545   2.764 133.539  0.00  0.00    +0.008 C 
ATOM     11  C   LIG A   1      -6.993   4.084 132.313  0.00  0.00    +0.040 C 
ATOM     12  C   LIG A   1      -6.066   3.149 131.812  0.00  0.00    +0.224 C 
ATOM     13  C   LIG A   1      -4.937   4.239 131.639  0.00  0.00    +0.257 C 
ATOM     14  C   LIG A   1      -5.104   5.077 130.356  0.00  0.00    +0.221 C 
ATOM     15  C   LIG A   1      -6.450   4.843 129.681  0.00  0.00    +0.055 C 
ATOM     16  C   LIG A   1      -7.483   4.065 130.552  0.00  0.00    -0.019 C 
ATOM     17  C   LIG A   1      -8.834   4.815 130.448  0.00  0.00    +0.012 C 
ATOM     18  C   LIG A   1      -7.617   2.317 129.939  0.00  0.00    -0.001 C 
ATOM     19  C   LIG A   1      -7.362   2.016 128.464  0.00  0.00    +0.005 C 
ATOM     20  C   LIG A   1      -7.700   0.530 128.240  0.00  0.00    +0.008 C 
ENDROOT
BRANCH   6  21
ATOM     21  C   LIG A   1      -7.514  -2.836 128.201  0.00  0.00    +0.008 C 
ATOM     22  C   LIG A   1      -8.791  -3.641 128.453  0.00  0.00    +0.004 C 
ENDBRANCH   6  21
BRANCH  12  23
ATOM     23  O   LIG A   1      -7.852   2.601 132.000  0.00  0.00    -0.457 OA
BRANCH  23  24
ATOM     24  C   LIG A   1      -9.063   2.578 132.674  0.00  0.00    +0.304 C 
ATOM     25  C   LIG A   1     -10.001   1.541 132.059  0.00  0.00    +0.136 C 
ATOM     26  O   LIG A   1      -9.342   3.215 133.664  0.00  0.00    -0.251 OA
ENDBRANCH  23  24
ENDBRANCH  12  23
BRANCH  13  27
ATOM     27  O   LIG A   1      -3.727   3.410 131.553  0.00  0.00    -0.454 OA
BRANCH  27  28
ATOM     28  C   LIG A   1      -2.936   3.357 132.642  0.00  0.00    +0.304 C 
ATOM     29  C   LIG A   1      -1.907   4.431 132.619  0.00  0.00    +0.136 C 
ATOM     30  O   LIG A   1      -2.969   2.471 133.490  0.00  0.00    -0.251 OA
ENDBRANCH  27  28
ENDBRANCH  13  27
BRANCH  14  31
ATOM     31  O   LIG A   1      -4.095   4.738 129.376  0.00  0.00    -0.458 OA
BRANCH  31  32
ATOM     32  C   LIG A   1      -3.625   5.790 128.630  0.00  0.00    +0.304 C 
ATOM     33  C   LIG A   1      -2.303   6.167 129.280  0.00  0.00    +0.136 C 
ATOM     34  O   LIG A   1      -4.160   6.311 127.677  0.00  0.00    -0.251 OA
ENDBRANCH  31  32
ENDBRANCH  14  31
TORSDOF 7
ENDMDL
MODEL 9
REMARK VINA RESULT:      -7.6      3.413      6.190
REMARK  Name = NuBBE_995
REMARK  13 active torsions:
REMARK  status: ('A' for Active; 'I' for Inactive)
REMARK    1  A    between atoms: C_1  and  C_2
REMARK    2  A    between atoms: C_6  and  C_8
REMARK    3  A    between atoms: C_8  and  C_9
REMARK    4  A    between atoms: C_15  and  O_17
REMARK    5  A    between atoms: O_17  and  C_18
REMARK    6  A    between atoms: C_18  and  C_19
REMARK    7  A    between atoms: C_21  and  O_23
REMARK    8  A    between atoms: O_23  and  C_24
REMARK    9  A    between atoms: C_24  and  C_25
REMARK   10  A    between atoms: C_27  and  O_29
REMARK   11  A    between atoms: O_29  and  C_30
REMARK   12  A    between atoms: C_30  and  C_31
REMARK   13  A    between atoms: C_34  and  C_35
REMARK                            x       y       z     vdW  Elec       q    Type
REMARK                         _______ _______ _______ _____ _____    ______ ____
ROOT
ATOM      1  C   LIG A   1      -7.936  -2.586 130.038  0.00  0.00    +0.012 C 
ATOM      2  C   LIG A   1      -6.617  -2.124 130.697  0.00  0.00    -0.019 C 
ATOM      3  C   LIG A   1      -6.120  -0.829 129.968  0.00  0.00    +0.006 C 
ATOM      4  C   LIG A   1      -5.406  -1.349 128.715  0.00  0.00    +0.079 C 
ATOM      5  C   LIG A   1      -4.892  -2.695 129.130  0.00  0.00    +0.137 C 
ATOM      6  C   LIG A   1      -5.423  -3.129 130.485  0.00  0.00    +0.061 C 
ATOM      7  O   LIG A   1      -4.105  -3.333 128.441  0.00  0.00    -0.297 OA
ATOM      8  C   LIG A   1      -5.250   0.042 130.911  0.00  0.00    -0.003 C 
ATOM      9  C   LIG A   1      -4.229   1.258 130.003  0.00  0.00    +0.004 C 
ATOM     10  C   LIG A   1      -4.103   2.999 130.599  0.00  0.00    +0.008 C 
ATOM     11  C   LIG A   1      -5.362   3.324 131.924  0.00  0.00    +0.040 C 
ATOM     12  C   LIG A   1      -5.847   2.509 130.882  0.00  0.00    +0.224 C 
ATOM     13  C   LIG A   1      -6.936   3.567 130.452  0.00  0.00    +0.257 C 
ATOM     14  C   LIG A   1      -8.191   3.535 131.345  0.00  0.00    +0.221 C 
ATOM     15  C   LIG A   1      -7.995   2.675 132.589  0.00  0.00    +0.055 C 
ATOM     16  C   LIG A   1      -6.517   2.263 132.863  0.00  0.00    -0.019 C 
ATOM     17  C   LIG A   1      -6.239   2.509 134.367  0.00  0.00    +0.012 C 
ATOM     18  C   LIG A   1      -6.275   0.481 132.402  0.00  0.00    -0.001 C 
ATOM     19  C   LIG A   1      -7.452  -0.487 132.499  0.00  0.00    +0.005 C 
ATOM     20  C   LIG A   1      -6.904  -1.897 132.207  0.00  0.00    +0.008 C 
ENDROOT
BRANCH   6  21
ATOM     21  C   LIG A   1      -5.747  -4.623 130.595  0.00  0.00    +0.008 C 
ATOM     22  C   LIG A   1      -5.311  -5.245 131.924  0.00  0.00    +0.004 C 
ENDBRANCH   6  21
BRANCH  12  23
ATOM     23  O   LIG A   1      -4.638   1.750 132.102  0.00  0.00    -0.457 OA
BRANCH  23  24
ATOM     24  C   LIG A   1      -3.504   1.801 132.898  0.00  0.00    +0.304 C 
ATOM     25  C   LIG A   1      -3.117   0.402 133.373  0.00  0.00    +0.136 C 
ATOM     26  O   LIG A   1      -2.842   2.785 133.136  0.00  0.00    -0.251 OA
ENDBRANCH  23  24
ENDBRANCH  12  23
BRANCH  13  27
ATOM     27  O   LIG A   1      -7.267   3.124 129.091  0.00  0.00    -0.454 OA
BRANCH  27  28
ATOM     28  C   LIG A   1      -7.281   4.061 128.123  0.00  0.00    +0.304 C 
ATOM     29  C   LIG A   1      -5.932   4.243 127.523  0.00  0.00    +0.136 C 
ATOM     30  O   LIG A   1      -8.245   4.768 127.845  0.00  0.00    -0.251 OA
ENDBRANCH  27  28
ENDBRANCH  13  27
BRANCH  14  31
ATOM     31  O   LIG A   1      -9.321   2.971 130.638  0.00  0.00    -0.458 OA
BRANCH  31  32
ATOM     32  C   LIG A   1     -10.413   3.796 130.525  0.00  0.00    +0.304 C 
ATOM     33  C   LIG A   1      -9.924   5.154 131.004  0.00  0.00    +0.136 C 
ATOM     34  O   LIG A   1     -11.523   3.497 130.146  0.00  0.00    -0.251 OA
ENDBRANCH  31  32
ENDBRANCH  14  31
TORSDOF 7
ENDMDL
