MODEL 1
REMARK VINA RESULT:      -8.2      0.000      0.000
REMARK  Name = NuBBE_1859
REMARK  7 active torsions:
REMARK  status: ('A' for Active; 'I' for Inactive)
REMARK    1  A    between atoms: O_1  and  C_2
REMARK    2  A    between atoms: C_5  and  C_8
REMARK    3  A    between atoms: C_8  and  C_9
REMARK    4  A    between atoms: C_9  and  C_10
REMARK    5  A    between atoms: C_13  and  C_18
REMARK    6  A    between atoms: C_21  and  O_22
REMARK    7  A    between atoms: O_22  and  C_23
REMARK                            x       y       z     vdW  Elec       q    Type
REMARK                         _______ _______ _______ _____ _____    ______ ____
ROOT
ATOM      1  C   LIG A   1      -8.652   1.844 123.381  0.00  0.00    +0.119 C 
ATOM      2  O   LIG A   1      -9.252   0.543 123.291  0.00  0.00    -0.369 OA
ATOM      3  C   LIG A   1      -8.969  -0.402 124.334  0.00  0.00    +0.149 C 
ATOM      4  C   LIG A   1      -9.113   0.207 125.741  0.00  0.00    +0.036 C 
ATOM      5  C   LIG A   1      -8.438   1.565 125.876  0.00  0.00    +0.005 C 
ATOM      6  C   LIG A   1      -8.905   2.473 124.754  0.00  0.00    +0.032 C 
ENDROOT
BRANCH   3   7
ATOM      7  C   LIG A   1      -7.706  -1.205 124.053  0.00  0.00    -0.019 A 
ATOM      8  C   LIG A   1      -6.813  -1.484 125.098  0.00  0.00    +0.010 A 
ATOM      9  C   LIG A   1      -5.628  -2.195 124.864  0.00  0.00    +0.046 A 
ATOM     10  C   LIG A   1      -5.323  -2.654 123.580  0.00  0.00    +0.120 A 
ATOM     11  C   LIG A   1      -6.210  -2.397 122.544  0.00  0.00    +0.046 A 
ATOM     12  C   LIG A   1      -7.377  -1.669 122.772  0.00  0.00    +0.010 A 
BRANCH  10  13
ATOM     13  O   LIG A   1      -4.139  -3.332 123.456  0.00  0.00    -0.495 OA
ATOM     14  C   LIG A   1      -4.228  -4.752 123.498  0.00  0.00    +0.277 C 
ENDBRANCH  10  13
ENDBRANCH   3   7
BRANCH   1  15
ATOM     15  C   LIG A   1      -7.187   1.823 122.907  0.00  0.00    +0.036 C 
BRANCH  15  16
ATOM     16  C   LIG A   1      -6.459   3.156 123.071  0.00  0.00    +0.037 C 
BRANCH  16  20
ATOM     17  C   LIG A   1      -5.827   5.153 119.314  0.00  0.00    +0.117 A 
ATOM     18  C   LIG A   1      -4.858   5.246 120.309  0.00  0.00    +0.045 A 
ATOM     19  C   LIG A   1      -5.065   4.593 121.528  0.00  0.00    +0.007 A 
ATOM     20  C   LIG A   1      -6.238   3.853 121.752  0.00  0.00    -0.047 A 
ATOM     21  C   LIG A   1      -7.192   3.764 120.731  0.00  0.00    +0.007 A 
ATOM     22  C   LIG A   1      -6.985   4.416 119.516  0.00  0.00    +0.045 A 
BRANCH  17  23
ATOM     23  O   LIG A   1      -5.671   5.779 118.112  0.00  0.00    -0.507 OA
ATOM     24  H   LIG A   1      -6.319   6.499 118.054  0.00  0.00    +0.292 HD
ENDBRANCH  17  23
ENDBRANCH  16  20
ENDBRANCH  15  16
ENDBRANCH   1  15
TORSDOF 6
ENDMDL
MODEL 2
REMARK VINA RESULT:      -7.9      3.659      7.926
REMARK  Name = NuBBE_1859
REMARK  7 active torsions:
REMARK  status: ('A' for Active; 'I' for Inactive)
REMARK    1  A    between atoms: O_1  and  C_2
REMARK    2  A    between atoms: C_5  and  C_8
REMARK    3  A    between atoms: C_8  and  C_9
REMARK    4  A    between atoms: C_9  and  C_10
REMARK    5  A    between atoms: C_13  and  C_18
REMARK    6  A    between atoms: C_21  and  O_22
REMARK    7  A    between atoms: O_22  and  C_23
REMARK                            x       y       z     vdW  Elec       q    Type
REMARK                         _______ _______ _______ _____ _____    ______ ____
ROOT
ATOM      1  C   LIG A   1      -8.650  -3.345 124.245  0.00  0.00    +0.119 C 
ATOM      2  O   LIG A   1      -8.735  -2.549 123.053  0.00  0.00    -0.369 OA
ATOM      3  C   LIG A   1      -7.706  -1.575 122.819  0.00  0.00    +0.149 C 
ATOM      4  C   LIG A   1      -6.292  -2.144 123.039  0.00  0.00    +0.036 C 
ATOM      5  C   LIG A   1      -6.163  -2.948 124.325  0.00  0.00    +0.005 C 
ATOM      6  C   LIG A   1      -7.268  -3.987 124.381  0.00  0.00    +0.032 C 
ENDROOT
BRANCH   3   7
ATOM      7  C   LIG A   1      -8.023  -0.237 123.472  0.00  0.00    -0.019 A 
ATOM      8  C   LIG A   1      -9.257   0.381 123.227  0.00  0.00    +0.010 A 
ATOM      9  C   LIG A   1      -9.565   1.627 123.791  0.00  0.00    +0.046 A 
ATOM     10  C   LIG A   1      -8.647   2.270 124.624  0.00  0.00    +0.120 A 
ATOM     11  C   LIG A   1      -7.429   1.657 124.885  0.00  0.00    +0.046 A 
ATOM     12  C   LIG A   1      -7.113   0.429 124.306  0.00  0.00    +0.010 A 
BRANCH  10  13
ATOM     13  O   LIG A   1      -9.041   3.486 125.118  0.00  0.00    -0.495 OA
ATOM     14  C   LIG A   1      -7.992   4.363 125.518  0.00  0.00    +0.277 C 
ENDBRANCH  10  13
ENDBRANCH   3   7
BRANCH   1  15
ATOM     15  C   LIG A   1      -9.160  -2.572 125.475  0.00  0.00    +0.036 C 
BRANCH  15  16
ATOM     16  C   LIG A   1      -9.165  -3.388 126.767  0.00  0.00    +0.037 C 
BRANCH  16  20
ATOM     17  C   LIG A   1      -6.702  -1.621 129.819  0.00  0.00    +0.117 A 
ATOM     18  C   LIG A   1      -6.675  -1.095 128.530  0.00  0.00    +0.045 A 
ATOM     19  C   LIG A   1      -7.481  -1.669 127.541  0.00  0.00    +0.007 A 
ATOM     20  C   LIG A   1      -8.304  -2.767 127.839  0.00  0.00    -0.047 A 
ATOM     21  C   LIG A   1      -8.322  -3.271 129.145  0.00  0.00    +0.007 A 
ATOM     22  C   LIG A   1      -7.518  -2.698 130.131  0.00  0.00    +0.045 A 
BRANCH  17  23
ATOM     23  O   LIG A   1      -5.928  -1.098 130.814  0.00  0.00    -0.507 OA
ATOM     24  H   LIG A   1      -4.998  -1.281 130.609  0.00  0.00    +0.292 HD
ENDBRANCH  17  23
ENDBRANCH  16  20
ENDBRANCH  15  16
ENDBRANCH   1  15
TORSDOF 6
ENDMDL
MODEL 3
REMARK VINA RESULT:      -7.4      4.797      7.837
REMARK  Name = NuBBE_1859
REMARK  7 active torsions:
REMARK  status: ('A' for Active; 'I' for Inactive)
REMARK    1  A    between atoms: O_1  and  C_2
REMARK    2  A    between atoms: C_5  and  C_8
REMARK    3  A    between atoms: C_8  and  C_9
REMARK    4  A    between atoms: C_9  and  C_10
REMARK    5  A    between atoms: C_13  and  C_18
REMARK    6  A    between atoms: C_21  and  O_22
REMARK    7  A    between atoms: O_22  and  C_23
REMARK                            x       y       z     vdW  Elec       q    Type
REMARK                         _______ _______ _______ _____ _____    ______ ____
ROOT
ATOM      1  C   LIG A   1      -9.389  -2.967 125.317  0.00  0.00    +0.119 C 
ATOM      2  O   LIG A   1      -9.808  -1.605 125.488  0.00  0.00    -0.369 OA
ATOM      3  C   LIG A   1      -9.026  -0.575 124.863  0.00  0.00    +0.149 C 
ATOM      4  C   LIG A   1      -8.688  -0.899 123.396  0.00  0.00    +0.036 C 
ATOM      5  C   LIG A   1      -8.190  -2.323 123.196  0.00  0.00    +0.005 C 
ATOM      6  C   LIG A   1      -9.166  -3.291 123.838  0.00  0.00    +0.032 C 
ENDROOT
BRANCH   3   7
ATOM      7  C   LIG A   1      -7.881  -0.105 125.749  0.00  0.00    -0.019 A 
ATOM      8  C   LIG A   1      -8.158   0.436 127.013  0.00  0.00    +0.010 A 
ATOM      9  C   LIG A   1      -7.127   0.904 127.839  0.00  0.00    +0.046 A 
ATOM     10  C   LIG A   1      -5.797   0.825 127.420  0.00  0.00    +0.120 A 
ATOM     11  C   LIG A   1      -5.513   0.276 126.177  0.00  0.00    +0.046 A 
ATOM     12  C   LIG A   1      -6.540  -0.169 125.345  0.00  0.00    +0.010 A 
BRANCH  10  13
ATOM     13  O   LIG A   1      -4.865   1.316 128.297  0.00  0.00    -0.495 OA
ATOM     14  C   LIG A   1      -4.177   2.491 127.879  0.00  0.00    +0.277 C 
ENDBRANCH  10  13
ENDBRANCH   3   7
BRANCH   1  15
ATOM     15  C   LIG A   1      -8.233  -3.324 126.269  0.00  0.00    +0.036 C 
BRANCH  15  16
ATOM     16  C   LIG A   1      -8.631  -3.376 127.743  0.00  0.00    +0.037 C 
BRANCH  16  20
ATOM     17  C   LIG A   1      -5.626  -1.672 130.306  0.00  0.00    +0.117 A 
ATOM     18  C   LIG A   1      -5.247  -2.246 129.096  0.00  0.00    +0.045 A 
ATOM     19  C   LIG A   1      -6.226  -2.795 128.263  0.00  0.00    +0.007 A 
ATOM     20  C   LIG A   1      -7.579  -2.776 128.641  0.00  0.00    -0.047 A 
ATOM     21  C   LIG A   1      -7.937  -2.182 129.858  0.00  0.00    +0.007 A 
ATOM     22  C   LIG A   1      -6.959  -1.634 130.688  0.00  0.00    +0.045 A 
BRANCH  17  23
ATOM     23  O   LIG A   1      -4.704  -1.130 131.153  0.00  0.00    -0.507 OA
ATOM     24  H   LIG A   1      -3.846  -1.550 130.985  0.00  0.00    +0.292 HD
ENDBRANCH  17  23
ENDBRANCH  16  20
ENDBRANCH  15  16
ENDBRANCH   1  15
TORSDOF 6
ENDMDL
MODEL 4
REMARK VINA RESULT:      -7.2      3.122      4.696
REMARK  Name = NuBBE_1859
REMARK  7 active torsions:
REMARK  status: ('A' for Active; 'I' for Inactive)
REMARK    1  A    between atoms: O_1  and  C_2
REMARK    2  A    between atoms: C_5  and  C_8
REMARK    3  A    between atoms: C_8  and  C_9
REMARK    4  A    between atoms: C_9  and  C_10
REMARK    5  A    between atoms: C_13  and  C_18
REMARK    6  A    between atoms: C_21  and  O_22
REMARK    7  A    between atoms: O_22  and  C_23
REMARK                            x       y       z     vdW  Elec       q    Type
REMARK                         _______ _______ _______ _____ _____    ______ ____
ROOT
ATOM      1  C   LIG A   1      -8.201  -0.846 123.922  0.00  0.00    +0.119 C 
ATOM      2  O   LIG A   1      -7.003  -1.458 124.425  0.00  0.00    -0.369 OA
ATOM      3  C   LIG A   1      -7.120  -2.733 125.074  0.00  0.00    +0.149 C 
ATOM      4  C   LIG A   1      -7.989  -3.725 124.279  0.00  0.00    +0.036 C 
ATOM      5  C   LIG A   1      -9.291  -3.113 123.781  0.00  0.00    +0.005 C 
ATOM      6  C   LIG A   1      -8.990  -1.821 123.045  0.00  0.00    +0.032 C 
ENDROOT
BRANCH   3   7
ATOM      7  C   LIG A   1      -7.413  -2.595 126.562  0.00  0.00    -0.019 A 
ATOM      8  C   LIG A   1      -6.729  -1.632 127.318  0.00  0.00    +0.010 A 
ATOM      9  C   LIG A   1      -6.956  -1.501 128.695  0.00  0.00    +0.046 A 
ATOM     10  C   LIG A   1      -7.884  -2.324 129.338  0.00  0.00    +0.120 A 
ATOM     11  C   LIG A   1      -8.577  -3.268 128.594  0.00  0.00    +0.046 A 
ATOM     12  C   LIG A   1      -8.335  -3.414 127.228  0.00  0.00    +0.010 A 
BRANCH  10  13
ATOM     13  O   LIG A   1      -8.027  -2.121 130.686  0.00  0.00    -0.495 OA
ATOM     14  C   LIG A   1      -7.055  -2.751 131.515  0.00  0.00    +0.277 C 
ENDBRANCH  10  13
ENDBRANCH   3   7
BRANCH   1  15
ATOM     15  C   LIG A   1      -8.994  -0.154 125.046  0.00  0.00    +0.036 C 
BRANCH  15  16
ATOM     16  C   LIG A   1      -8.534   1.271 125.347  0.00  0.00    +0.037 C 
BRANCH  16  20
ATOM     17  C   LIG A   1      -7.343   3.380 121.792  0.00  0.00    +0.117 A 
ATOM     18  C   LIG A   1      -8.685   3.063 121.981  0.00  0.00    +0.045 A 
ATOM     19  C   LIG A   1      -9.070   2.382 123.140  0.00  0.00    +0.007 A 
ATOM     20  C   LIG A   1      -8.116   2.013 124.102  0.00  0.00    -0.047 A 
ATOM     21  C   LIG A   1      -6.773   2.353 123.895  0.00  0.00    +0.007 A 
ATOM     22  C   LIG A   1      -6.390   3.033 122.738  0.00  0.00    +0.045 A 
BRANCH  17  23
ATOM     23  O   LIG A   1      -6.921   4.038 120.674  0.00  0.00    -0.507 OA
ATOM     24  H   LIG A   1      -5.982   3.837 120.534  0.00  0.00    +0.292 HD
ENDBRANCH  17  23
ENDBRANCH  16  20
ENDBRANCH  15  16
ENDBRANCH   1  15
TORSDOF 6
ENDMDL
MODEL 5
REMARK VINA RESULT:      -7.2      3.791      7.260
REMARK  Name = NuBBE_1859
REMARK  7 active torsions:
REMARK  status: ('A' for Active; 'I' for Inactive)
REMARK    1  A    between atoms: O_1  and  C_2
REMARK    2  A    between atoms: C_5  and  C_8
REMARK    3  A    between atoms: C_8  and  C_9
REMARK    4  A    between atoms: C_9  and  C_10
REMARK    5  A    between atoms: C_13  and  C_18
REMARK    6  A    between atoms: C_21  and  O_22
REMARK    7  A    between atoms: O_22  and  C_23
REMARK                            x       y       z     vdW  Elec       q    Type
REMARK                         _______ _______ _______ _____ _____    ______ ____
ROOT
ATOM      1  C   LIG A   1      -6.338  -1.057 129.730  0.00  0.00    +0.119 C 
ATOM      2  O   LIG A   1      -5.690  -0.022 128.973  0.00  0.00    -0.369 OA
ATOM      3  C   LIG A   1      -6.459   1.141 128.628  0.00  0.00    +0.149 C 
ATOM      4  C   LIG A   1      -7.249   1.704 129.823  0.00  0.00    +0.036 C 
ATOM      5  C   LIG A   1      -7.988   0.631 130.611  0.00  0.00    +0.005 C 
ATOM      6  C   LIG A   1      -7.023  -0.482 130.972  0.00  0.00    +0.032 C 
ENDROOT
BRANCH   3   7
ATOM      7  C   LIG A   1      -7.217   0.960 127.320  0.00  0.00    -0.019 A 
ATOM      8  C   LIG A   1      -6.507   0.846 126.115  0.00  0.00    +0.010 A 
ATOM      9  C   LIG A   1      -7.179   0.709 124.893  0.00  0.00    +0.046 A 
ATOM     10  C   LIG A   1      -8.575   0.668 124.856  0.00  0.00    +0.120 A 
ATOM     11  C   LIG A   1      -9.284   0.764 126.045  0.00  0.00    +0.046 A 
ATOM     12  C   LIG A   1      -8.617   0.924 127.259  0.00  0.00    +0.010 A 
BRANCH  10  13
ATOM     13  O   LIG A   1      -9.134   0.539 123.612  0.00  0.00    -0.495 OA
ATOM     14  C   LIG A   1      -9.518   1.753 122.974  0.00  0.00    +0.277 C 
ENDBRANCH  10  13
ENDBRANCH   3   7
BRANCH   1  15
ATOM     15  C   LIG A   1      -7.209  -1.951 128.830  0.00  0.00    +0.036 C 
BRANCH  15  16
ATOM     16  C   LIG A   1      -6.499  -2.454 127.575  0.00  0.00    +0.037 C 
BRANCH  16  20
ATOM     17  C   LIG A   1      -9.237  -3.189 124.338  0.00  0.00    +0.117 A 
ATOM     18  C   LIG A   1      -9.732  -3.022 125.628  0.00  0.00    +0.045 A 
ATOM     19  C   LIG A   1      -8.841  -2.779 126.677  0.00  0.00    +0.007 A 
ATOM     20  C   LIG A   1      -7.458  -2.710 126.438  0.00  0.00    -0.047 A 
ATOM     21  C   LIG A   1      -6.984  -2.869 125.130  0.00  0.00    +0.007 A 
ATOM     22  C   LIG A   1      -7.875  -3.111 124.084  0.00  0.00    +0.045 A 
BRANCH  17  23
ATOM     23  O   LIG A   1     -10.069  -3.434 123.285  0.00  0.00    -0.507 OA
ATOM     24  H   LIG A   1     -10.129  -2.629 122.747  0.00  0.00    +0.292 HD
ENDBRANCH  17  23
ENDBRANCH  16  20
ENDBRANCH  15  16
ENDBRANCH   1  15
TORSDOF 6
ENDMDL
MODEL 6
REMARK VINA RESULT:      -7.1      3.114      5.034
REMARK  Name = NuBBE_1859
REMARK  7 active torsions:
REMARK  status: ('A' for Active; 'I' for Inactive)
REMARK    1  A    between atoms: O_1  and  C_2
REMARK    2  A    between atoms: C_5  and  C_8
REMARK    3  A    between atoms: C_8  and  C_9
REMARK    4  A    between atoms: C_9  and  C_10
REMARK    5  A    between atoms: C_13  and  C_18
REMARK    6  A    between atoms: C_21  and  O_22
REMARK    7  A    between atoms: O_22  and  C_23
REMARK                            x       y       z     vdW  Elec       q    Type
REMARK                         _______ _______ _______ _____ _____    ______ ____
ROOT
ATOM      1  C   LIG A   1      -8.033  -2.101 123.652  0.00  0.00    +0.119 C 
ATOM      2  O   LIG A   1      -6.860  -2.320 124.449  0.00  0.00    -0.369 OA
ATOM      3  C   LIG A   1      -7.009  -2.336 125.877  0.00  0.00    +0.149 C 
ATOM      4  C   LIG A   1      -8.195  -3.203 126.339  0.00  0.00    +0.036 C 
ATOM      5  C   LIG A   1      -9.467  -2.950 125.542  0.00  0.00    +0.005 C 
ATOM      6  C   LIG A   1      -9.160  -3.053 124.060  0.00  0.00    +0.032 C 
ENDROOT
BRANCH   3   7
ATOM      7  C   LIG A   1      -6.894  -0.943 126.481  0.00  0.00    -0.019 A 
ATOM      8  C   LIG A   1      -5.697  -0.224 126.348  0.00  0.00    +0.010 A 
ATOM      9  C   LIG A   1      -5.552   1.048 126.918  0.00  0.00    +0.046 A 
ATOM     10  C   LIG A   1      -6.609   1.630 127.622  0.00  0.00    +0.120 A 
ATOM     11  C   LIG A   1      -7.803   0.932 127.745  0.00  0.00    +0.046 A 
ATOM     12  C   LIG A   1      -7.940  -0.343 127.197  0.00  0.00    +0.010 A 
BRANCH  10  13
ATOM     13  O   LIG A   1      -6.364   2.872 128.147  0.00  0.00    -0.495 OA
ATOM     14  C   LIG A   1      -5.113   3.457 127.798  0.00  0.00    +0.277 C 
ENDBRANCH  10  13
ENDBRANCH   3   7
BRANCH   1  15
ATOM     15  C   LIG A   1      -8.400  -0.608 123.587  0.00  0.00    +0.036 C 
BRANCH  15  16
ATOM     16  C   LIG A   1      -7.255   0.298 123.139  0.00  0.00    +0.037 C 
BRANCH  16  20
ATOM     17  C   LIG A   1      -7.502   4.227 124.872  0.00  0.00    +0.117 A 
ATOM     18  C   LIG A   1      -6.333   3.838 124.226  0.00  0.00    +0.045 A 
ATOM     19  C   LIG A   1      -6.257   2.562 123.660  0.00  0.00    +0.007 A 
ATOM     20  C   LIG A   1      -7.344   1.676 123.745  0.00  0.00    -0.047 A 
ATOM     21  C   LIG A   1      -8.514   2.095 124.390  0.00  0.00    +0.007 A 
ATOM     22  C   LIG A   1      -8.589   3.369 124.955  0.00  0.00    +0.045 A 
BRANCH  17  23
ATOM     23  O   LIG A   1      -7.619   5.460 125.445  0.00  0.00    -0.507 OA
ATOM     24  H   LIG A   1      -6.735   5.855 125.508  0.00  0.00    +0.292 HD
ENDBRANCH  17  23
ENDBRANCH  16  20
ENDBRANCH  15  16
ENDBRANCH   1  15
TORSDOF 6
ENDMDL
MODEL 7
REMARK VINA RESULT:      -7.1      4.024      8.379
REMARK  Name = NuBBE_1859
REMARK  7 active torsions:
REMARK  status: ('A' for Active; 'I' for Inactive)
REMARK    1  A    between atoms: O_1  and  C_2
REMARK    2  A    between atoms: C_5  and  C_8
REMARK    3  A    between atoms: C_8  and  C_9
REMARK    4  A    between atoms: C_9  and  C_10
REMARK    5  A    between atoms: C_13  and  C_18
REMARK    6  A    between atoms: C_21  and  O_22
REMARK    7  A    between atoms: O_22  and  C_23
REMARK                            x       y       z     vdW  Elec       q    Type
REMARK                         _______ _______ _______ _____ _____    ______ ____
ROOT
ATOM      1  C   LIG A   1      -9.086  -3.049 125.952  0.00  0.00    +0.119 C 
ATOM      2  O   LIG A   1      -9.687  -2.072 125.089  0.00  0.00    -0.369 OA
ATOM      3  C   LIG A   1      -8.838  -1.379 124.161  0.00  0.00    +0.149 C 
ATOM      4  C   LIG A   1      -7.898  -2.329 123.396  0.00  0.00    +0.036 C 
ATOM      5  C   LIG A   1      -7.207  -3.341 124.299  0.00  0.00    +0.005 C 
ATOM      6  C   LIG A   1      -8.246  -4.047 125.151  0.00  0.00    +0.032 C 
ENDROOT
BRANCH   3   7
ATOM      7  C   LIG A   1      -8.213  -0.133 124.775  0.00  0.00    -0.019 A 
ATOM      8  C   LIG A   1      -8.996   0.717 125.571  0.00  0.00    +0.010 A 
ATOM      9  C   LIG A   1      -8.456   1.885 126.125  0.00  0.00    +0.046 A 
ATOM     10  C   LIG A   1      -7.117   2.217 125.904  0.00  0.00    +0.120 A 
ATOM     11  C   LIG A   1      -6.332   1.374 125.131  0.00  0.00    +0.046 A 
ATOM     12  C   LIG A   1      -6.874   0.223 124.561  0.00  0.00    +0.010 A 
BRANCH  10  13
ATOM     13  O   LIG A   1      -6.689   3.383 126.483  0.00  0.00    -0.495 OA
ATOM     14  C   LIG A   1      -7.690   4.155 127.139  0.00  0.00    +0.277 C 
ENDBRANCH  10  13
ENDBRANCH   3   7
BRANCH   1  15
ATOM     15  C   LIG A   1      -8.386  -2.386 127.152  0.00  0.00    +0.036 C 
BRANCH  15  16
ATOM     16  C   LIG A   1      -8.262  -3.289 128.378  0.00  0.00    +0.037 C 
BRANCH  16  20
ATOM     17  C   LIG A   1      -4.259  -3.355 129.952  0.00  0.00    +0.117 A 
ATOM     18  C   LIG A   1      -4.535  -2.596 128.819  0.00  0.00    +0.045 A 
ATOM     19  C   LIG A   1      -5.838  -2.573 128.312  0.00  0.00    +0.007 A 
ATOM     20  C   LIG A   1      -6.859  -3.311 128.933  0.00  0.00    -0.047 A 
ATOM     21  C   LIG A   1      -6.560  -4.058 130.079  0.00  0.00    +0.007 A 
ATOM     22  C   LIG A   1      -5.259  -4.080 130.584  0.00  0.00    +0.045 A 
BRANCH  17  23
ATOM     23  O   LIG A   1      -3.001  -3.413 130.478  0.00  0.00    -0.507 OA
ATOM     24  H   LIG A   1      -2.863  -2.627 131.031  0.00  0.00    +0.292 HD
ENDBRANCH  17  23
ENDBRANCH  16  20
ENDBRANCH  15  16
ENDBRANCH   1  15
TORSDOF 6
ENDMDL
MODEL 8
REMARK VINA RESULT:      -7.0      3.582      7.336
REMARK  Name = NuBBE_1859
REMARK  7 active torsions:
REMARK  status: ('A' for Active; 'I' for Inactive)
REMARK    1  A    between atoms: O_1  and  C_2
REMARK    2  A    between atoms: C_5  and  C_8
REMARK    3  A    between atoms: C_8  and  C_9
REMARK    4  A    between atoms: C_9  and  C_10
REMARK    5  A    between atoms: C_13  and  C_18
REMARK    6  A    between atoms: C_21  and  O_22
REMARK    7  A    between atoms: O_22  and  C_23
REMARK                            x       y       z     vdW  Elec       q    Type
REMARK                         _______ _______ _______ _____ _____    ______ ____
ROOT
ATOM      1  C   LIG A   1      -7.166  -3.561 129.544  0.00  0.00    +0.119 C 
ATOM      2  O   LIG A   1      -5.956  -3.271 128.828  0.00  0.00    -0.369 OA
ATOM      3  C   LIG A   1      -5.402  -1.952 128.949  0.00  0.00    +0.149 C 
ATOM      4  C   LIG A   1      -5.343  -1.466 130.408  0.00  0.00    +0.036 C 
ATOM      5  C   LIG A   1      -6.634  -1.714 131.175  0.00  0.00    +0.005 C 
ATOM      6  C   LIG A   1      -7.039  -3.168 131.019  0.00  0.00    +0.032 C 
ENDROOT
BRANCH   3   7
ATOM      7  C   LIG A   1      -5.982  -0.989 127.922  0.00  0.00    -0.019 A 
ATOM      8  C   LIG A   1      -5.530  -1.033 126.595  0.00  0.00    +0.010 A 
ATOM      9  C   LIG A   1      -6.025  -0.140 125.634  0.00  0.00    +0.046 A 
ATOM     10  C   LIG A   1      -6.994   0.805 125.982  0.00  0.00    +0.120 A 
ATOM     11  C   LIG A   1      -7.458   0.844 127.290  0.00  0.00    +0.046 A 
ATOM     12  C   LIG A   1      -6.949  -0.029 128.251  0.00  0.00    +0.010 A 
BRANCH  10  13
ATOM     13  O   LIG A   1      -7.405   1.635 124.974  0.00  0.00    -0.495 OA
ATOM     14  C   LIG A   1      -7.042   1.239 123.655  0.00  0.00    +0.277 C 
ENDBRANCH  10  13
ENDBRANCH   3   7
BRANCH   1  15
ATOM     15  C   LIG A   1      -8.403  -3.019 128.804  0.00  0.00    +0.036 C 
BRANCH  15  16
ATOM     16  C   LIG A   1      -8.935  -3.948 127.715  0.00  0.00    +0.037 C 
BRANCH  16  20
ATOM     17  C   LIG A   1      -8.226  -2.410 123.761  0.00  0.00    +0.117 A 
ATOM     18  C   LIG A   1      -9.131  -1.760 124.595  0.00  0.00    +0.045 A 
ATOM     19  C   LIG A   1      -9.356  -2.260 125.881  0.00  0.00    +0.007 A 
ATOM     20  C   LIG A   1      -8.683  -3.408 126.329  0.00  0.00    -0.047 A 
ATOM     21  C   LIG A   1      -7.769  -4.038 125.476  0.00  0.00    +0.007 A 
ATOM     22  C   LIG A   1      -7.545  -3.538 124.193  0.00  0.00    +0.045 A 
BRANCH  17  23
ATOM     23  O   LIG A   1      -7.980  -1.962 122.496  0.00  0.00    -0.507 OA
ATOM     24  H   LIG A   1      -7.295  -1.275 122.541  0.00  0.00    +0.292 HD
ENDBRANCH  17  23
ENDBRANCH  16  20
ENDBRANCH  15  16
ENDBRANCH   1  15
TORSDOF 6
ENDMDL
MODEL 9
REMARK VINA RESULT:      -7.0      3.317      5.806
REMARK  Name = NuBBE_1859
REMARK  7 active torsions:
REMARK  status: ('A' for Active; 'I' for Inactive)
REMARK    1  A    between atoms: O_1  and  C_2
REMARK    2  A    between atoms: C_5  and  C_8
REMARK    3  A    between atoms: C_8  and  C_9
REMARK    4  A    between atoms: C_9  and  C_10
REMARK    5  A    between atoms: C_13  and  C_18
REMARK    6  A    between atoms: C_21  and  O_22
REMARK    7  A    between atoms: O_22  and  C_23
REMARK                            x       y       z     vdW  Elec       q    Type
REMARK                         _______ _______ _______ _____ _____    ______ ____
ROOT
ATOM      1  C   LIG A   1      -6.068  -2.661 125.011  0.00  0.00    +0.119 C 
ATOM      2  O   LIG A   1      -5.780  -2.674 126.418  0.00  0.00    -0.369 OA
ATOM      3  C   LIG A   1      -6.797  -2.209 127.318  0.00  0.00    +0.149 C 
ATOM      4  C   LIG A   1      -8.182  -2.804 127.004  0.00  0.00    +0.036 C 
ATOM      5  C   LIG A   1      -8.534  -2.753 125.524  0.00  0.00    +0.005 C 
ATOM      6  C   LIG A   1      -7.400  -3.357 124.717  0.00  0.00    +0.032 C 
ENDROOT
BRANCH   3   7
ATOM      7  C   LIG A   1      -6.724  -0.704 127.538  0.00  0.00    -0.019 A 
ATOM      8  C   LIG A   1      -7.908   0.037 127.674  0.00  0.00    +0.010 A 
ATOM      9  C   LIG A   1      -7.872   1.427 127.848  0.00  0.00    +0.046 A 
ATOM     10  C   LIG A   1      -6.650   2.100 127.904  0.00  0.00    +0.120 A 
ATOM     11  C   LIG A   1      -5.473   1.372 127.787  0.00  0.00    +0.046 A 
ATOM     12  C   LIG A   1      -5.509  -0.008 127.590  0.00  0.00    +0.010 A 
BRANCH  10  13
ATOM     13  O   LIG A   1      -6.724   3.458 128.069  0.00  0.00    -0.495 OA
ATOM     14  C   LIG A   1      -7.964   3.958 128.559  0.00  0.00    +0.277 C 
ENDBRANCH  10  13
ENDBRANCH   3   7
BRANCH   1  15
ATOM     15  C   LIG A   1      -5.895  -1.253 124.413  0.00  0.00    +0.036 C 
BRANCH  15  16
ATOM     16  C   LIG A   1      -7.072  -0.789 123.558  0.00  0.00    +0.037 C 
BRANCH  16  20
ATOM     17  C   LIG A   1      -8.482   3.115 124.686  0.00  0.00    +0.117 A 
ATOM     18  C   LIG A   1      -9.395   2.074 124.541  0.00  0.00    +0.045 A 
ATOM     19  C   LIG A   1      -8.933   0.806 124.179  0.00  0.00    +0.007 A 
ATOM     20  C   LIG A   1      -7.565   0.580 123.956  0.00  0.00    -0.047 A 
ATOM     21  C   LIG A   1      -6.664   1.640 124.119  0.00  0.00    +0.007 A 
ATOM     22  C   LIG A   1      -7.126   2.906 124.481  0.00  0.00    +0.045 A 
BRANCH  17  23
ATOM     23  O   LIG A   1      -8.887   4.371 125.033  0.00  0.00    -0.507 OA
ATOM     24  H   LIG A   1      -8.324   4.688 125.756  0.00  0.00    +0.292 HD
ENDBRANCH  17  23
ENDBRANCH  16  20
ENDBRANCH  15  16
ENDBRANCH   1  15
TORSDOF 6
ENDMDL
