MODEL 1
REMARK VINA RESULT:      -7.7      0.000      0.000
REMARK  Name = NuBBE_1925
REMARK  5 active torsions:
REMARK  status: ('A' for Active; 'I' for Inactive)
REMARK    1  A    between atoms: C_1  and  C_2
REMARK    2  A    between atoms: C_10  and  C_11
REMARK    3  A    between atoms: C_10  and  C_12
REMARK    4  A    between atoms: C_17  and  C_18
REMARK    5  A    between atoms: C_17  and  C_19
REMARK                            x       y       z     vdW  Elec       q    Type
REMARK                         _______ _______ _______ _____ _____    ______ ____
ROOT
ATOM      1  C   LIG A   1      -9.196  -0.160 122.931  0.00  0.00    +0.016 C 
ATOM      2  C   LIG A   1      -7.899  -0.429 123.740  0.00  0.00    -0.007 C 
ATOM      3  C   LIG A   1      -8.107  -1.240 125.072  0.00  0.00    +0.012 C 
ATOM      4  C   LIG A   1      -9.187  -0.581 125.933  0.00  0.00    +0.084 C 
ATOM      5  C   LIG A   1      -8.829   0.866 126.208  0.00  0.00    +0.160 C 
ATOM      6  C   LIG A   1      -7.848   1.566 125.309  0.00  0.00    -0.004 C 
ATOM      7  C   LIG A   1      -7.420   0.982 124.165  0.00  0.00    -0.057 C 
ATOM      8  C   LIG A   1      -6.534   1.753 123.206  0.00  0.00    +0.032 C 
ATOM      9  C   LIG A   1      -6.483   3.263 123.463  0.00  0.00    +0.015 C 
ATOM     10  C   LIG A   1      -6.317   3.624 124.952  0.00  0.00    -0.010 C 
ATOM     11  C   LIG A   1      -6.456   5.157 125.097  0.00  0.00    +0.016 C 
ATOM     12  C   LIG A   1      -7.466   2.958 125.756  0.00  0.00    +0.049 C 
ATOM     13  O   LIG A   1      -9.361   1.476 127.136  0.00  0.00    -0.292 OA
ATOM     14  C   LIG A   1      -8.202  -2.795 124.916  0.00  0.00    -0.031 C 
ATOM     15  C   LIG A   1      -8.269  -3.473 126.307  0.00  0.00    +0.011 C 
ATOM     16  C   LIG A   1      -9.451  -3.261 124.145  0.00  0.00    +0.011 C 
ATOM     17  C   LIG A   1      -6.924  -3.324 124.196  0.00  0.00    +0.007 C 
ATOM     18  C   LIG A   1      -6.068  -2.236 123.543  0.00  0.00    +0.001 C 
ATOM     19  C   LIG A   1      -6.929  -1.218 122.808  0.00  0.00    +0.011 C 
ENDROOT
BRANCH  10  20
ATOM     20  C   LIG A   1      -4.966   3.116 125.465  0.00  0.00    -0.028 C 
ATOM     21  C   LIG A   1      -4.002   3.819 126.078  0.00  0.00    +0.004 C 
ENDBRANCH  10  20
TORSDOF 1
ENDMDL
MODEL 2
REMARK VINA RESULT:      -7.6      3.764      6.393
REMARK  Name = NuBBE_1925
REMARK  5 active torsions:
REMARK  status: ('A' for Active; 'I' for Inactive)
REMARK    1  A    between atoms: C_1  and  C_2
REMARK    2  A    between atoms: C_10  and  C_11
REMARK    3  A    between atoms: C_10  and  C_12
REMARK    4  A    between atoms: C_17  and  C_18
REMARK    5  A    between atoms: C_17  and  C_19
REMARK                            x       y       z     vdW  Elec       q    Type
REMARK                         _______ _______ _______ _____ _____    ______ ____
ROOT
ATOM      1  C   LIG A   1      -7.931  -1.167 129.811  0.00  0.00    +0.016 C 
ATOM      2  C   LIG A   1      -7.016  -2.253 129.183  0.00  0.00    -0.007 C 
ATOM      3  C   LIG A   1      -5.481  -1.909 129.191  0.00  0.00    +0.012 C 
ATOM      4  C   LIG A   1      -5.241  -0.533 128.566  0.00  0.00    +0.084 C 
ATOM      5  C   LIG A   1      -5.819  -0.484 127.166  0.00  0.00    +0.160 C 
ATOM      6  C   LIG A   1      -6.877  -1.476 126.771  0.00  0.00    -0.004 C 
ATOM      7  C   LIG A   1      -7.442  -2.290 127.694  0.00  0.00    -0.057 C 
ATOM      8  C   LIG A   1      -8.597  -3.191 127.304  0.00  0.00    +0.032 C 
ATOM      9  C   LIG A   1      -9.250  -2.843 125.962  0.00  0.00    +0.015 C 
ATOM     10  C   LIG A   1      -8.229  -2.555 124.843  0.00  0.00    -0.010 C 
ATOM     11  C   LIG A   1      -9.002  -2.050 123.602  0.00  0.00    +0.016 C 
ATOM     12  C   LIG A   1      -7.281  -1.419 125.315  0.00  0.00    +0.049 C 
ATOM     13  O   LIG A   1      -5.453   0.380 126.368  0.00  0.00    -0.292 OA
ATOM     14  C   LIG A   1      -4.724  -2.201 130.530  0.00  0.00    -0.031 C 
ATOM     15  C   LIG A   1      -3.206  -1.946 130.357  0.00  0.00    +0.011 C 
ATOM     16  C   LIG A   1      -5.182  -1.313 131.702  0.00  0.00    +0.011 C 
ATOM     17  C   LIG A   1      -4.908  -3.700 130.915  0.00  0.00    +0.007 C 
ATOM     18  C   LIG A   1      -5.998  -4.428 130.125  0.00  0.00    +0.001 C 
ATOM     19  C   LIG A   1      -7.248  -3.571 129.983  0.00  0.00    +0.011 C 
ENDROOT
BRANCH  10  20
ATOM     20  C   LIG A   1      -7.415  -3.817 124.542  0.00  0.00    -0.028 C 
ATOM     21  C   LIG A   1      -6.136  -3.895 124.146  0.00  0.00    +0.004 C 
ENDBRANCH  10  20
TORSDOF 1
ENDMDL
MODEL 3
REMARK VINA RESULT:      -7.5      3.488      5.528
REMARK  Name = NuBBE_1925
REMARK  5 active torsions:
REMARK  status: ('A' for Active; 'I' for Inactive)
REMARK    1  A    between atoms: C_1  and  C_2
REMARK    2  A    between atoms: C_10  and  C_11
REMARK    3  A    between atoms: C_10  and  C_12
REMARK    4  A    between atoms: C_17  and  C_18
REMARK    5  A    between atoms: C_17  and  C_19
REMARK                            x       y       z     vdW  Elec       q    Type
REMARK                         _______ _______ _______ _____ _____    ______ ____
ROOT
ATOM      1  C   LIG A   1      -7.885  -0.046 126.866  0.00  0.00    +0.016 C 
ATOM      2  C   LIG A   1      -7.007  -1.257 126.449  0.00  0.00    -0.007 C 
ATOM      3  C   LIG A   1      -7.788  -2.432 125.754  0.00  0.00    +0.012 C 
ATOM      4  C   LIG A   1      -8.977  -2.862 126.616  0.00  0.00    +0.084 C 
ATOM      5  C   LIG A   1      -8.507  -3.246 128.005  0.00  0.00    +0.160 C 
ATOM      6  C   LIG A   1      -7.178  -2.746 128.497  0.00  0.00    -0.004 C 
ATOM      7  C   LIG A   1      -6.482  -1.823 127.793  0.00  0.00    -0.057 C 
ATOM      8  C   LIG A   1      -5.208  -1.233 128.367  0.00  0.00    +0.032 C 
ATOM      9  C   LIG A   1      -5.006  -1.493 129.863  0.00  0.00    +0.015 C 
ATOM     10  C   LIG A   1      -5.307  -2.948 130.277  0.00  0.00    -0.010 C 
ATOM     11  C   LIG A   1      -5.238  -3.036 131.819  0.00  0.00    +0.016 C 
ATOM     12  C   LIG A   1      -6.754  -3.300 129.839  0.00  0.00    +0.049 C 
ATOM     13  O   LIG A   1      -9.220  -3.932 128.739  0.00  0.00    -0.292 OA
ATOM     14  C   LIG A   1      -8.073  -2.251 124.225  0.00  0.00    -0.031 C 
ATOM     15  C   LIG A   1      -8.723  -3.531 123.643  0.00  0.00    +0.011 C 
ATOM     16  C   LIG A   1      -9.038  -1.093 123.912  0.00  0.00    +0.011 C 
ATOM     17  C   LIG A   1      -6.728  -2.022 123.470  0.00  0.00    +0.007 C 
ATOM     18  C   LIG A   1      -5.537  -1.709 124.378  0.00  0.00    +0.001 C 
ATOM     19  C   LIG A   1      -5.916  -0.720 125.472  0.00  0.00    +0.011 C 
ENDROOT
BRANCH  10  20
ATOM     20  C   LIG A   1      -4.315  -3.899 129.599  0.00  0.00    -0.028 C 
ATOM     21  C   LIG A   1      -3.028  -3.669 129.303  0.00  0.00    +0.004 C 
ENDBRANCH  10  20
TORSDOF 1
ENDMDL
MODEL 4
REMARK VINA RESULT:      -7.3      1.759      5.940
REMARK  Name = NuBBE_1925
REMARK  5 active torsions:
REMARK  status: ('A' for Active; 'I' for Inactive)
REMARK    1  A    between atoms: C_1  and  C_2
REMARK    2  A    between atoms: C_10  and  C_11
REMARK    3  A    between atoms: C_10  and  C_12
REMARK    4  A    between atoms: C_17  and  C_18
REMARK    5  A    between atoms: C_17  and  C_19
REMARK                            x       y       z     vdW  Elec       q    Type
REMARK                         _______ _______ _______ _____ _____    ______ ____
ROOT
ATOM      1  C   LIG A   1      -7.597   1.706 127.104  0.00  0.00    +0.016 C 
ATOM      2  C   LIG A   1      -6.364   1.465 126.192  0.00  0.00    -0.007 C 
ATOM      3  C   LIG A   1      -6.293   2.388 124.920  0.00  0.00    +0.012 C 
ATOM      4  C   LIG A   1      -7.604   2.314 124.135  0.00  0.00    +0.084 C 
ATOM      5  C   LIG A   1      -7.915   0.877 123.767  0.00  0.00    +0.160 C 
ATOM      6  C   LIG A   1      -7.270  -0.238 124.542  0.00  0.00    -0.004 C 
ATOM      7  C   LIG A   1      -6.561   0.021 125.666  0.00  0.00    -0.057 C 
ATOM      8  C   LIG A   1      -6.029  -1.123 126.507  0.00  0.00    +0.032 C 
ATOM      9  C   LIG A   1      -6.643  -2.489 126.182  0.00  0.00    +0.015 C 
ATOM     10  C   LIG A   1      -6.743  -2.771 124.670  0.00  0.00    -0.010 C 
ATOM     11  C   LIG A   1      -7.531  -4.086 124.474  0.00  0.00    +0.016 C 
ATOM     12  C   LIG A   1      -7.548  -1.623 124.003  0.00  0.00    +0.049 C 
ATOM     13  O   LIG A   1      -8.715   0.622 122.866  0.00  0.00    -0.292 OA
ATOM     14  C   LIG A   1      -5.705   3.821 125.150  0.00  0.00    -0.031 C 
ATOM     15  C   LIG A   1      -5.566   4.569 123.801  0.00  0.00    +0.011 C 
ATOM     16  C   LIG A   1      -6.584   4.709 126.051  0.00  0.00    +0.011 C 
ATOM     17  C   LIG A   1      -4.280   3.705 125.772  0.00  0.00    +0.007 C 
ATOM     18  C   LIG A   1      -3.930   2.311 126.297  0.00  0.00    +0.001 C 
ATOM     19  C   LIG A   1      -5.092   1.697 127.064  0.00  0.00    +0.011 C 
ENDROOT
BRANCH  10  20
ATOM     20  C   LIG A   1      -5.340  -2.841 124.058  0.00  0.00    -0.028 C 
ATOM     21  C   LIG A   1      -4.606  -3.935 123.810  0.00  0.00    +0.004 C 
ENDBRANCH  10  20
TORSDOF 1
ENDMDL
MODEL 5
REMARK VINA RESULT:      -7.1      2.196      5.861
REMARK  Name = NuBBE_1925
REMARK  5 active torsions:
REMARK  status: ('A' for Active; 'I' for Inactive)
REMARK    1  A    between atoms: C_1  and  C_2
REMARK    2  A    between atoms: C_10  and  C_11
REMARK    3  A    between atoms: C_10  and  C_12
REMARK    4  A    between atoms: C_17  and  C_18
REMARK    5  A    between atoms: C_17  and  C_19
REMARK                            x       y       z     vdW  Elec       q    Type
REMARK                         _______ _______ _______ _____ _____    ______ ____
ROOT
ATOM      1  C   LIG A   1      -8.572   1.467 127.314  0.00  0.00    +0.016 C 
ATOM      2  C   LIG A   1      -7.330   0.550 127.155  0.00  0.00    -0.007 C 
ATOM      3  C   LIG A   1      -6.075   1.243 126.507  0.00  0.00    +0.012 C 
ATOM      4  C   LIG A   1      -6.461   1.912 125.185  0.00  0.00    +0.084 C 
ATOM      5  C   LIG A   1      -7.089   0.900 124.248  0.00  0.00    +0.160 C 
ATOM      6  C   LIG A   1      -7.665  -0.369 124.813  0.00  0.00    -0.004 C 
ATOM      7  C   LIG A   1      -7.789  -0.537 126.150  0.00  0.00    -0.057 C 
ATOM      8  C   LIG A   1      -8.492  -1.764 126.698  0.00  0.00    +0.032 C 
ATOM      9  C   LIG A   1      -9.308  -2.544 125.662  0.00  0.00    +0.015 C 
ATOM     10  C   LIG A   1      -8.564  -2.749 124.327  0.00  0.00    -0.010 C 
ATOM     11  C   LIG A   1      -9.547  -3.386 123.318  0.00  0.00    +0.016 C 
ATOM     12  C   LIG A   1      -8.142  -1.360 123.775  0.00  0.00    +0.049 C 
ATOM     13  O   LIG A   1      -7.159   1.127 123.040  0.00  0.00    -0.292 OA
ATOM     14  C   LIG A   1      -5.188   2.092 127.478  0.00  0.00    -0.031 C 
ATOM     15  C   LIG A   1      -3.922   2.602 126.744  0.00  0.00    +0.011 C 
ATOM     16  C   LIG A   1      -5.901   3.339 128.031  0.00  0.00    +0.011 C 
ATOM     17  C   LIG A   1      -4.715   1.199 128.665  0.00  0.00    +0.007 C 
ATOM     18  C   LIG A   1      -5.453  -0.137 128.786  0.00  0.00    +0.001 C 
ATOM     19  C   LIG A   1      -6.951   0.035 128.578  0.00  0.00    +0.011 C 
ENDROOT
BRANCH  10  20
ATOM     20  C   LIG A   1      -7.321  -3.616 124.549  0.00  0.00    -0.028 C 
ATOM     21  C   LIG A   1      -6.072  -3.387 124.119  0.00  0.00    +0.004 C 
ENDBRANCH  10  20
TORSDOF 1
ENDMDL
MODEL 6
REMARK VINA RESULT:      -7.1      3.296      4.894
REMARK  Name = NuBBE_1925
REMARK  5 active torsions:
REMARK  status: ('A' for Active; 'I' for Inactive)
REMARK    1  A    between atoms: C_1  and  C_2
REMARK    2  A    between atoms: C_10  and  C_11
REMARK    3  A    between atoms: C_10  and  C_12
REMARK    4  A    between atoms: C_17  and  C_18
REMARK    5  A    between atoms: C_17  and  C_19
REMARK                            x       y       z     vdW  Elec       q    Type
REMARK                         _______ _______ _______ _____ _____    ______ ____
ROOT
ATOM      1  C   LIG A   1      -5.798  -0.877 127.372  0.00  0.00    +0.016 C 
ATOM      2  C   LIG A   1      -7.182  -1.139 128.026  0.00  0.00    -0.007 C 
ATOM      3  C   LIG A   1      -8.364  -1.352 127.009  0.00  0.00    +0.012 C 
ATOM      4  C   LIG A   1      -8.418  -0.196 126.008  0.00  0.00    +0.084 C 
ATOM      5  C   LIG A   1      -8.538   1.126 126.737  0.00  0.00    +0.160 C 
ATOM      6  C   LIG A   1      -8.130   1.210 128.182  0.00  0.00    -0.004 C 
ATOM      7  C   LIG A   1      -7.496   0.176 128.783  0.00  0.00    -0.057 C 
ATOM      8  C   LIG A   1      -6.975   0.326 130.199  0.00  0.00    +0.032 C 
ATOM      9  C   LIG A   1      -6.915   1.771 130.704  0.00  0.00    +0.015 C 
ATOM     10  C   LIG A   1      -8.181   2.587 130.376  0.00  0.00    -0.010 C 
ATOM     11  C   LIG A   1      -7.926   4.059 130.776  0.00  0.00    +0.016 C 
ATOM     12  C   LIG A   1      -8.419   2.540 128.841  0.00  0.00    +0.049 C 
ATOM     13  O   LIG A   1      -8.933   2.132 126.147  0.00  0.00    -0.292 OA
ATOM     14  C   LIG A   1      -8.496  -2.792 126.410  0.00  0.00    -0.031 C 
ATOM     15  C   LIG A   1      -9.771  -2.898 125.537  0.00  0.00    +0.011 C 
ATOM     16  C   LIG A   1      -7.316  -3.194 125.506  0.00  0.00    +0.011 C 
ATOM     17  C   LIG A   1      -8.634  -3.827 127.569  0.00  0.00    +0.007 C 
ATOM     18  C   LIG A   1      -8.292  -3.274 128.955  0.00  0.00    +0.001 C 
ATOM     19  C   LIG A   1      -7.039  -2.411 128.917  0.00  0.00    +0.011 C 
ENDROOT
BRANCH  10  20
ATOM     20  C   LIG A   1      -9.390   1.991 131.104  0.00  0.00    -0.028 C 
ATOM     21  C   LIG A   1      -9.658   2.029 132.417  0.00  0.00    +0.004 C 
ENDBRANCH  10  20
TORSDOF 1
ENDMDL
MODEL 7
REMARK VINA RESULT:      -6.9      2.337      3.139
REMARK  Name = NuBBE_1925
REMARK  5 active torsions:
REMARK  status: ('A' for Active; 'I' for Inactive)
REMARK    1  A    between atoms: C_1  and  C_2
REMARK    2  A    between atoms: C_10  and  C_11
REMARK    3  A    between atoms: C_10  and  C_12
REMARK    4  A    between atoms: C_17  and  C_18
REMARK    5  A    between atoms: C_17  and  C_19
REMARK                            x       y       z     vdW  Elec       q    Type
REMARK                         _______ _______ _______ _____ _____    ______ ____
ROOT
ATOM      1  C   LIG A   1      -8.499  -0.958 126.203  0.00  0.00    +0.016 C 
ATOM      2  C   LIG A   1      -7.207  -0.604 125.419  0.00  0.00    -0.007 C 
ATOM      3  C   LIG A   1      -6.169  -1.779 125.290  0.00  0.00    +0.012 C 
ATOM      4  C   LIG A   1      -5.855  -2.365 126.669  0.00  0.00    +0.084 C 
ATOM      5  C   LIG A   1      -5.358  -1.278 127.600  0.00  0.00    +0.160 C 
ATOM      6  C   LIG A   1      -5.666   0.159 127.286  0.00  0.00    -0.004 C 
ATOM      7  C   LIG A   1      -6.523   0.481 126.289  0.00  0.00    -0.057 C 
ATOM      8  C   LIG A   1      -6.924   1.927 126.070  0.00  0.00    +0.032 C 
ATOM      9  C   LIG A   1      -6.578   2.864 127.232  0.00  0.00    +0.015 C 
ATOM     10  C   LIG A   1      -5.157   2.649 127.789  0.00  0.00    -0.010 C 
ATOM     11  C   LIG A   1      -4.996   3.521 129.056  0.00  0.00    +0.016 C 
ATOM     12  C   LIG A   1      -5.007   1.161 128.208  0.00  0.00    +0.049 C 
ATOM     13  O   LIG A   1      -4.737  -1.568 128.623  0.00  0.00    -0.292 OA
ATOM     14  C   LIG A   1      -6.448  -2.813 124.148  0.00  0.00    -0.031 C 
ATOM     15  C   LIG A   1      -5.286  -3.831 124.046  0.00  0.00    +0.011 C 
ATOM     16  C   LIG A   1      -7.731  -3.638 124.364  0.00  0.00    +0.011 C 
ATOM     17  C   LIG A   1      -6.539  -2.066 122.782  0.00  0.00    +0.007 C 
ATOM     18  C   LIG A   1      -6.662  -0.545 122.898  0.00  0.00    +0.001 C 
ATOM     19  C   LIG A   1      -7.643  -0.148 123.992  0.00  0.00    +0.011 C 
ENDROOT
BRANCH  10  20
ATOM     20  C   LIG A   1      -4.118   2.991 126.716  0.00  0.00    -0.028 C 
ATOM     21  C   LIG A   1      -2.787   3.076 126.858  0.00  0.00    +0.004 C 
ENDBRANCH  10  20
TORSDOF 1
ENDMDL
MODEL 8
REMARK VINA RESULT:      -6.9      3.610      6.099
REMARK  Name = NuBBE_1925
REMARK  5 active torsions:
REMARK  status: ('A' for Active; 'I' for Inactive)
REMARK    1  A    between atoms: C_1  and  C_2
REMARK    2  A    between atoms: C_10  and  C_11
REMARK    3  A    between atoms: C_10  and  C_12
REMARK    4  A    between atoms: C_17  and  C_18
REMARK    5  A    between atoms: C_17  and  C_19
REMARK                            x       y       z     vdW  Elec       q    Type
REMARK                         _______ _______ _______ _____ _____    ______ ____
ROOT
ATOM      1  C   LIG A   1      -5.143  -2.828 128.506  0.00  0.00    +0.016 C 
ATOM      2  C   LIG A   1      -6.160  -1.657 128.428  0.00  0.00    -0.007 C 
ATOM      3  C   LIG A   1      -7.243  -1.645 129.568  0.00  0.00    +0.012 C 
ATOM      4  C   LIG A   1      -7.946  -3.002 129.648  0.00  0.00    +0.084 C 
ATOM      5  C   LIG A   1      -8.550  -3.361 128.306  0.00  0.00    +0.160 C 
ATOM      6  C   LIG A   1      -8.033  -2.691 127.063  0.00  0.00    -0.004 C 
ATOM      7  C   LIG A   1      -6.927  -1.911 127.106  0.00  0.00    -0.057 C 
ATOM      8  C   LIG A   1      -6.345  -1.350 125.824  0.00  0.00    +0.032 C 
ATOM      9  C   LIG A   1      -6.874  -2.007 124.545  0.00  0.00    +0.015 C 
ATOM     10  C   LIG A   1      -8.404  -2.203 124.546  0.00  0.00    -0.010 C 
ATOM     11  C   LIG A   1      -8.787  -3.026 123.295  0.00  0.00    +0.016 C 
ATOM     12  C   LIG A   1      -8.798  -3.026 125.803  0.00  0.00    +0.049 C 
ATOM     13  O   LIG A   1      -9.430  -4.218 128.226  0.00  0.00    -0.292 OA
ATOM     14  C   LIG A   1      -6.793  -1.019 130.931  0.00  0.00    -0.031 C 
ATOM     15  C   LIG A   1      -7.988  -0.948 131.913  0.00  0.00    +0.011 C 
ATOM     16  C   LIG A   1      -5.692  -1.825 131.644  0.00  0.00    +0.011 C 
ATOM     17  C   LIG A   1      -6.293   0.439 130.693  0.00  0.00    +0.007 C 
ATOM     18  C   LIG A   1      -6.054   0.795 129.224  0.00  0.00    +0.001 C 
ATOM     19  C   LIG A   1      -5.341  -0.331 128.487  0.00  0.00    +0.011 C 
ENDROOT
BRANCH  10  20
ATOM     20  C   LIG A   1      -9.104  -0.842 124.580  0.00  0.00    -0.028 C 
ATOM     21  C   LIG A   1      -9.167   0.075 123.602  0.00  0.00    +0.004 C 
ENDBRANCH  10  20
TORSDOF 1
ENDMDL
MODEL 9
REMARK VINA RESULT:      -6.9      2.701      5.289
REMARK  Name = NuBBE_1925
REMARK  5 active torsions:
REMARK  status: ('A' for Active; 'I' for Inactive)
REMARK    1  A    between atoms: C_1  and  C_2
REMARK    2  A    between atoms: C_10  and  C_11
REMARK    3  A    between atoms: C_10  and  C_12
REMARK    4  A    between atoms: C_17  and  C_18
REMARK    5  A    between atoms: C_17  and  C_19
REMARK                            x       y       z     vdW  Elec       q    Type
REMARK                         _______ _______ _______ _____ _____    ______ ____
ROOT
ATOM      1  C   LIG A   1      -5.054   0.487 125.860  0.00  0.00    +0.016 C 
ATOM      2  C   LIG A   1      -6.141  -0.616 125.749  0.00  0.00    -0.007 C 
ATOM      3  C   LIG A   1      -7.568  -0.099 125.337  0.00  0.00    +0.012 C 
ATOM      4  C   LIG A   1      -8.007   1.041 126.258  0.00  0.00    +0.084 C 
ATOM      5  C   LIG A   1      -7.972   0.591 127.705  0.00  0.00    +0.160 C 
ATOM      6  C   LIG A   1      -7.133  -0.597 128.086  0.00  0.00    -0.004 C 
ATOM      7  C   LIG A   1      -6.280  -1.156 127.196  0.00  0.00    -0.057 C 
ATOM      8  C   LIG A   1      -5.347  -2.268 127.635  0.00  0.00    +0.032 C 
ATOM      9  C   LIG A   1      -5.219  -2.427 129.153  0.00  0.00    +0.015 C 
ATOM     10  C   LIG A   1      -6.572  -2.368 129.891  0.00  0.00    -0.010 C 
ATOM     11  C   LIG A   1      -6.294  -2.362 131.412  0.00  0.00    +0.016 C 
ATOM     12  C   LIG A   1      -7.279  -1.035 129.526  0.00  0.00    +0.049 C 
ATOM     13  O   LIG A   1      -8.594   1.211 128.568  0.00  0.00    -0.292 OA
ATOM     14  C   LIG A   1      -7.795   0.124 123.804  0.00  0.00    -0.031 C 
ATOM     15  C   LIG A   1      -9.272   0.500 123.527  0.00  0.00    +0.011 C 
ATOM     16  C   LIG A   1      -6.940   1.262 123.215  0.00  0.00    +0.011 C 
ATOM     17  C   LIG A   1      -7.495  -1.198 123.035  0.00  0.00    +0.007 C 
ATOM     18  C   LIG A   1      -6.767  -2.260 123.863  0.00  0.00    +0.001 C 
ATOM     19  C   LIG A   1      -5.646  -1.649 124.690  0.00  0.00    +0.011 C 
ENDROOT
BRANCH  10  20
ATOM     20  C   LIG A   1      -7.449  -3.551 129.468  0.00  0.00    -0.028 C 
ATOM     21  C   LIG A   1      -8.650  -3.512 128.874  0.00  0.00    +0.004 C 
ENDBRANCH  10  20
TORSDOF 1
ENDMDL
