MODEL 1
REMARK VINA RESULT:      -8.0      0.000      0.000
REMARK  Name = NuBBE_85
REMARK  8 active torsions:
REMARK  status: ('A' for Active; 'I' for Inactive)
REMARK    1  A    between atoms: C_1  and  C_2
REMARK    2  A    between atoms: C_4  and  C_6
REMARK    3  A    between atoms: C_7  and  C_9
REMARK    4  A    between atoms: C_11  and  O_12
REMARK    5  A    between atoms: O_12  and  C_13
REMARK    6  A    between atoms: C_21  and  C_23
REMARK    7  A    between atoms: C_30  and  O_31
REMARK    8  A    between atoms: O_31  and  C_32
REMARK                            x       y       z     vdW  Elec       q    Type
REMARK                         _______ _______ _______ _____ _____    ______ ____
ROOT
ATOM      1  C   LIG A   1      -9.176   3.500 133.844  0.00  0.00    +0.011 C 
ATOM      2  C   LIG A   1      -7.954   4.375 133.621  0.00  0.00    +0.025 C 
ATOM      3  C   LIG A   1      -6.914   3.751 132.702  0.00  0.00    +0.025 C 
ATOM      4  C   LIG A   1      -6.244   2.505 133.268  0.00  0.00    +0.011 C 
ATOM      5  C   LIG A   1      -5.960   4.935 132.486  0.00  0.00    +0.152 C 
ATOM      6  O   LIG A   1      -6.782   6.125 132.570  0.00  0.00    -0.364 OA
ATOM      7  C   LIG A   1      -8.128   5.763 132.981  0.00  0.00    +0.152 C 
ENDROOT
BRANCH   5   8
ATOM      8  C   LIG A   1      -5.161   4.967 131.197  0.00  0.00    -0.011 A 
ATOM      9  C   LIG A   1      -4.922   6.209 130.557  0.00  0.00    +0.056 A 
ATOM     10  C   LIG A   1      -4.195   6.307 129.356  0.00  0.00    +0.166 A 
ATOM     11  C   LIG A   1      -3.686   5.135 128.823  0.00  0.00    +0.207 A 
ATOM     12  O   LIG A   1      -2.922   4.984 127.705  0.00  0.00    -0.449 OA
ATOM     13  C   LIG A   1      -2.712   3.560 127.687  0.00  0.00    +0.467 C 
ATOM     14  O   LIG A   1      -3.329   2.878 128.787  0.00  0.00    -0.453 OA
ATOM     15  C   LIG A   1      -3.910   3.926 129.442  0.00  0.00    +0.170 A 
ATOM     16  C   LIG A   1      -4.633   3.807 130.608  0.00  0.00    +0.056 A 
BRANCH  10  17
ATOM     17  O   LIG A   1      -4.041   7.568 128.856  0.00  0.00    -0.491 OA
ATOM     18  C   LIG A   1      -4.007   8.614 129.823  0.00  0.00    +0.277 C 
ENDBRANCH  10  17
ENDBRANCH   5   8
BRANCH   7  19
ATOM     19  C   LIG A   1      -9.088   5.922 131.807  0.00  0.00    -0.011 A 
ATOM     20  C   LIG A   1     -10.419   6.340 131.991  0.00  0.00    +0.056 A 
ATOM     21  C   LIG A   1     -11.245   6.443 130.890  0.00  0.00    +0.170 A 
ATOM     22  O   LIG A   1     -12.548   6.846 130.927  0.00  0.00    -0.453 OA
ATOM     23  C   LIG A   1     -12.893   6.789 129.534  0.00  0.00    +0.467 C 
ATOM     24  O   LIG A   1     -11.803   6.353 128.698  0.00  0.00    -0.449 OA
ATOM     25  C   LIG A   1     -10.822   6.141 129.615  0.00  0.00    +0.207 A 
ATOM     26  C   LIG A   1      -9.536   5.688 129.385  0.00  0.00    +0.166 A 
ATOM     27  C   LIG A   1      -8.685   5.573 130.494  0.00  0.00    +0.056 A 
BRANCH  26  28
ATOM     28  O   LIG A   1      -8.981   5.363 128.183  0.00  0.00    -0.491 OA
ATOM     29  C   LIG A   1      -7.924   4.411 128.226  0.00  0.00    +0.277 C 
ENDBRANCH  26  28
ENDBRANCH   7  19
TORSDOF 4
ENDMDL
MODEL 2
REMARK VINA RESULT:      -7.9      2.168      2.671
REMARK  Name = NuBBE_85
REMARK  8 active torsions:
REMARK  status: ('A' for Active; 'I' for Inactive)
REMARK    1  A    between atoms: C_1  and  C_2
REMARK    2  A    between atoms: C_4  and  C_6
REMARK    3  A    between atoms: C_7  and  C_9
REMARK    4  A    between atoms: C_11  and  O_12
REMARK    5  A    between atoms: O_12  and  C_13
REMARK    6  A    between atoms: C_21  and  C_23
REMARK    7  A    between atoms: C_30  and  O_31
REMARK    8  A    between atoms: O_31  and  C_32
REMARK                            x       y       z     vdW  Elec       q    Type
REMARK                         _______ _______ _______ _____ _____    ______ ____
ROOT
ATOM      1  C   LIG A   1      -9.752   2.347 132.641  0.00  0.00    +0.011 C 
ATOM      2  C   LIG A   1      -8.885   3.377 133.346  0.00  0.00    +0.025 C 
ATOM      3  C   LIG A   1      -7.483   3.496 132.767  0.00  0.00    +0.025 C 
ATOM      4  C   LIG A   1      -6.620   2.254 132.954  0.00  0.00    +0.011 C 
ATOM      5  C   LIG A   1      -6.962   4.739 133.501  0.00  0.00    +0.152 C 
ATOM      6  O   LIG A   1      -8.125   5.568 133.749  0.00  0.00    -0.364 OA
ATOM      7  C   LIG A   1      -9.329   4.849 133.366  0.00  0.00    +0.152 C 
ENDROOT
BRANCH   5   8
ATOM      8  C   LIG A   1      -5.894   5.567 132.812  0.00  0.00    -0.011 A 
ATOM      9  C   LIG A   1      -4.562   5.528 133.297  0.00  0.00    +0.056 A 
ATOM     10  C   LIG A   1      -3.527   6.277 132.708  0.00  0.00    +0.166 A 
ATOM     11  C   LIG A   1      -3.848   7.047 131.603  0.00  0.00    +0.207 A 
ATOM     12  O   LIG A   1      -3.015   7.814 130.845  0.00  0.00    -0.449 OA
ATOM     13  C   LIG A   1      -3.924   8.345 129.862  0.00  0.00    +0.467 C 
ATOM     14  O   LIG A   1      -5.272   7.885 130.024  0.00  0.00    -0.453 OA
ATOM     15  C   LIG A   1      -5.137   7.085 131.124  0.00  0.00    +0.170 A 
ATOM     16  C   LIG A   1      -6.168   6.373 131.696  0.00  0.00    +0.056 A 
BRANCH  10  17
ATOM     17  O   LIG A   1      -2.294   6.138 133.278  0.00  0.00    -0.491 OA
ATOM     18  C   LIG A   1      -1.443   5.166 132.677  0.00  0.00    +0.277 C 
ENDBRANCH  10  17
ENDBRANCH   5   8
BRANCH   7  19
ATOM     19  C   LIG A   1      -9.917   5.462 132.100  0.00  0.00    -0.011 A 
ATOM     20  C   LIG A   1     -11.080   6.254 132.134  0.00  0.00    +0.056 A 
ATOM     21  C   LIG A   1     -11.576   6.762 130.949  0.00  0.00    +0.170 A 
ATOM     22  O   LIG A   1     -12.684   7.551 130.843  0.00  0.00    -0.453 OA
ATOM     23  C   LIG A   1     -12.712   7.794 129.428  0.00  0.00    +0.467 C 
ATOM     24  O   LIG A   1     -11.634   7.151 128.720  0.00  0.00    -0.449 OA
ATOM     25  C   LIG A   1     -10.984   6.516 129.732  0.00  0.00    +0.207 A 
ATOM     26  C   LIG A   1      -9.863   5.711 129.640  0.00  0.00    +0.166 A 
ATOM     27  C   LIG A   1      -9.349   5.183 130.832  0.00  0.00    +0.056 A 
BRANCH  26  28
ATOM     28  O   LIG A   1      -9.171   5.391 128.509  0.00  0.00    -0.491 OA
ATOM     29  C   LIG A   1      -8.108   4.460 128.677  0.00  0.00    +0.277 C 
ENDBRANCH  26  28
ENDBRANCH   7  19
TORSDOF 4
ENDMDL
MODEL 3
REMARK VINA RESULT:      -7.9      6.255      9.258
REMARK  Name = NuBBE_85
REMARK  8 active torsions:
REMARK  status: ('A' for Active; 'I' for Inactive)
REMARK    1  A    between atoms: C_1  and  C_2
REMARK    2  A    between atoms: C_4  and  C_6
REMARK    3  A    between atoms: C_7  and  C_9
REMARK    4  A    between atoms: C_11  and  O_12
REMARK    5  A    between atoms: O_12  and  C_13
REMARK    6  A    between atoms: C_21  and  C_23
REMARK    7  A    between atoms: C_30  and  O_31
REMARK    8  A    between atoms: O_31  and  C_32
REMARK                            x       y       z     vdW  Elec       q    Type
REMARK                         _______ _______ _______ _____ _____    ______ ____
ROOT
ATOM      1  C   LIG A   1      -9.417  -3.127 123.596  0.00  0.00    +0.011 C 
ATOM      2  C   LIG A   1      -8.374  -2.103 123.179  0.00  0.00    +0.025 C 
ATOM      3  C   LIG A   1      -8.847  -0.663 123.300  0.00  0.00    +0.025 C 
ATOM      4  C   LIG A   1      -9.976  -0.291 122.346  0.00  0.00    +0.011 C 
ATOM      5  C   LIG A   1      -7.539   0.102 123.055  0.00  0.00    +0.152 C 
ATOM      6  O   LIG A   1      -6.481  -0.754 123.552  0.00  0.00    -0.364 OA
ATOM      7  C   LIG A   1      -7.033  -2.044 123.931  0.00  0.00    +0.152 C 
ENDROOT
BRANCH   5   8
ATOM      8  C   LIG A   1      -7.402   1.480 123.676  0.00  0.00    -0.011 A 
ATOM      9  C   LIG A   1      -6.592   2.453 123.039  0.00  0.00    +0.056 A 
ATOM     10  C   LIG A   1      -6.418   3.746 123.567  0.00  0.00    +0.166 A 
ATOM     11  C   LIG A   1      -7.096   4.054 124.733  0.00  0.00    +0.207 A 
ATOM     12  O   LIG A   1      -7.119   5.241 125.402  0.00  0.00    -0.449 OA
ATOM     13  C   LIG A   1      -7.990   4.935 126.506  0.00  0.00    +0.467 C 
ATOM     14  O   LIG A   1      -8.491   3.592 126.484  0.00  0.00    -0.453 OA
ATOM     15  C   LIG A   1      -7.890   3.116 125.353  0.00  0.00    +0.170 A 
ATOM     16  C   LIG A   1      -8.059   1.840 124.862  0.00  0.00    +0.056 A 
BRANCH  10  17
ATOM     17  O   LIG A   1      -5.612   4.579 122.844  0.00  0.00    -0.491 OA
ATOM     18  C   LIG A   1      -5.314   4.151 121.518  0.00  0.00    +0.277 C 
ENDBRANCH  10  17
ENDBRANCH   5   8
BRANCH   7  19
ATOM     19  C   LIG A   1      -7.029  -2.184 125.449  0.00  0.00    -0.011 A 
ATOM     20  C   LIG A   1      -8.015  -2.925 126.127  0.00  0.00    +0.056 A 
ATOM     21  C   LIG A   1      -7.968  -2.995 127.505  0.00  0.00    +0.170 A 
ATOM     22  O   LIG A   1      -8.852  -3.686 128.280  0.00  0.00    -0.453 OA
ATOM     23  C   LIG A   1      -8.321  -3.434 129.591  0.00  0.00    +0.467 C 
ATOM     24  O   LIG A   1      -7.144  -2.603 129.576  0.00  0.00    -0.449 OA
ATOM     25  C   LIG A   1      -7.000  -2.357 128.246  0.00  0.00    +0.207 A 
ATOM     26  C   LIG A   1      -6.033  -1.583 127.632  0.00  0.00    +0.166 A 
ATOM     27  C   LIG A   1      -6.068  -1.498 126.234  0.00  0.00    +0.056 A 
BRANCH  26  28
ATOM     28  O   LIG A   1      -5.014  -0.908 128.237  0.00  0.00    -0.491 OA
ATOM     29  C   LIG A   1      -5.297   0.437 128.608  0.00  0.00    +0.277 C 
ENDBRANCH  26  28
ENDBRANCH   7  19
TORSDOF 4
ENDMDL
MODEL 4
REMARK VINA RESULT:      -7.6      5.979      8.497
REMARK  Name = NuBBE_85
REMARK  8 active torsions:
REMARK  status: ('A' for Active; 'I' for Inactive)
REMARK    1  A    between atoms: C_1  and  C_2
REMARK    2  A    between atoms: C_4  and  C_6
REMARK    3  A    between atoms: C_7  and  C_9
REMARK    4  A    between atoms: C_11  and  O_12
REMARK    5  A    between atoms: O_12  and  C_13
REMARK    6  A    between atoms: C_21  and  C_23
REMARK    7  A    between atoms: C_30  and  O_31
REMARK    8  A    between atoms: O_31  and  C_32
REMARK                            x       y       z     vdW  Elec       q    Type
REMARK                         _______ _______ _______ _____ _____    ______ ____
ROOT
ATOM      1  C   LIG A   1      -6.780  -1.528 122.489  0.00  0.00    +0.011 C 
ATOM      2  C   LIG A   1      -7.431  -2.141 123.718  0.00  0.00    +0.025 C 
ATOM      3  C   LIG A   1      -6.486  -2.285 124.902  0.00  0.00    +0.025 C 
ATOM      4  C   LIG A   1      -5.352  -3.279 124.682  0.00  0.00    +0.011 C 
ATOM      5  C   LIG A   1      -7.464  -2.683 126.017  0.00  0.00    +0.152 C 
ATOM      6  O   LIG A   1      -8.722  -2.047 125.684  0.00  0.00    -0.364 OA
ATOM      7  C   LIG A   1      -8.627  -1.428 124.373  0.00  0.00    +0.152 C 
ENDROOT
BRANCH   5   8
ATOM      8  C   LIG A   1      -7.085  -2.332 127.443  0.00  0.00    -0.011 A 
ATOM      9  C   LIG A   1      -6.165  -1.280 127.680  0.00  0.00    +0.056 A 
ATOM     10  C   LIG A   1      -5.767  -0.910 128.978  0.00  0.00    +0.166 A 
ATOM     11  C   LIG A   1      -6.333  -1.597 130.038  0.00  0.00    +0.207 A 
ATOM     12  O   LIG A   1      -6.139  -1.392 131.371  0.00  0.00    -0.449 OA
ATOM     13  C   LIG A   1      -6.993  -2.397 131.947  0.00  0.00    +0.467 C 
ATOM     14  O   LIG A   1      -7.697  -3.177 130.971  0.00  0.00    -0.453 OA
ATOM     15  C   LIG A   1      -7.232  -2.616 129.815  0.00  0.00    +0.170 A 
ATOM     16  C   LIG A   1      -7.621  -3.005 128.552  0.00  0.00    +0.056 A 
BRANCH  10  17
ATOM     17  O   LIG A   1      -4.878   0.123 129.055  0.00  0.00    -0.491 OA
ATOM     18  C   LIG A   1      -5.440   1.429 128.961  0.00  0.00    +0.277 C 
ENDBRANCH  10  17
ENDBRANCH   5   8
BRANCH   7  19
ATOM     19  C   LIG A   1      -8.596   0.089 124.517  0.00  0.00    -0.011 A 
ATOM     20  C   LIG A   1      -8.366   0.709 125.760  0.00  0.00    +0.056 A 
ATOM     21  C   LIG A   1      -8.373   2.089 125.829  0.00  0.00    +0.170 A 
ATOM     22  O   LIG A   1      -8.153   2.813 126.963  0.00  0.00    -0.453 OA
ATOM     23  C   LIG A   1      -8.251   4.153 126.456  0.00  0.00    +0.467 C 
ATOM     24  O   LIG A   1      -8.528   4.205 125.042  0.00  0.00    -0.449 OA
ATOM     25  C   LIG A   1      -8.607   2.884 124.730  0.00  0.00    +0.207 A 
ATOM     26  C   LIG A   1      -8.878   2.324 123.496  0.00  0.00    +0.166 A 
ATOM     27  C   LIG A   1      -8.880   0.925 123.409  0.00  0.00    +0.056 A 
BRANCH  26  28
ATOM     28  O   LIG A   1      -9.118   2.986 122.327  0.00  0.00    -0.491 OA
ATOM     29  C   LIG A   1      -7.966   3.436 121.624  0.00  0.00    +0.277 C 
ENDBRANCH  26  28
ENDBRANCH   7  19
TORSDOF 4
ENDMDL
MODEL 5
REMARK VINA RESULT:      -7.5      6.175      9.045
REMARK  Name = NuBBE_85
REMARK  8 active torsions:
REMARK  status: ('A' for Active; 'I' for Inactive)
REMARK    1  A    between atoms: C_1  and  C_2
REMARK    2  A    between atoms: C_4  and  C_6
REMARK    3  A    between atoms: C_7  and  C_9
REMARK    4  A    between atoms: C_11  and  O_12
REMARK    5  A    between atoms: O_12  and  C_13
REMARK    6  A    between atoms: C_21  and  C_23
REMARK    7  A    between atoms: C_30  and  O_31
REMARK    8  A    between atoms: O_31  and  C_32
REMARK                            x       y       z     vdW  Elec       q    Type
REMARK                         _______ _______ _______ _____ _____    ______ ____
ROOT
ATOM      1  C   LIG A   1      -6.149  -1.787 122.178  0.00  0.00    +0.011 C 
ATOM      2  C   LIG A   1      -6.956  -2.078 123.433  0.00  0.00    +0.025 C 
ATOM      3  C   LIG A   1      -6.115  -2.574 124.600  0.00  0.00    +0.025 C 
ATOM      4  C   LIG A   1      -5.476  -3.939 124.377  0.00  0.00    +0.011 C 
ATOM      5  C   LIG A   1      -7.140  -2.538 125.742  0.00  0.00    +0.152 C 
ATOM      6  O   LIG A   1      -8.050  -1.457 125.423  0.00  0.00    -0.364 OA
ATOM      7  C   LIG A   1      -7.752  -0.941 124.097  0.00  0.00    +0.152 C 
ENDROOT
BRANCH   5   8
ATOM      8  C   LIG A   1      -6.615  -2.352 127.153  0.00  0.00    -0.011 A 
ATOM      9  C   LIG A   1      -7.512  -1.981 128.187  0.00  0.00    +0.056 A 
ATOM     10  C   LIG A   1      -7.087  -1.785 129.514  0.00  0.00    +0.166 A 
ATOM     11  C   LIG A   1      -5.748  -1.996 129.791  0.00  0.00    +0.207 A 
ATOM     12  O   LIG A   1      -5.118  -1.911 130.996  0.00  0.00    -0.449 OA
ATOM     13  C   LIG A   1      -3.763  -2.243 130.639  0.00  0.00    +0.467 C 
ATOM     14  O   LIG A   1      -3.595  -2.536 129.246  0.00  0.00    -0.453 OA
ATOM     15  C   LIG A   1      -4.873  -2.361 128.794  0.00  0.00    +0.170 A 
ATOM     16  C   LIG A   1      -5.265  -2.541 127.486  0.00  0.00    +0.056 A 
BRANCH  10  17
ATOM     17  O   LIG A   1      -8.062  -1.434 130.403  0.00  0.00    -0.491 OA
ATOM     18  C   LIG A   1      -8.207  -0.036 130.639  0.00  0.00    +0.277 C 
ENDBRANCH  10  17
ENDBRANCH   5   8
BRANCH   7  19
ATOM     19  C   LIG A   1      -7.117   0.440 124.210  0.00  0.00    -0.011 A 
ATOM     20  C   LIG A   1      -6.385   0.827 125.349  0.00  0.00    +0.056 A 
ATOM     21  C   LIG A   1      -5.853   2.100 125.400  0.00  0.00    +0.170 A 
ATOM     22  O   LIG A   1      -5.117   2.596 126.435  0.00  0.00    -0.453 OA
ATOM     23  C   LIG A   1      -4.816   3.915 125.950  0.00  0.00    +0.467 C 
ATOM     24  O   LIG A   1      -5.376   4.181 124.649  0.00  0.00    -0.449 OA
ATOM     25  C   LIG A   1      -6.019   3.013 124.383  0.00  0.00    +0.207 A 
ATOM     26  C   LIG A   1      -6.763   2.697 123.262  0.00  0.00    +0.166 A 
ATOM     27  C   LIG A   1      -7.314   1.410 123.196  0.00  0.00    +0.056 A 
BRANCH  26  28
ATOM     28  O   LIG A   1      -7.001   3.494 122.181  0.00  0.00    -0.491 OA
ATOM     29  C   LIG A   1      -5.949   3.570 121.224  0.00  0.00    +0.277 C 
ENDBRANCH  26  28
ENDBRANCH   7  19
TORSDOF 4
ENDMDL
MODEL 6
REMARK VINA RESULT:      -7.5      5.874      8.300
REMARK  Name = NuBBE_85
REMARK  8 active torsions:
REMARK  status: ('A' for Active; 'I' for Inactive)
REMARK    1  A    between atoms: C_1  and  C_2
REMARK    2  A    between atoms: C_4  and  C_6
REMARK    3  A    between atoms: C_7  and  C_9
REMARK    4  A    between atoms: C_11  and  O_12
REMARK    5  A    between atoms: O_12  and  C_13
REMARK    6  A    between atoms: C_21  and  C_23
REMARK    7  A    between atoms: C_30  and  O_31
REMARK    8  A    between atoms: O_31  and  C_32
REMARK                            x       y       z     vdW  Elec       q    Type
REMARK                         _______ _______ _______ _____ _____    ______ ____
ROOT
ATOM      1  C   LIG A   1      -5.429   0.857 129.047  0.00  0.00    +0.011 C 
ATOM      2  C   LIG A   1      -6.263   1.883 128.297  0.00  0.00    +0.025 C 
ATOM      3  C   LIG A   1      -5.643   2.333 126.983  0.00  0.00    +0.025 C 
ATOM      4  C   LIG A   1      -4.344   3.114 127.138  0.00  0.00    +0.011 C 
ATOM      5  C   LIG A   1      -6.795   3.144 126.372  0.00  0.00    +0.152 C 
ATOM      6  O   LIG A   1      -8.013   2.530 126.862  0.00  0.00    -0.364 OA
ATOM      7  C   LIG A   1      -7.687   1.513 127.847  0.00  0.00    +0.152 C 
ENDROOT
BRANCH   5   8
ATOM      8  C   LIG A   1      -6.858   3.248 124.860  0.00  0.00    -0.011 A 
ATOM      9  C   LIG A   1      -8.036   2.843 124.183  0.00  0.00    +0.056 A 
ATOM     10  C   LIG A   1      -8.155   2.907 122.783  0.00  0.00    +0.166 A 
ATOM     11  C   LIG A   1      -7.079   3.413 122.074  0.00  0.00    +0.207 A 
ATOM     12  O   LIG A   1      -6.978   3.611 120.730  0.00  0.00    -0.449 OA
ATOM     13  C   LIG A   1      -5.650   4.157 120.616  0.00  0.00    +0.467 C 
ATOM     14  O   LIG A   1      -4.980   4.296 121.876  0.00  0.00    -0.453 OA
ATOM     15  C   LIG A   1      -5.935   3.814 122.726  0.00  0.00    +0.170 A 
ATOM     16  C   LIG A   1      -5.791   3.743 124.094  0.00  0.00    +0.056 A 
BRANCH  10  17
ATOM     17  O   LIG A   1      -9.348   2.487 122.269  0.00  0.00    -0.491 OA
ATOM     18  C   LIG A   1      -9.851   1.263 122.797  0.00  0.00    +0.277 C 
ENDBRANCH  10  17
ENDBRANCH   5   8
BRANCH   7  19
ATOM     19  C   LIG A   1      -7.944   0.127 127.266  0.00  0.00    -0.011 A 
ATOM     20  C   LIG A   1      -8.503  -0.046 125.986  0.00  0.00    +0.056 A 
ATOM     21  C   LIG A   1      -8.731  -1.328 125.525  0.00  0.00    +0.170 A 
ATOM     22  O   LIG A   1      -9.254  -1.635 124.304  0.00  0.00    -0.453 OA
ATOM     23  C   LIG A   1      -9.244  -3.070 124.355  0.00  0.00    +0.467 C 
ATOM     24  O   LIG A   1      -8.723  -3.590 125.594  0.00  0.00    -0.449 OA
ATOM     25  C   LIG A   1      -8.444  -2.446 126.274  0.00  0.00    +0.207 A 
ATOM     26  C   LIG A   1      -7.932  -2.330 127.553  0.00  0.00    +0.166 A 
ATOM     27  C   LIG A   1      -7.698  -1.035 128.038  0.00  0.00    +0.056 A 
BRANCH  26  28
ATOM     28  O   LIG A   1      -7.593  -3.344 128.399  0.00  0.00    -0.491 OA
ATOM     29  C   LIG A   1      -6.615  -3.028 129.384  0.00  0.00    +0.277 C 
ENDBRANCH  26  28
ENDBRANCH   7  19
TORSDOF 4
ENDMDL
MODEL 7
REMARK VINA RESULT:      -7.5      6.289      9.226
REMARK  Name = NuBBE_85
REMARK  8 active torsions:
REMARK  status: ('A' for Active; 'I' for Inactive)
REMARK    1  A    between atoms: C_1  and  C_2
REMARK    2  A    between atoms: C_4  and  C_6
REMARK    3  A    between atoms: C_7  and  C_9
REMARK    4  A    between atoms: C_11  and  O_12
REMARK    5  A    between atoms: O_12  and  C_13
REMARK    6  A    between atoms: C_21  and  C_23
REMARK    7  A    between atoms: C_30  and  O_31
REMARK    8  A    between atoms: O_31  and  C_32
REMARK                            x       y       z     vdW  Elec       q    Type
REMARK                         _______ _______ _______ _____ _____    ______ ____
ROOT
ATOM      1  C   LIG A   1      -7.674  -2.022 122.133  0.00  0.00    +0.011 C 
ATOM      2  C   LIG A   1      -8.508  -2.042 123.404  0.00  0.00    +0.025 C 
ATOM      3  C   LIG A   1      -7.718  -2.418 124.648  0.00  0.00    +0.025 C 
ATOM      4  C   LIG A   1      -7.198  -3.851 124.652  0.00  0.00    +0.011 C 
ATOM      5  C   LIG A   1      -8.741  -2.118 125.753  0.00  0.00    +0.152 C 
ATOM      6  O   LIG A   1      -9.553  -1.027 125.252  0.00  0.00    -0.364 OA
ATOM      7  C   LIG A   1      -9.206  -0.753 123.868  0.00  0.00    +0.152 C 
ENDROOT
BRANCH   5   8
ATOM      8  C   LIG A   1      -8.207  -1.758 127.126  0.00  0.00    -0.011 A 
ATOM      9  C   LIG A   1      -8.012  -2.781 128.088  0.00  0.00    +0.056 A 
ATOM     10  C   LIG A   1      -7.528  -2.512 129.381  0.00  0.00    +0.166 A 
ATOM     11  C   LIG A   1      -7.215  -1.198 129.684  0.00  0.00    +0.207 A 
ATOM     12  O   LIG A   1      -6.696  -0.705 130.842  0.00  0.00    -0.449 OA
ATOM     13  C   LIG A   1      -6.592   0.699 130.540  0.00  0.00    +0.467 C 
ATOM     14  O   LIG A   1      -7.028   1.031 129.215  0.00  0.00    -0.453 OA
ATOM     15  C   LIG A   1      -7.397  -0.201 128.753  0.00  0.00    +0.170 A 
ATOM     16  C   LIG A   1      -7.886  -0.440 127.487  0.00  0.00    +0.056 A 
BRANCH  10  17
ATOM     17  O   LIG A   1      -7.387  -3.596 130.200  0.00  0.00    -0.491 OA
ATOM     18  C   LIG A   1      -6.074  -4.145 130.274  0.00  0.00    +0.277 C 
ENDBRANCH  10  17
ENDBRANCH   5   8
BRANCH   7  19
ATOM     19  C   LIG A   1      -8.455   0.571 123.776  0.00  0.00    -0.011 A 
ATOM     20  C   LIG A   1      -7.338   0.845 124.587  0.00  0.00    +0.056 A 
ATOM     21  C   LIG A   1      -6.714   2.072 124.471  0.00  0.00    +0.170 A 
ATOM     22  O   LIG A   1      -5.619   2.460 125.186  0.00  0.00    -0.453 OA
ATOM     23  C   LIG A   1      -5.396   3.775 124.653  0.00  0.00    +0.467 C 
ATOM     24  O   LIG A   1      -6.354   4.147 123.642  0.00  0.00    -0.449 OA
ATOM     25  C   LIG A   1      -7.149   3.044 123.600  0.00  0.00    +0.207 A 
ATOM     26  C   LIG A   1      -8.265   2.840 122.810  0.00  0.00    +0.166 A 
ATOM     27  C   LIG A   1      -8.913   1.602 122.919  0.00  0.00    +0.056 A 
BRANCH  26  28
ATOM     28  O   LIG A   1      -8.799   3.705 121.901  0.00  0.00    -0.491 OA
ATOM     29  C   LIG A   1      -8.155   3.746 120.633  0.00  0.00    +0.277 C 
ENDBRANCH  26  28
ENDBRANCH   7  19
TORSDOF 4
ENDMDL
MODEL 8
REMARK VINA RESULT:      -7.5      5.828      8.343
REMARK  Name = NuBBE_85
REMARK  8 active torsions:
REMARK  status: ('A' for Active; 'I' for Inactive)
REMARK    1  A    between atoms: C_1  and  C_2
REMARK    2  A    between atoms: C_4  and  C_6
REMARK    3  A    between atoms: C_7  and  C_9
REMARK    4  A    between atoms: C_11  and  O_12
REMARK    5  A    between atoms: O_12  and  C_13
REMARK    6  A    between atoms: C_21  and  C_23
REMARK    7  A    between atoms: C_30  and  O_31
REMARK    8  A    between atoms: O_31  and  C_32
REMARK                            x       y       z     vdW  Elec       q    Type
REMARK                         _______ _______ _______ _____ _____    ______ ____
ROOT
ATOM      1  C   LIG A   1      -4.910  -3.375 129.232  0.00  0.00    +0.011 C 
ATOM      2  C   LIG A   1      -6.156  -2.826 129.906  0.00  0.00    +0.025 C 
ATOM      3  C   LIG A   1      -6.108  -1.325 130.150  0.00  0.00    +0.025 C 
ATOM      4  C   LIG A   1      -5.050  -0.885 131.155  0.00  0.00    +0.011 C 
ATOM      5  C   LIG A   1      -7.551  -1.050 130.596  0.00  0.00    +0.152 C 
ATOM      6  O   LIG A   1      -8.370  -2.028 129.909  0.00  0.00    -0.364 OA
ATOM      7  C   LIG A   1      -7.519  -2.975 129.209  0.00  0.00    +0.152 C 
ENDROOT
BRANCH   5   8
ATOM      8  C   LIG A   1      -8.112   0.338 130.347  0.00  0.00    -0.011 A 
ATOM      9  C   LIG A   1      -8.143   0.849 129.025  0.00  0.00    +0.056 A 
ATOM     10  C   LIG A   1      -8.643   2.130 128.728  0.00  0.00    +0.166 A 
ATOM     11  C   LIG A   1      -9.139   2.880 129.780  0.00  0.00    +0.207 A 
ATOM     12  O   LIG A   1      -9.709   4.116 129.734  0.00  0.00    -0.449 OA
ATOM     13  C   LIG A   1     -10.020   4.345 131.121  0.00  0.00    +0.467 C 
ATOM     14  O   LIG A   1      -9.655   3.253 131.976  0.00  0.00    -0.453 OA
ATOM     15  C   LIG A   1      -9.118   2.387 131.065  0.00  0.00    +0.170 A 
ATOM     16  C   LIG A   1      -8.617   1.143 131.379  0.00  0.00    +0.056 A 
BRANCH  10  17
ATOM     17  O   LIG A   1      -8.614   2.489 127.411  0.00  0.00    -0.491 OA
ATOM     18  C   LIG A   1      -8.568   1.411 126.479  0.00  0.00    +0.277 C 
ENDBRANCH  10  17
ENDBRANCH   5   8
BRANCH   7  19
ATOM     19  C   LIG A   1      -7.611  -2.741 127.705  0.00  0.00    -0.011 A 
ATOM     20  C   LIG A   1      -8.697  -3.216 126.948  0.00  0.00    +0.056 A 
ATOM     21  C   LIG A   1      -8.710  -2.991 125.585  0.00  0.00    +0.170 A 
ATOM     22  O   LIG A   1      -9.705  -3.386 124.740  0.00  0.00    -0.453 OA
ATOM     23  C   LIG A   1      -9.218  -2.879 123.488  0.00  0.00    +0.467 C 
ATOM     24  O   LIG A   1      -7.952  -2.200 123.605  0.00  0.00    -0.449 OA
ATOM     25  C   LIG A   1      -7.696  -2.328 124.934  0.00  0.00    +0.207 A 
ATOM     26  C   LIG A   1      -6.587  -1.876 125.626  0.00  0.00    +0.166 A 
ATOM     27  C   LIG A   1      -6.555  -2.101 127.009  0.00  0.00    +0.056 A 
BRANCH  26  28
ATOM     28  O   LIG A   1      -5.518  -1.200 125.116  0.00  0.00    -0.491 OA
ATOM     29  C   LIG A   1      -5.140  -0.021 125.817  0.00  0.00    +0.277 C 
ENDBRANCH  26  28
ENDBRANCH   7  19
TORSDOF 4
ENDMDL
MODEL 9
REMARK VINA RESULT:      -7.5      2.727      6.656
REMARK  Name = NuBBE_85
REMARK  8 active torsions:
REMARK  status: ('A' for Active; 'I' for Inactive)
REMARK    1  A    between atoms: C_1  and  C_2
REMARK    2  A    between atoms: C_4  and  C_6
REMARK    3  A    between atoms: C_7  and  C_9
REMARK    4  A    between atoms: C_11  and  O_12
REMARK    5  A    between atoms: O_12  and  C_13
REMARK    6  A    between atoms: C_21  and  C_23
REMARK    7  A    between atoms: C_30  and  O_31
REMARK    8  A    between atoms: O_31  and  C_32
REMARK                            x       y       z     vdW  Elec       q    Type
REMARK                         _______ _______ _______ _____ _____    ______ ____
ROOT
ATOM      1  C   LIG A   1      -7.343   2.577 132.106  0.00  0.00    +0.011 C 
ATOM      2  C   LIG A   1      -8.782   2.933 131.772  0.00  0.00    +0.025 C 
ATOM      3  C   LIG A   1      -9.072   4.425 131.830  0.00  0.00    +0.025 C 
ATOM      4  C   LIG A   1      -8.968   5.031 133.224  0.00  0.00    +0.011 C 
ATOM      5  C   LIG A   1     -10.482   4.478 131.225  0.00  0.00    +0.152 C 
ATOM      6  O   LIG A   1     -10.548   3.379 130.282  0.00  0.00    -0.364 OA
ATOM      7  C   LIG A   1      -9.347   2.569 130.388  0.00  0.00    +0.152 C 
ENDROOT
BRANCH   5   8
ATOM      8  C   LIG A   1     -10.902   5.760 130.531  0.00  0.00    -0.011 A 
ATOM      9  C   LIG A   1     -10.370   6.066 129.253  0.00  0.00    +0.056 A 
ATOM     10  C   LIG A   1     -10.713   7.242 128.560  0.00  0.00    +0.166 A 
ATOM     11  C   LIG A   1     -11.624   8.093 129.162  0.00  0.00    +0.207 A 
ATOM     12  O   LIG A   1     -12.136   9.256 128.671  0.00  0.00    -0.449 OA
ATOM     13  C   LIG A   1     -13.015   9.659 129.738  0.00  0.00    +0.467 C 
ATOM     14  O   LIG A   1     -13.036   8.740 130.838  0.00  0.00    -0.453 OA
ATOM     15  C   LIG A   1     -12.148   7.799 130.400  0.00  0.00    +0.170 A 
ATOM     16  C   LIG A   1     -11.812   6.662 131.102  0.00  0.00    +0.056 A 
BRANCH  10  17
ATOM     17  O   LIG A   1     -10.127   7.403 127.337  0.00  0.00    -0.491 OA
ATOM     18  C   LIG A   1     -11.022   7.541 126.237  0.00  0.00    +0.277 C 
ENDBRANCH  10  17
ENDBRANCH   5   8
BRANCH   7  19
ATOM     19  C   LIG A   1      -8.474   2.773 129.155  0.00  0.00    -0.011 A 
ATOM     20  C   LIG A   1      -7.564   3.843 129.062  0.00  0.00    +0.056 A 
ATOM     21  C   LIG A   1      -6.818   3.986 127.909  0.00  0.00    +0.170 A 
ATOM     22  O   LIG A   1      -5.895   4.968 127.695  0.00  0.00    -0.453 OA
ATOM     23  C   LIG A   1      -5.428   4.623 126.381  0.00  0.00    +0.467 C 
ATOM     24  O   LIG A   1      -6.075   3.455 125.838  0.00  0.00    -0.449 OA
ATOM     25  C   LIG A   1      -6.937   3.130 126.839  0.00  0.00    +0.207 A 
ATOM     26  C   LIG A   1      -7.845   2.088 126.863  0.00  0.00    +0.166 A 
ATOM     27  C   LIG A   1      -8.614   1.930 128.025  0.00  0.00    +0.056 A 
BRANCH  26  28
ATOM     28  O   LIG A   1      -8.061   1.162 125.886  0.00  0.00    -0.491 OA
ATOM     29  C   LIG A   1      -9.377   0.623 125.824  0.00  0.00    +0.277 C 
ENDBRANCH  26  28
ENDBRANCH   7  19
TORSDOF 4
ENDMDL
