MODEL 1
REMARK VINA RESULT:      -5.5      0.000      0.000
REMARK  Name = NuBBE_454
REMARK  18 active torsions:
REMARK  status: ('A' for Active; 'I' for Inactive)
REMARK    1  A    between atoms: C_1  and  C_2
REMARK    2  A    between atoms: C_4  and  O_6
REMARK    3  A    between atoms: O_6  and  C_7
REMARK    4  A    between atoms: C_7  and  C_8
REMARK    5  A    between atoms: C_12  and  C_14
REMARK    6  A    between atoms: C_14  and  C_15
REMARK    7  A    between atoms: C_15  and  C_16
REMARK    8  A    between atoms: C_16  and  C_17
REMARK    9  A    between atoms: C_17  and  C_18
REMARK   10  A    between atoms: C_18  and  C_19
REMARK   11  A    between atoms: C_19  and  C_20
REMARK   12  A    between atoms: C_20  and  C_21
REMARK   13  A    between atoms: C_21  and  C_22
REMARK   14  A    between atoms: C_22  and  C_23
REMARK   15  A    between atoms: C_23  and  C_24
REMARK   16  A    between atoms: C_24  and  O_25
REMARK   17  A    between atoms: C_24  and  C_26
REMARK   18  A    between atoms: C_26  and  O_27
REMARK                            x       y       z     vdW  Elec       q    Type
REMARK                         _______ _______ _______ _____ _____    ______ ____
ROOT
ATOM      1  C   LIG A   1      -9.241  -2.460 125.731  0.00  0.00    +0.002 C 
ENDROOT
BRANCH   1   2
ATOM      2  C   LIG A   1      -8.822  -3.598 124.795  0.00  0.00    +0.000 C 
BRANCH   2   3
ATOM      3  C   LIG A   1      -7.540  -3.289 124.009  0.00  0.00    -0.000 C 
BRANCH   3   4
ATOM      4  C   LIG A   1      -7.769  -2.199 122.962  0.00  0.00    -0.000 C 
BRANCH   4   5
ATOM      5  C   LIG A   1      -6.637  -1.156 122.930  0.00  0.00    -0.000 C 
BRANCH   5   6
ATOM      6  C   LIG A   1      -7.131   0.183 123.492  0.00  0.00    -0.000 C 
BRANCH   6   7
ATOM      7  C   LIG A   1      -8.661   0.328 123.559  0.00  0.00    +0.000 C 
BRANCH   7   8
ATOM      8  C   LIG A   1      -9.029   1.429 124.571  0.00  0.00    +0.003 C 
BRANCH   8   9
ATOM      9  C   LIG A   1      -7.836   2.264 125.059  0.00  0.00    +0.034 C 
BRANCH   9  10
ATOM     10  C   LIG A   1      -7.860   3.687 124.469  0.00  0.00    +0.140 C 
BRANCH  10  11
ATOM     11  O   LIG A   1      -8.834   4.496 125.145  0.00  0.00    -0.390 OA
ATOM     12  H   LIG A   1      -9.087   5.222 124.548  0.00  0.00    +0.210 HD
ENDBRANCH  10  11
BRANCH  10  13
ATOM     13  C   LIG A   1      -6.506   4.406 124.568  0.00  0.00    +0.187 C 
BRANCH  13  14
ATOM     14  O   LIG A   1      -6.703   5.746 125.021  0.00  0.00    -0.393 OA
ATOM     15  H   LIG A   1      -7.617   5.780 125.368  0.00  0.00    +0.209 HD
ENDBRANCH  13  14
ENDBRANCH  10  13
ENDBRANCH   9  10
ENDBRANCH   8   9
ENDBRANCH   7   8
ENDBRANCH   6   7
ENDBRANCH   5   6
ENDBRANCH   4   5
ENDBRANCH   3   4
ENDBRANCH   2   3
ENDBRANCH   1   2
BRANCH   1  16
ATOM     16  C   LIG A   1      -8.503  -2.543 127.074  0.00  0.00    +0.019 C 
BRANCH  16  22
ATOM     17  C   LIG A   1      -7.362  -3.181 130.143  0.00  0.00    +0.028 C 
ATOM     18  C   LIG A   1      -6.665  -1.922 129.605  0.00  0.00    +0.092 C 
ATOM     19  C   LIG A   1      -5.305  -2.162 128.874  0.00  0.00    +0.193 C 
ATOM     20  C   LIG A   1      -5.430  -2.250 127.352  0.00  0.00    +0.048 C 
ATOM     21  C   LIG A   1      -6.358  -1.173 126.808  0.00  0.00    +0.022 C 
ATOM     22  C   LIG A   1      -7.742  -1.262 127.448  0.00  0.00    +0.054 C 
ATOM     23  N   LIG A   1      -7.643  -1.068 128.907  0.00  0.00    -0.307 NA
ATOM     24  H   LIG A   1      -7.382  -0.095 129.074  0.00  0.00    +0.123 HD
BRANCH  19  25
ATOM     25  O   LIG A   1      -4.709  -3.395 129.322  0.00  0.00    -0.460 OA
BRANCH  25  26
ATOM     26  C   LIG A   1      -3.540  -3.268 130.016  0.00  0.00    +0.304 C 
ATOM     27  C   LIG A   1      -3.819  -3.437 131.486  0.00  0.00    +0.136 C 
ATOM     28  O   LIG A   1      -2.466  -2.970 129.545  0.00  0.00    -0.251 OA
ENDBRANCH  25  26
ENDBRANCH  19  25
ENDBRANCH  16  22
ENDBRANCH   1  16
TORSDOF 16
ENDMDL
MODEL 2
REMARK VINA RESULT:      -5.5      1.777      7.122
REMARK  Name = NuBBE_454
REMARK  18 active torsions:
REMARK  status: ('A' for Active; 'I' for Inactive)
REMARK    1  A    between atoms: C_1  and  C_2
REMARK    2  A    between atoms: C_4  and  O_6
REMARK    3  A    between atoms: O_6  and  C_7
REMARK    4  A    between atoms: C_7  and  C_8
REMARK    5  A    between atoms: C_12  and  C_14
REMARK    6  A    between atoms: C_14  and  C_15
REMARK    7  A    between atoms: C_15  and  C_16
REMARK    8  A    between atoms: C_16  and  C_17
REMARK    9  A    between atoms: C_17  and  C_18
REMARK   10  A    between atoms: C_18  and  C_19
REMARK   11  A    between atoms: C_19  and  C_20
REMARK   12  A    between atoms: C_20  and  C_21
REMARK   13  A    between atoms: C_21  and  C_22
REMARK   14  A    between atoms: C_22  and  C_23
REMARK   15  A    between atoms: C_23  and  C_24
REMARK   16  A    between atoms: C_24  and  O_25
REMARK   17  A    between atoms: C_24  and  C_26
REMARK   18  A    between atoms: C_26  and  O_27
REMARK                            x       y       z     vdW  Elec       q    Type
REMARK                         _______ _______ _______ _____ _____    ______ ____
ROOT
ATOM      1  C   LIG A   1      -9.016  -2.196 123.250  0.00  0.00    +0.002 C 
ENDROOT
BRANCH   1   2
ATOM      2  C   LIG A   1      -7.857  -2.993 123.859  0.00  0.00    +0.000 C 
BRANCH   2   3
ATOM      3  C   LIG A   1      -8.307  -3.969 124.954  0.00  0.00    -0.000 C 
BRANCH   3   4
ATOM      4  C   LIG A   1      -9.180  -3.277 126.001  0.00  0.00    -0.000 C 
BRANCH   4   5
ATOM      5  C   LIG A   1      -8.881  -3.752 127.435  0.00  0.00    -0.000 C 
BRANCH   5   6
ATOM      6  C   LIG A   1      -8.073  -2.689 128.190  0.00  0.00    -0.000 C 
BRANCH   6   7
ATOM      7  C   LIG A   1      -7.853  -2.988 129.683  0.00  0.00    +0.000 C 
BRANCH   7   8
ATOM      8  C   LIG A   1      -6.646  -3.930 129.845  0.00  0.00    +0.003 C 
BRANCH   8   9
ATOM      9  C   LIG A   1      -5.348  -3.229 130.276  0.00  0.00    +0.034 C 
BRANCH   9  10
ATOM     10  C   LIG A   1      -4.443  -2.919 129.069  0.00  0.00    +0.140 C 
BRANCH  10  11
ATOM     11  O   LIG A   1      -4.591  -1.550 128.666  0.00  0.00    -0.390 OA
ATOM     12  H   LIG A   1      -5.389  -1.195 129.096  0.00  0.00    +0.210 HD
ENDBRANCH  10  11
BRANCH  10  13
ATOM     13  C   LIG A   1      -2.952  -3.165 129.352  0.00  0.00    +0.187 C 
BRANCH  13  14
ATOM     14  O   LIG A   1      -2.516  -4.336 128.661  0.00  0.00    -0.393 OA
ATOM     15  H   LIG A   1      -3.007  -4.346 127.815  0.00  0.00    +0.209 HD
ENDBRANCH  13  14
ENDBRANCH  10  13
ENDBRANCH   9  10
ENDBRANCH   8   9
ENDBRANCH   7   8
ENDBRANCH   6   7
ENDBRANCH   5   6
ENDBRANCH   4   5
ENDBRANCH   3   4
ENDBRANCH   2   3
ENDBRANCH   1   2
BRANCH   1  16
ATOM     16  C   LIG A   1      -8.632  -0.725 123.042  0.00  0.00    +0.019 C 
BRANCH  16  22
ATOM     17  C   LIG A   1      -6.274   0.271 125.181  0.00  0.00    +0.028 C 
ATOM     18  C   LIG A   1      -7.500   1.184 125.332  0.00  0.00    +0.092 C 
ATOM     19  C   LIG A   1      -7.488   2.482 124.462  0.00  0.00    +0.193 C 
ATOM     20  C   LIG A   1      -8.256   2.350 123.146  0.00  0.00    +0.048 C 
ATOM     21  C   LIG A   1      -9.583   1.631 123.347  0.00  0.00    +0.022 C 
ATOM     22  C   LIG A   1      -9.375   0.251 123.968  0.00  0.00    +0.054 C 
ATOM     23  N   LIG A   1      -8.733   0.377 125.289  0.00  0.00    -0.307 NA
ATOM     24  H   LIG A   1      -9.408   0.807 125.923  0.00  0.00    +0.123 HD
BRANCH  19  25
ATOM     25  O   LIG A   1      -6.135   2.847 124.128  0.00  0.00    -0.460 OA
BRANCH  25  26
ATOM     26  C   LIG A   1      -5.920   4.176 123.902  0.00  0.00    +0.304 C 
ATOM     27  C   LIG A   1      -6.341   4.957 125.119  0.00  0.00    +0.136 C 
ATOM     28  O   LIG A   1      -5.545   4.666 122.861  0.00  0.00    -0.251 OA
ENDBRANCH  25  26
ENDBRANCH  19  25
ENDBRANCH  16  22
ENDBRANCH   1  16
TORSDOF 16
ENDMDL
MODEL 3
REMARK VINA RESULT:      -5.5      2.271      6.467
REMARK  Name = NuBBE_454
REMARK  18 active torsions:
REMARK  status: ('A' for Active; 'I' for Inactive)
REMARK    1  A    between atoms: C_1  and  C_2
REMARK    2  A    between atoms: C_4  and  O_6
REMARK    3  A    between atoms: O_6  and  C_7
REMARK    4  A    between atoms: C_7  and  C_8
REMARK    5  A    between atoms: C_12  and  C_14
REMARK    6  A    between atoms: C_14  and  C_15
REMARK    7  A    between atoms: C_15  and  C_16
REMARK    8  A    between atoms: C_16  and  C_17
REMARK    9  A    between atoms: C_17  and  C_18
REMARK   10  A    between atoms: C_18  and  C_19
REMARK   11  A    between atoms: C_19  and  C_20
REMARK   12  A    between atoms: C_20  and  C_21
REMARK   13  A    between atoms: C_21  and  C_22
REMARK   14  A    between atoms: C_22  and  C_23
REMARK   15  A    between atoms: C_23  and  C_24
REMARK   16  A    between atoms: C_24  and  O_25
REMARK   17  A    between atoms: C_24  and  C_26
REMARK   18  A    between atoms: C_26  and  O_27
REMARK                            x       y       z     vdW  Elec       q    Type
REMARK                         _______ _______ _______ _____ _____    ______ ____
ROOT
ATOM      1  C   LIG A   1      -8.806  -2.205 122.943  0.00  0.00    +0.002 C 
ENDROOT
BRANCH   1   2
ATOM      2  C   LIG A   1      -9.453  -3.184 123.928  0.00  0.00    +0.000 C 
BRANCH   2   3
ATOM      3  C   LIG A   1      -8.532  -3.561 125.096  0.00  0.00    -0.000 C 
BRANCH   3   4
ATOM      4  C   LIG A   1      -9.071  -3.043 126.429  0.00  0.00    -0.000 C 
BRANCH   4   5
ATOM      5  C   LIG A   1      -8.909  -4.059 127.574  0.00  0.00    -0.000 C 
BRANCH   5   6
ATOM      6  C   LIG A   1      -8.611  -3.333 128.892  0.00  0.00    -0.000 C 
BRANCH   6   7
ATOM      7  C   LIG A   1      -7.119  -3.256 129.262  0.00  0.00    +0.000 C 
BRANCH   7   8
ATOM      8  C   LIG A   1      -6.856  -1.970 130.067  0.00  0.00    +0.003 C 
BRANCH   8   9
ATOM      9  C   LIG A   1      -6.829  -0.688 129.221  0.00  0.00    +0.034 C 
BRANCH   9  10
ATOM     10  C   LIG A   1      -5.387  -0.219 128.949  0.00  0.00    +0.140 C 
BRANCH  10  11
ATOM     11  O   LIG A   1      -4.792  -1.000 127.902  0.00  0.00    -0.390 OA
ATOM     12  H   LIG A   1      -4.024  -1.466 128.275  0.00  0.00    +0.210 HD
ENDBRANCH  10  11
BRANCH  10  13
ATOM     13  C   LIG A   1      -5.299   1.259 128.537  0.00  0.00    +0.187 C 
BRANCH  13  14
ATOM     14  O   LIG A   1      -4.406   1.400 127.431  0.00  0.00    -0.393 OA
ATOM     15  H   LIG A   1      -4.122   2.336 127.433  0.00  0.00    +0.209 HD
ENDBRANCH  13  14
ENDBRANCH  10  13
ENDBRANCH   9  10
ENDBRANCH   8   9
ENDBRANCH   7   8
ENDBRANCH   6   7
ENDBRANCH   5   6
ENDBRANCH   4   5
ENDBRANCH   3   4
ENDBRANCH   2   3
ENDBRANCH   1   2
BRANCH   1  16
ATOM     16  C   LIG A   1      -8.717  -0.793 123.538  0.00  0.00    +0.019 C 
BRANCH  16  22
ATOM     17  C   LIG A   1      -8.819   2.464 122.823  0.00  0.00    +0.028 C 
ATOM     18  C   LIG A   1      -7.505   2.157 123.558  0.00  0.00    +0.092 C 
ATOM     19  C   LIG A   1      -7.542   2.331 125.111  0.00  0.00    +0.193 C 
ATOM     20  C   LIG A   1      -7.799   1.029 125.871  0.00  0.00    +0.048 C 
ATOM     21  C   LIG A   1      -6.984  -0.121 125.296  0.00  0.00    +0.022 C 
ATOM     22  C   LIG A   1      -7.281  -0.320 123.811  0.00  0.00    +0.054 C 
ATOM     23  N   LIG A   1      -6.932   0.896 123.053  0.00  0.00    -0.307 NA
ATOM     24  H   LIG A   1      -5.915   0.989 123.066  0.00  0.00    +0.123 HD
BRANCH  19  25
ATOM     25  O   LIG A   1      -8.585   3.253 125.485  0.00  0.00    -0.460 OA
BRANCH  25  26
ATOM     26  C   LIG A   1      -8.166   4.494 125.867  0.00  0.00    +0.304 C 
ATOM     27  C   LIG A   1      -6.737   4.410 126.336  0.00  0.00    +0.136 C 
ATOM     28  O   LIG A   1      -8.853   5.489 125.918  0.00  0.00    -0.251 OA
ENDBRANCH  25  26
ENDBRANCH  19  25
ENDBRANCH  16  22
ENDBRANCH   1  16
TORSDOF 16
ENDMDL
MODEL 4
REMARK VINA RESULT:      -5.4      3.178      6.075
REMARK  Name = NuBBE_454
REMARK  18 active torsions:
REMARK  status: ('A' for Active; 'I' for Inactive)
REMARK    1  A    between atoms: C_1  and  C_2
REMARK    2  A    between atoms: C_4  and  O_6
REMARK    3  A    between atoms: O_6  and  C_7
REMARK    4  A    between atoms: C_7  and  C_8
REMARK    5  A    between atoms: C_12  and  C_14
REMARK    6  A    between atoms: C_14  and  C_15
REMARK    7  A    between atoms: C_15  and  C_16
REMARK    8  A    between atoms: C_16  and  C_17
REMARK    9  A    between atoms: C_17  and  C_18
REMARK   10  A    between atoms: C_18  and  C_19
REMARK   11  A    between atoms: C_19  and  C_20
REMARK   12  A    between atoms: C_20  and  C_21
REMARK   13  A    between atoms: C_21  and  C_22
REMARK   14  A    between atoms: C_22  and  C_23
REMARK   15  A    between atoms: C_23  and  C_24
REMARK   16  A    between atoms: C_24  and  O_25
REMARK   17  A    between atoms: C_24  and  C_26
REMARK   18  A    between atoms: C_26  and  O_27
REMARK                            x       y       z     vdW  Elec       q    Type
REMARK                         _______ _______ _______ _____ _____    ______ ____
ROOT
ATOM      1  C   LIG A   1      -9.015  -3.163 126.141  0.00  0.00    +0.002 C 
ENDROOT
BRANCH   1   2
ATOM      2  C   LIG A   1      -8.057  -2.992 127.324  0.00  0.00    +0.000 C 
BRANCH   2   3
ATOM      3  C   LIG A   1      -8.616  -3.556 128.638  0.00  0.00    -0.000 C 
BRANCH   3   4
ATOM      4  C   LIG A   1      -7.621  -3.398 129.787  0.00  0.00    -0.000 C 
BRANCH   4   5
ATOM      5  C   LIG A   1      -6.562  -2.315 129.515  0.00  0.00    -0.000 C 
BRANCH   5   6
ATOM      6  C   LIG A   1      -6.812  -1.090 130.405  0.00  0.00    -0.000 C 
BRANCH   6   7
ATOM      7  C   LIG A   1      -7.840  -0.091 129.849  0.00  0.00    +0.000 C 
BRANCH   7   8
ATOM      8  C   LIG A   1      -7.422   0.340 128.430  0.00  0.00    +0.003 C 
BRANCH   8   9
ATOM      9  C   LIG A   1      -8.419   1.280 127.734  0.00  0.00    +0.034 C 
BRANCH   9  10
ATOM     10  C   LIG A   1      -7.870   2.715 127.635  0.00  0.00    +0.140 C 
BRANCH  10  11
ATOM     11  O   LIG A   1      -8.406   3.382 126.483  0.00  0.00    -0.390 OA
ATOM     12  H   LIG A   1      -8.992   2.758 126.020  0.00  0.00    +0.210 HD
ENDBRANCH  10  11
BRANCH  10  13
ATOM     13  C   LIG A   1      -8.197   3.574 128.867  0.00  0.00    +0.187 C 
BRANCH  13  14
ATOM     14  O   LIG A   1      -9.493   3.233 129.362  0.00  0.00    -0.393 OA
ATOM     15  H   LIG A   1      -9.364   2.447 129.931  0.00  0.00    +0.209 HD
ENDBRANCH  13  14
ENDBRANCH  10  13
ENDBRANCH   9  10
ENDBRANCH   8   9
ENDBRANCH   7   8
ENDBRANCH   6   7
ENDBRANCH   5   6
ENDBRANCH   4   5
ENDBRANCH   3   4
ENDBRANCH   2   3
ENDBRANCH   1   2
BRANCH   1  16
ATOM     16  C   LIG A   1      -9.226  -1.836 125.399  0.00  0.00    +0.019 C 
BRANCH  16  22
ATOM     17  C   LIG A   1      -9.987   1.218 124.294  0.00  0.00    +0.028 C 
ATOM     18  C   LIG A   1      -9.099   0.520 123.253  0.00  0.00    +0.092 C 
ATOM     19  C   LIG A   1      -7.564   0.776 123.393  0.00  0.00    +0.193 C 
ATOM     20  C   LIG A   1      -6.823  -0.319 124.163  0.00  0.00    +0.048 C 
ATOM     21  C   LIG A   1      -7.284  -1.706 123.738  0.00  0.00    +0.022 C 
ATOM     22  C   LIG A   1      -8.791  -1.868 123.926  0.00  0.00    +0.054 C 
ATOM     23  N   LIG A   1      -9.517  -0.886 123.100  0.00  0.00    -0.307 NA
ATOM     24  H   LIG A   1      -9.386  -1.145 122.121  0.00  0.00    +0.123 HD
BRANCH  19  25
ATOM     25  O   LIG A   1      -7.326   2.017 124.087  0.00  0.00    -0.460 OA
BRANCH  25  26
ATOM     26  C   LIG A   1      -6.673   2.978 123.372  0.00  0.00    +0.304 C 
ATOM     27  C   LIG A   1      -5.717   3.705 124.280  0.00  0.00    +0.136 C 
ATOM     28  O   LIG A   1      -6.889   3.272 122.218  0.00  0.00    -0.251 OA
ENDBRANCH  25  26
ENDBRANCH  19  25
ENDBRANCH  16  22
ENDBRANCH   1  16
TORSDOF 16
ENDMDL
MODEL 5
REMARK VINA RESULT:      -5.3      1.886      2.927
REMARK  Name = NuBBE_454
REMARK  18 active torsions:
REMARK  status: ('A' for Active; 'I' for Inactive)
REMARK    1  A    between atoms: C_1  and  C_2
REMARK    2  A    between atoms: C_4  and  O_6
REMARK    3  A    between atoms: O_6  and  C_7
REMARK    4  A    between atoms: C_7  and  C_8
REMARK    5  A    between atoms: C_12  and  C_14
REMARK    6  A    between atoms: C_14  and  C_15
REMARK    7  A    between atoms: C_15  and  C_16
REMARK    8  A    between atoms: C_16  and  C_17
REMARK    9  A    between atoms: C_17  and  C_18
REMARK   10  A    between atoms: C_18  and  C_19
REMARK   11  A    between atoms: C_19  and  C_20
REMARK   12  A    between atoms: C_20  and  C_21
REMARK   13  A    between atoms: C_21  and  C_22
REMARK   14  A    between atoms: C_22  and  C_23
REMARK   15  A    between atoms: C_23  and  C_24
REMARK   16  A    between atoms: C_24  and  O_25
REMARK   17  A    between atoms: C_24  and  C_26
REMARK   18  A    between atoms: C_26  and  O_27
REMARK                            x       y       z     vdW  Elec       q    Type
REMARK                         _______ _______ _______ _____ _____    ______ ____
ROOT
ATOM      1  C   LIG A   1      -8.625  -3.453 128.660  0.00  0.00    +0.002 C 
ENDROOT
BRANCH   1   2
ATOM      2  C   LIG A   1      -8.229  -2.860 127.304  0.00  0.00    +0.000 C 
BRANCH   2   3
ATOM      3  C   LIG A   1      -9.269  -3.121 126.206  0.00  0.00    -0.000 C 
BRANCH   3   4
ATOM      4  C   LIG A   1      -8.619  -3.653 124.929  0.00  0.00    -0.000 C 
BRANCH   4   5
ATOM      5  C   LIG A   1      -9.438  -3.337 123.665  0.00  0.00    -0.000 C 
BRANCH   5   6
ATOM      6  C   LIG A   1      -8.665  -2.371 122.758  0.00  0.00    -0.000 C 
BRANCH   6   7
ATOM      7  C   LIG A   1      -8.988  -0.883 122.978  0.00  0.00    +0.000 C 
BRANCH   7   8
ATOM      8  C   LIG A   1      -7.779  -0.187 123.629  0.00  0.00    +0.003 C 
BRANCH   8   9
ATOM      9  C   LIG A   1      -8.147   0.876 124.676  0.00  0.00    +0.034 C 
BRANCH   9  10
ATOM     10  C   LIG A   1      -8.877   2.072 124.036  0.00  0.00    +0.140 C 
BRANCH  10  11
ATOM     11  O   LIG A   1     -10.247   2.114 124.462  0.00  0.00    -0.390 OA
ATOM     12  H   LIG A   1     -10.639   1.238 124.297  0.00  0.00    +0.210 HD
ENDBRANCH  10  11
BRANCH  10  13
ATOM     13  C   LIG A   1      -8.238   3.426 124.382  0.00  0.00    +0.187 C 
BRANCH  13  14
ATOM     14  O   LIG A   1      -9.027   4.094 125.369  0.00  0.00    -0.393 OA
ATOM     15  H   LIG A   1      -8.675   3.804 126.234  0.00  0.00    +0.209 HD
ENDBRANCH  13  14
ENDBRANCH  10  13
ENDBRANCH   9  10
ENDBRANCH   8   9
ENDBRANCH   7   8
ENDBRANCH   6   7
ENDBRANCH   5   6
ENDBRANCH   4   5
ENDBRANCH   3   4
ENDBRANCH   2   3
ENDBRANCH   1   2
BRANCH   1  16
ATOM     16  C   LIG A   1      -7.390  -3.754 129.519  0.00  0.00    +0.019 C 
BRANCH  16  22
ATOM     17  C   LIG A   1      -7.150  -2.772 132.698  0.00  0.00    +0.028 C 
ATOM     18  C   LIG A   1      -5.969  -2.190 131.907  0.00  0.00    +0.092 C 
ATOM     19  C   LIG A   1      -4.665  -3.051 131.905  0.00  0.00    +0.193 C 
ATOM     20  C   LIG A   1      -4.521  -3.949 130.675  0.00  0.00    +0.048 C 
ATOM     21  C   LIG A   1      -4.893  -3.207 129.399  0.00  0.00    +0.022 C 
ATOM     22  C   LIG A   1      -6.316  -2.656 129.476  0.00  0.00    +0.054 C 
ATOM     23  N   LIG A   1      -6.435  -1.704 130.595  0.00  0.00    -0.307 NA
ATOM     24  H   LIG A   1      -5.888  -0.875 130.359  0.00  0.00    +0.123 HD
BRANCH  19  25
ATOM     25  O   LIG A   1      -4.633  -3.911 133.062  0.00  0.00    -0.460 OA
BRANCH  25  26
ATOM     26  C   LIG A   1      -3.402  -4.386 133.410  0.00  0.00    +0.304 C 
ATOM     27  C   LIG A   1      -3.524  -5.837 133.796  0.00  0.00    +0.136 C 
ATOM     28  O   LIG A   1      -2.388  -3.731 133.495  0.00  0.00    -0.251 OA
ENDBRANCH  25  26
ENDBRANCH  19  25
ENDBRANCH  16  22
ENDBRANCH   1  16
TORSDOF 16
ENDMDL
MODEL 6
REMARK VINA RESULT:      -5.3      1.849      2.816
REMARK  Name = NuBBE_454
REMARK  18 active torsions:
REMARK  status: ('A' for Active; 'I' for Inactive)
REMARK    1  A    between atoms: C_1  and  C_2
REMARK    2  A    between atoms: C_4  and  O_6
REMARK    3  A    between atoms: O_6  and  C_7
REMARK    4  A    between atoms: C_7  and  C_8
REMARK    5  A    between atoms: C_12  and  C_14
REMARK    6  A    between atoms: C_14  and  C_15
REMARK    7  A    between atoms: C_15  and  C_16
REMARK    8  A    between atoms: C_16  and  C_17
REMARK    9  A    between atoms: C_17  and  C_18
REMARK   10  A    between atoms: C_18  and  C_19
REMARK   11  A    between atoms: C_19  and  C_20
REMARK   12  A    between atoms: C_20  and  C_21
REMARK   13  A    between atoms: C_21  and  C_22
REMARK   14  A    between atoms: C_22  and  C_23
REMARK   15  A    between atoms: C_23  and  C_24
REMARK   16  A    between atoms: C_24  and  O_25
REMARK   17  A    between atoms: C_24  and  C_26
REMARK   18  A    between atoms: C_26  and  O_27
REMARK                            x       y       z     vdW  Elec       q    Type
REMARK                         _______ _______ _______ _____ _____    ______ ____
ROOT
ATOM      1  C   LIG A   1      -8.923  -3.772 127.984  0.00  0.00    +0.002 C 
ENDROOT
BRANCH   1   2
ATOM      2  C   LIG A   1      -8.477  -2.968 126.758  0.00  0.00    +0.000 C 
BRANCH   2   3
ATOM      3  C   LIG A   1      -9.540  -2.915 125.652  0.00  0.00    -0.000 C 
BRANCH   3   4
ATOM      4  C   LIG A   1      -8.943  -3.234 124.282  0.00  0.00    -0.000 C 
BRANCH   4   5
ATOM      5  C   LIG A   1      -7.471  -3.678 124.361  0.00  0.00    -0.000 C 
BRANCH   5   6
ATOM      6  C   LIG A   1      -6.572  -2.677 123.623  0.00  0.00    -0.000 C 
BRANCH   6   7
ATOM      7  C   LIG A   1      -5.719  -1.782 124.538  0.00  0.00    +0.000 C 
BRANCH   7   8
ATOM      8  C   LIG A   1      -6.465  -0.461 124.804  0.00  0.00    +0.003 C 
BRANCH   8   9
ATOM      9  C   LIG A   1      -7.282   0.056 123.610  0.00  0.00    +0.034 C 
BRANCH   9  10
ATOM     10  C   LIG A   1      -8.642   0.624 124.057  0.00  0.00    +0.140 C 
BRANCH  10  11
ATOM     11  O   LIG A   1      -8.765   0.570 125.487  0.00  0.00    -0.390 OA
ATOM     12  H   LIG A   1      -9.173  -0.282 125.721  0.00  0.00    +0.210 HD
ENDBRANCH  10  11
BRANCH  10  13
ATOM     13  C   LIG A   1      -8.861   2.082 123.623  0.00  0.00    +0.187 C 
BRANCH  13  14
ATOM     14  O   LIG A   1      -9.387   2.837 124.716  0.00  0.00    -0.393 OA
ATOM     15  H   LIG A   1      -9.846   2.192 125.291  0.00  0.00    +0.209 HD
ENDBRANCH  13  14
ENDBRANCH  10  13
ENDBRANCH   9  10
ENDBRANCH   8   9
ENDBRANCH   7   8
ENDBRANCH   6   7
ENDBRANCH   5   6
ENDBRANCH   4   5
ENDBRANCH   3   4
ENDBRANCH   2   3
ENDBRANCH   1   2
BRANCH   1  16
ATOM     16  C   LIG A   1      -8.009  -3.507 129.188  0.00  0.00    +0.019 C 
BRANCH  16  22
ATOM     17  C   LIG A   1      -7.404  -2.581 132.335  0.00  0.00    +0.028 C 
ATOM     18  C   LIG A   1      -6.453  -1.818 131.401  0.00  0.00    +0.092 C 
ATOM     19  C   LIG A   1      -5.062  -2.486 131.158  0.00  0.00    +0.193 C 
ATOM     20  C   LIG A   1      -4.994  -3.323 129.880  0.00  0.00    +0.048 C 
ATOM     21  C   LIG A   1      -5.661  -2.609 128.713  0.00  0.00    +0.022 C 
ATOM     22  C   LIG A   1      -7.115  -2.267 129.032  0.00  0.00    +0.054 C 
ATOM     23  N   LIG A   1      -7.184  -1.370 130.200  0.00  0.00    -0.307 NA
ATOM     24  H   LIG A   1      -6.799  -0.466 129.921  0.00  0.00    +0.123 HD
BRANCH  19  25
ATOM     25  O   LIG A   1      -4.731  -3.361 132.255  0.00  0.00    -0.460 OA
BRANCH  25  26
ATOM     26  C   LIG A   1      -3.455  -3.257 132.729  0.00  0.00    +0.304 C 
ATOM     27  C   LIG A   1      -3.064  -1.803 132.777  0.00  0.00    +0.136 C 
ATOM     28  O   LIG A   1      -2.715  -4.181 132.980  0.00  0.00    -0.251 OA
ENDBRANCH  25  26
ENDBRANCH  19  25
ENDBRANCH  16  22
ENDBRANCH   1  16
TORSDOF 16
ENDMDL
MODEL 7
REMARK VINA RESULT:      -5.3      2.277      3.131
REMARK  Name = NuBBE_454
REMARK  18 active torsions:
REMARK  status: ('A' for Active; 'I' for Inactive)
REMARK    1  A    between atoms: C_1  and  C_2
REMARK    2  A    between atoms: C_4  and  O_6
REMARK    3  A    between atoms: O_6  and  C_7
REMARK    4  A    between atoms: C_7  and  C_8
REMARK    5  A    between atoms: C_12  and  C_14
REMARK    6  A    between atoms: C_14  and  C_15
REMARK    7  A    between atoms: C_15  and  C_16
REMARK    8  A    between atoms: C_16  and  C_17
REMARK    9  A    between atoms: C_17  and  C_18
REMARK   10  A    between atoms: C_18  and  C_19
REMARK   11  A    between atoms: C_19  and  C_20
REMARK   12  A    between atoms: C_20  and  C_21
REMARK   13  A    between atoms: C_21  and  C_22
REMARK   14  A    between atoms: C_22  and  C_23
REMARK   15  A    between atoms: C_23  and  C_24
REMARK   16  A    between atoms: C_24  and  O_25
REMARK   17  A    between atoms: C_24  and  C_26
REMARK   18  A    between atoms: C_26  and  O_27
REMARK                            x       y       z     vdW  Elec       q    Type
REMARK                         _______ _______ _______ _____ _____    ______ ____
ROOT
ATOM      1  C   LIG A   1      -8.824  -3.679 127.264  0.00  0.00    +0.002 C 
ENDROOT
BRANCH   1   2
ATOM      2  C   LIG A   1      -9.148  -3.064 125.899  0.00  0.00    +0.000 C 
BRANCH   2   3
ATOM      3  C   LIG A   1      -8.580  -3.871 124.724  0.00  0.00    -0.000 C 
BRANCH   3   4
ATOM      4  C   LIG A   1      -7.553  -3.064 123.929  0.00  0.00    -0.000 C 
BRANCH   4   5
ATOM      5  C   LIG A   1      -6.126  -3.198 124.491  0.00  0.00    -0.000 C 
BRANCH   5   6
ATOM      6  C   LIG A   1      -5.444  -1.824 124.544  0.00  0.00    -0.000 C 
BRANCH   6   7
ATOM      7  C   LIG A   1      -5.953  -0.897 125.661  0.00  0.00    +0.000 C 
BRANCH   7   8
ATOM      8  C   LIG A   1      -6.567   0.370 125.036  0.00  0.00    +0.003 C 
BRANCH   8   9
ATOM      9  C   LIG A   1      -8.098   0.451 125.141  0.00  0.00    +0.034 C 
BRANCH   9  10
ATOM     10  C   LIG A   1      -8.754   0.598 123.755  0.00  0.00    +0.140 C 
BRANCH  10  11
ATOM     11  O   LIG A   1      -9.745  -0.421 123.556  0.00  0.00    -0.390 OA
ATOM     12  H   LIG A   1      -9.502  -1.188 124.104  0.00  0.00    +0.210 HD
ENDBRANCH  10  11
BRANCH  10  13
ATOM     13  C   LIG A   1      -9.436   1.960 123.551  0.00  0.00    +0.187 C 
BRANCH  13  14
ATOM     14  O   LIG A   1      -9.537   2.642 124.802  0.00  0.00    -0.393 OA
ATOM     15  H   LIG A   1     -10.483   2.612 125.048  0.00  0.00    +0.209 HD
ENDBRANCH  13  14
ENDBRANCH  10  13
ENDBRANCH   9  10
ENDBRANCH   8   9
ENDBRANCH   7   8
ENDBRANCH   6   7
ENDBRANCH   5   6
ENDBRANCH   4   5
ENDBRANCH   3   4
ENDBRANCH   2   3
ENDBRANCH   1   2
BRANCH   1  16
ATOM     16  C   LIG A   1      -7.755  -2.865 128.004  0.00  0.00    +0.019 C 
BRANCH  16  22
ATOM     17  C   LIG A   1      -4.520  -3.061 128.796  0.00  0.00    +0.028 C 
ATOM     18  C   LIG A   1      -5.338  -2.883 130.084  0.00  0.00    +0.092 C 
ATOM     19  C   LIG A   1      -5.532  -1.409 130.564  0.00  0.00    +0.193 C 
ATOM     20  C   LIG A   1      -6.857  -0.785 130.119  0.00  0.00    +0.048 C 
ATOM     21  C   LIG A   1      -8.015  -1.757 130.295  0.00  0.00    +0.022 C 
ATOM     22  C   LIG A   1      -7.769  -3.054 129.529  0.00  0.00    +0.054 C 
ATOM     23  N   LIG A   1      -6.551  -3.719 130.027  0.00  0.00    -0.307 NA
ATOM     24  H   LIG A   1      -6.744  -4.053 130.973  0.00  0.00    +0.123 HD
BRANCH  19  25
ATOM     25  O   LIG A   1      -4.477  -0.573 130.049  0.00  0.00    -0.460 OA
BRANCH  25  26
ATOM     26  C   LIG A   1      -4.208   0.552 130.773  0.00  0.00    +0.304 C 
ATOM     27  C   LIG A   1      -3.928   0.164 132.201  0.00  0.00    +0.136 C 
ATOM     28  O   LIG A   1      -4.278   1.690 130.366  0.00  0.00    -0.251 OA
ENDBRANCH  25  26
ENDBRANCH  19  25
ENDBRANCH  16  22
ENDBRANCH   1  16
TORSDOF 16
ENDMDL
MODEL 8
REMARK VINA RESULT:      -5.3      2.303      8.549
REMARK  Name = NuBBE_454
REMARK  18 active torsions:
REMARK  status: ('A' for Active; 'I' for Inactive)
REMARK    1  A    between atoms: C_1  and  C_2
REMARK    2  A    between atoms: C_4  and  O_6
REMARK    3  A    between atoms: O_6  and  C_7
REMARK    4  A    between atoms: C_7  and  C_8
REMARK    5  A    between atoms: C_12  and  C_14
REMARK    6  A    between atoms: C_14  and  C_15
REMARK    7  A    between atoms: C_15  and  C_16
REMARK    8  A    between atoms: C_16  and  C_17
REMARK    9  A    between atoms: C_17  and  C_18
REMARK   10  A    between atoms: C_18  and  C_19
REMARK   11  A    between atoms: C_19  and  C_20
REMARK   12  A    between atoms: C_20  and  C_21
REMARK   13  A    between atoms: C_21  and  C_22
REMARK   14  A    between atoms: C_22  and  C_23
REMARK   15  A    between atoms: C_23  and  C_24
REMARK   16  A    between atoms: C_24  and  O_25
REMARK   17  A    between atoms: C_24  and  C_26
REMARK   18  A    between atoms: C_26  and  O_27
REMARK                            x       y       z     vdW  Elec       q    Type
REMARK                         _______ _______ _______ _____ _____    ______ ____
ROOT
ATOM      1  C   LIG A   1      -9.296  -3.047 126.344  0.00  0.00    +0.002 C 
ENDROOT
BRANCH   1   2
ATOM      2  C   LIG A   1      -8.858  -3.941 127.509  0.00  0.00    +0.000 C 
BRANCH   2   3
ATOM      3  C   LIG A   1      -8.430  -3.146 128.750  0.00  0.00    -0.000 C 
BRANCH   3   4
ATOM      4  C   LIG A   1      -7.310  -3.853 129.513  0.00  0.00    -0.000 C 
BRANCH   4   5
ATOM      5  C   LIG A   1      -6.041  -2.991 129.644  0.00  0.00    -0.000 C 
BRANCH   5   6
ATOM      6  C   LIG A   1      -4.912  -3.802 130.293  0.00  0.00    -0.000 C 
BRANCH   6   7
ATOM      7  C   LIG A   1      -5.377  -5.043 131.073  0.00  0.00    +0.000 C 
BRANCH   7   8
ATOM      8  C   LIG A   1      -5.446  -4.710 132.575  0.00  0.00    +0.003 C 
BRANCH   8   9
ATOM      9  C   LIG A   1      -4.521  -5.563 133.456  0.00  0.00    +0.034 C 
BRANCH   9  10
ATOM     10  C   LIG A   1      -3.309  -4.754 133.955  0.00  0.00    +0.140 C 
BRANCH  10  11
ATOM     11  O   LIG A   1      -2.136  -5.082 133.195  0.00  0.00    -0.390 OA
ATOM     12  H   LIG A   1      -2.136  -4.535 132.391  0.00  0.00    +0.210 HD
ENDBRANCH  10  11
BRANCH  10  13
ATOM     13  C   LIG A   1      -3.516  -3.234 133.860  0.00  0.00    +0.187 C 
BRANCH  13  14
ATOM     14  O   LIG A   1      -2.558  -2.671 132.963  0.00  0.00    -0.393 OA
ATOM     15  H   LIG A   1      -1.935  -2.163 133.520  0.00  0.00    +0.209 HD
ENDBRANCH  13  14
ENDBRANCH  10  13
ENDBRANCH   9  10
ENDBRANCH   8   9
ENDBRANCH   7   8
ENDBRANCH   6   7
ENDBRANCH   5   6
ENDBRANCH   4   5
ENDBRANCH   3   4
ENDBRANCH   2   3
ENDBRANCH   1   2
BRANCH   1  16
ATOM     16  C   LIG A   1      -8.118  -2.723 125.416  0.00  0.00    +0.019 C 
BRANCH  16  22
ATOM     17  C   LIG A   1      -9.456   0.331 125.521  0.00  0.00    +0.028 C 
ATOM     18  C   LIG A   1      -9.226  -0.061 124.054  0.00  0.00    +0.092 C 
ATOM     19  C   LIG A   1      -7.859   0.383 123.441  0.00  0.00    +0.193 C 
ATOM     20  C   LIG A   1      -6.785  -0.706 123.477  0.00  0.00    +0.048 C 
ATOM     21  C   LIG A   1      -7.351  -2.058 123.068  0.00  0.00    +0.022 C 
ATOM     22  C   LIG A   1      -8.525  -2.458 123.959  0.00  0.00    +0.054 C 
ATOM     23  N   LIG A   1      -9.612  -1.469 123.845  0.00  0.00    -0.307 NA
ATOM     24  H   LIG A   1     -10.008  -1.547 122.907  0.00  0.00    +0.123 HD
BRANCH  19  25
ATOM     25  O   LIG A   1      -7.336   1.518 124.158  0.00  0.00    -0.460 OA
BRANCH  25  26
ATOM     26  C   LIG A   1      -7.610   2.739 123.613  0.00  0.00    +0.304 C 
ATOM     27  C   LIG A   1      -6.518   3.101 122.641  0.00  0.00    +0.136 C 
ATOM     28  O   LIG A   1      -8.526   3.465 123.925  0.00  0.00    -0.251 OA
ENDBRANCH  25  26
ENDBRANCH  19  25
ENDBRANCH  16  22
ENDBRANCH   1  16
TORSDOF 16
ENDMDL
MODEL 9
REMARK VINA RESULT:      -5.3      3.030      4.511
REMARK  Name = NuBBE_454
REMARK  18 active torsions:
REMARK  status: ('A' for Active; 'I' for Inactive)
REMARK    1  A    between atoms: C_1  and  C_2
REMARK    2  A    between atoms: C_4  and  O_6
REMARK    3  A    between atoms: O_6  and  C_7
REMARK    4  A    between atoms: C_7  and  C_8
REMARK    5  A    between atoms: C_12  and  C_14
REMARK    6  A    between atoms: C_14  and  C_15
REMARK    7  A    between atoms: C_15  and  C_16
REMARK    8  A    between atoms: C_16  and  C_17
REMARK    9  A    between atoms: C_17  and  C_18
REMARK   10  A    between atoms: C_18  and  C_19
REMARK   11  A    between atoms: C_19  and  C_20
REMARK   12  A    between atoms: C_20  and  C_21
REMARK   13  A    between atoms: C_21  and  C_22
REMARK   14  A    between atoms: C_22  and  C_23
REMARK   15  A    between atoms: C_23  and  C_24
REMARK   16  A    between atoms: C_24  and  O_25
REMARK   17  A    between atoms: C_24  and  C_26
REMARK   18  A    between atoms: C_26  and  O_27
REMARK                            x       y       z     vdW  Elec       q    Type
REMARK                         _______ _______ _______ _____ _____    ______ ____
ROOT
ATOM      1  C   LIG A   1      -8.913  -1.721 122.788  0.00  0.00    +0.002 C 
ENDROOT
BRANCH   1   2
ATOM      2  C   LIG A   1      -9.605  -0.356 122.855  0.00  0.00    +0.000 C 
BRANCH   2   3
ATOM      3  C   LIG A   1      -9.282   0.422 124.138  0.00  0.00    -0.000 C 
BRANCH   3   4
ATOM      4  C   LIG A   1      -9.586   1.912 123.986  0.00  0.00    -0.000 C 
BRANCH   4   5
ATOM      5  C   LIG A   1      -8.595   2.631 123.053  0.00  0.00    -0.000 C 
BRANCH   5   6
ATOM      6  C   LIG A   1      -7.582   3.440 123.873  0.00  0.00    -0.000 C 
BRANCH   6   7
ATOM      7  C   LIG A   1      -6.121   3.299 123.412  0.00  0.00    +0.000 C 
BRANCH   7   8
ATOM      8  C   LIG A   1      -6.086   3.027 121.897  0.00  0.00    +0.003 C 
BRANCH   8   9
ATOM      9  C   LIG A   1      -5.191   3.989 121.100  0.00  0.00    +0.034 C 
BRANCH   9  10
ATOM     10  C   LIG A   1      -6.015   4.863 120.136  0.00  0.00    +0.140 C 
BRANCH  10  11
ATOM     11  O   LIG A   1      -5.225   5.246 119.001  0.00  0.00    -0.390 OA
ATOM     12  H   LIG A   1      -5.794   5.752 118.396  0.00  0.00    +0.210 HD
ENDBRANCH  10  11
BRANCH  10  13
ATOM     13  C   LIG A   1      -7.277   4.160 119.611  0.00  0.00    +0.187 C 
BRANCH  13  14
ATOM     14  O   LIG A   1      -7.426   4.416 118.214  0.00  0.00    -0.393 OA
ATOM     15  H   LIG A   1      -6.521   4.411 117.843  0.00  0.00    +0.209 HD
ENDBRANCH  13  14
ENDBRANCH  10  13
ENDBRANCH   9  10
ENDBRANCH   8   9
ENDBRANCH   7   8
ENDBRANCH   6   7
ENDBRANCH   5   6
ENDBRANCH   4   5
ENDBRANCH   3   4
ENDBRANCH   2   3
ENDBRANCH   1   2
BRANCH   1  16
ATOM     16  C   LIG A   1      -7.486  -1.650 123.347  0.00  0.00    +0.019 C 
BRANCH  16  22
ATOM     17  C   LIG A   1      -5.706  -0.599 125.965  0.00  0.00    +0.028 C 
ATOM     18  C   LIG A   1      -5.954  -2.109 126.106  0.00  0.00    +0.092 C 
ATOM     19  C   LIG A   1      -7.222  -2.513 126.924  0.00  0.00    +0.193 C 
ATOM     20  C   LIG A   1      -8.449  -2.804 126.057  0.00  0.00    +0.048 C 
ATOM     21  C   LIG A   1      -8.082  -3.640 124.839  0.00  0.00    +0.022 C 
ATOM     22  C   LIG A   1      -7.005  -2.954 124.002  0.00  0.00    +0.054 C 
ATOM     23  N   LIG A   1      -5.779  -2.769 124.799  0.00  0.00    -0.307 NA
ATOM     24  H   LIG A   1      -5.375  -3.691 124.968  0.00  0.00    +0.123 HD
BRANCH  19  25
ATOM     25  O   LIG A   1      -7.588  -1.456 127.833  0.00  0.00    -0.460 OA
BRANCH  25  26
ATOM     26  C   LIG A   1      -7.589  -1.790 129.157  0.00  0.00    +0.304 C 
ATOM     27  C   LIG A   1      -7.150  -3.223 129.305  0.00  0.00    +0.136 C 
ATOM     28  O   LIG A   1      -7.973  -1.086 130.064  0.00  0.00    -0.251 OA
ENDBRANCH  25  26
ENDBRANCH  19  25
ENDBRANCH  16  22
ENDBRANCH   1  16
TORSDOF 16
ENDMDL
