MODEL 1
REMARK VINA RESULT:      -9.8      0.000      0.000
REMARK  Name = NuBBE_1110
REMARK  10 active torsions:
REMARK  status: ('A' for Active; 'I' for Inactive)
REMARK    1  A    between atoms: O_1  and  C_2
REMARK    2  A    between atoms: C_6  and  C_7
REMARK    3  A    between atoms: C_11  and  C_12
REMARK    4  A    between atoms: C_13  and  C_14
REMARK    5  A    between atoms: C_18  and  C_19
REMARK    6  A    between atoms: C_22  and  C_23
REMARK    7  A    between atoms: C_26  and  C_27
REMARK    8  A    between atoms: C_26  and  C_28
REMARK    9  A    between atoms: C_31  and  C_32
REMARK   10  A    between atoms: C_31  and  C_33
REMARK                            x       y       z     vdW  Elec       q    Type
REMARK                         _______ _______ _______ _____ _____    ______ ____
ROOT
ATOM      1  C   LIG A   1      -5.968  -2.121 134.402  0.00  0.00    +0.120 C 
ATOM      2  C   LIG A   1      -6.892  -3.298 134.090  0.00  0.00    +0.032 C 
ATOM      3  C   LIG A   1      -7.377  -3.287 132.658  0.00  0.00    +0.010 C 
ATOM      4  C   LIG A   1      -6.233  -3.137 131.598  0.00  0.00    -0.023 C 
ATOM      5  C   LIG A   1      -5.700  -4.580 131.447  0.00  0.00    +0.012 C 
ATOM      6  C   LIG A   1      -5.147  -2.107 132.212  0.00  0.00    +0.004 C 
ATOM      7  C   LIG A   1      -4.156  -1.519 131.181  0.00  0.00    +0.005 C 
ATOM      8  C   LIG A   1      -4.917  -0.864 130.066  0.00  0.00    +0.008 C 
ATOM      9  C   LIG A   1      -5.741  -1.873 129.221  0.00  0.00    -0.020 C 
ATOM     10  C   LIG A   1      -4.712  -2.912 128.654  0.00  0.00    +0.012 C 
ATOM     11  C   LIG A   1      -6.863  -2.562 130.142  0.00  0.00    -0.021 C 
ATOM     12  C   LIG A   1      -8.026  -1.578 130.497  0.00  0.00    +0.012 C 
ATOM     13  C   LIG A   1      -7.567  -3.640 129.252  0.00  0.00    +0.008 C 
ATOM     14  C   LIG A   1      -8.268  -3.070 127.983  0.00  0.00    +0.009 C 
ATOM     15  C   LIG A   1      -7.399  -2.183 127.088  0.00  0.00    +0.022 C 
ATOM     16  C   LIG A   1      -6.384  -1.104 127.974  0.00  0.00    -0.020 C 
ATOM     17  C   LIG A   1      -6.911   0.320 128.460  0.00  0.00    +0.012 C 
ATOM     18  C   LIG A   1      -5.263  -0.679 126.995  0.00  0.00    +0.008 C 
ATOM     19  C   LIG A   1      -5.898   0.030 125.846  0.00  0.00    +0.011 C 
ATOM     20  C   LIG A   1      -7.247  -0.592 125.483  0.00  0.00    -0.011 C 
ATOM     21  C   LIG A   1      -6.531  -1.734 124.359  0.00  0.00    +0.016 C 
ATOM     22  C   LIG A   1      -8.181  -1.763 125.735  0.00  0.00    -0.063 C 
ATOM     23  C   LIG A   1      -8.851  -1.349 124.553  0.00  0.00    -0.021 C 
ATOM     24  C   LIG A   1      -9.088   0.282 124.115  0.00  0.00    -0.017 C 
ATOM     25  C   LIG A   1      -9.676   0.452 122.728  0.00  0.00    +0.015 C 
ATOM     26  C   LIG A   1      -8.153   1.614 124.199  0.00  0.00    +0.015 C 
ATOM     27  C   LIG A   1      -9.886   0.462 125.369  0.00  0.00    +0.011 C 
ATOM     28  C   LIG A   1      -8.675   0.201 126.322  0.00  0.00    +0.012 C 
ATOM     29  C   LIG A   1      -4.456  -2.236 133.739  0.00  0.00    -0.006 C 
ATOM     30  C   LIG A   1      -3.340  -3.275 133.160  0.00  0.00    +0.014 C 
ATOM     31  C   LIG A   1      -4.052  -2.952 135.139  0.00  0.00    +0.014 C 
ENDROOT
BRANCH   1  32
ATOM     32  O   LIG A   1      -6.547  -0.822 134.126  0.00  0.00    -0.391 OA
ATOM     33  H   LIG A   1      -5.846  -0.154 134.072  0.00  0.00    +0.210 HD
ENDBRANCH   1  32
TORSDOF 1
ENDMDL
MODEL 2
REMARK VINA RESULT:      -9.3      2.330      7.979
REMARK  Name = NuBBE_1110
REMARK  10 active torsions:
REMARK  status: ('A' for Active; 'I' for Inactive)
REMARK    1  A    between atoms: O_1  and  C_2
REMARK    2  A    between atoms: C_6  and  C_7
REMARK    3  A    between atoms: C_11  and  C_12
REMARK    4  A    between atoms: C_13  and  C_14
REMARK    5  A    between atoms: C_18  and  C_19
REMARK    6  A    between atoms: C_22  and  C_23
REMARK    7  A    between atoms: C_26  and  C_27
REMARK    8  A    between atoms: C_26  and  C_28
REMARK    9  A    between atoms: C_31  and  C_32
REMARK   10  A    between atoms: C_31  and  C_33
REMARK                            x       y       z     vdW  Elec       q    Type
REMARK                         _______ _______ _______ _____ _____    ______ ____
ROOT
ATOM      1  C   LIG A   1      -8.164  -3.337 124.268  0.00  0.00    +0.120 C 
ATOM      2  C   LIG A   1      -9.389  -2.735 124.956  0.00  0.00    +0.032 C 
ATOM      3  C   LIG A   1      -9.185  -2.551 126.443  0.00  0.00    +0.010 C 
ATOM      4  C   LIG A   1      -7.865  -1.794 126.816  0.00  0.00    -0.023 C 
ATOM      5  C   LIG A   1      -8.252  -0.307 126.647  0.00  0.00    +0.012 C 
ATOM      6  C   LIG A   1      -6.724  -2.287 125.782  0.00  0.00    +0.004 C 
ATOM      7  C   LIG A   1      -5.274  -1.971 126.218  0.00  0.00    +0.005 C 
ATOM      8  C   LIG A   1      -5.019  -2.545 127.580  0.00  0.00    +0.008 C 
ATOM      9  C   LIG A   1      -5.871  -1.871 128.690  0.00  0.00    -0.020 C 
ATOM     10  C   LIG A   1      -5.508  -0.346 128.654  0.00  0.00    +0.012 C 
ATOM     11  C   LIG A   1      -7.432  -2.136 128.410  0.00  0.00    -0.021 C 
ATOM     12  C   LIG A   1      -7.843  -3.618 128.695  0.00  0.00    +0.012 C 
ATOM     13  C   LIG A   1      -8.219  -1.333 129.499  0.00  0.00    +0.008 C 
ATOM     14  C   LIG A   1      -7.912  -1.762 130.964  0.00  0.00    +0.009 C 
ATOM     15  C   LIG A   1      -6.431  -1.791 131.350  0.00  0.00    +0.022 C 
ATOM     16  C   LIG A   1      -5.416  -2.441 130.113  0.00  0.00    -0.020 C 
ATOM     17  C   LIG A   1      -5.164  -4.010 129.987  0.00  0.00    +0.012 C 
ATOM     18  C   LIG A   1      -3.985  -1.943 130.436  0.00  0.00    +0.008 C 
ATOM     19  C   LIG A   1      -3.597  -2.490 131.768  0.00  0.00    +0.011 C 
ATOM     20  C   LIG A   1      -4.791  -2.534 132.724  0.00  0.00    -0.011 C 
ATOM     21  C   LIG A   1      -4.499  -0.912 133.324  0.00  0.00    +0.016 C 
ATOM     22  C   LIG A   1      -6.236  -2.111 132.923  0.00  0.00    -0.063 C 
ATOM     23  C   LIG A   1      -6.028  -2.424 134.294  0.00  0.00    -0.021 C 
ATOM     24  C   LIG A   1      -5.094  -3.742 134.839  0.00  0.00    -0.017 C 
ATOM     25  C   LIG A   1      -4.890  -3.753 136.341  0.00  0.00    +0.015 C 
ATOM     26  C   LIG A   1      -3.684  -4.397 134.349  0.00  0.00    +0.015 C 
ATOM     27  C   LIG A   1      -6.048  -4.658 134.137  0.00  0.00    +0.011 C 
ATOM     28  C   LIG A   1      -5.688  -4.137 132.708  0.00  0.00    +0.012 C 
ATOM     29  C   LIG A   1      -6.883  -2.301 124.109  0.00  0.00    -0.006 C 
ATOM     30  C   LIG A   1      -6.453  -0.730 124.041  0.00  0.00    +0.014 C 
ATOM     31  C   LIG A   1      -7.539  -1.938 122.668  0.00  0.00    +0.014 C 
ENDROOT
BRANCH   1  32
ATOM     32  O   LIG A   1      -7.729  -4.601 124.828  0.00  0.00    -0.391 OA
ATOM     33  H   LIG A   1      -7.066  -5.007 124.249  0.00  0.00    +0.210 HD
ENDBRANCH   1  32
TORSDOF 1
ENDMDL
MODEL 3
REMARK VINA RESULT:      -9.2      1.443      2.676
REMARK  Name = NuBBE_1110
REMARK  10 active torsions:
REMARK  status: ('A' for Active; 'I' for Inactive)
REMARK    1  A    between atoms: O_1  and  C_2
REMARK    2  A    between atoms: C_6  and  C_7
REMARK    3  A    between atoms: C_11  and  C_12
REMARK    4  A    between atoms: C_13  and  C_14
REMARK    5  A    between atoms: C_18  and  C_19
REMARK    6  A    between atoms: C_22  and  C_23
REMARK    7  A    between atoms: C_26  and  C_27
REMARK    8  A    between atoms: C_26  and  C_28
REMARK    9  A    between atoms: C_31  and  C_32
REMARK   10  A    between atoms: C_31  and  C_33
REMARK                            x       y       z     vdW  Elec       q    Type
REMARK                         _______ _______ _______ _____ _____    ______ ____
ROOT
ATOM      1  C   LIG A   1      -3.546  -2.868 133.322  0.00  0.00    +0.120 C 
ATOM      2  C   LIG A   1      -4.473  -1.818 133.933  0.00  0.00    +0.032 C 
ATOM      3  C   LIG A   1      -5.299  -1.099 132.890  0.00  0.00    +0.010 C 
ATOM      4  C   LIG A   1      -6.057  -2.056 131.907  0.00  0.00    -0.023 C 
ATOM      5  C   LIG A   1      -7.326  -2.444 132.701  0.00  0.00    +0.012 C 
ATOM      6  C   LIG A   1      -5.075  -3.306 131.607  0.00  0.00    +0.004 C 
ATOM      7  C   LIG A   1      -5.461  -4.150 130.369  0.00  0.00    +0.005 C 
ATOM      8  C   LIG A   1      -5.555  -3.265 129.163  0.00  0.00    +0.008 C 
ATOM      9  C   LIG A   1      -6.713  -2.234 129.256  0.00  0.00    -0.020 C 
ATOM     10  C   LIG A   1      -8.028  -3.070 129.434  0.00  0.00    +0.012 C 
ATOM     11  C   LIG A   1      -6.451  -1.235 130.487  0.00  0.00    -0.021 C 
ATOM     12  C   LIG A   1      -5.290  -0.227 130.197  0.00  0.00    +0.012 C 
ATOM     13  C   LIG A   1      -7.710  -0.310 130.583  0.00  0.00    +0.008 C 
ATOM     14  C   LIG A   1      -7.976   0.550 129.311  0.00  0.00    +0.009 C 
ATOM     15  C   LIG A   1      -8.030  -0.220 127.990  0.00  0.00    +0.022 C 
ATOM     16  C   LIG A   1      -6.825  -1.451 127.866  0.00  0.00    -0.020 C 
ATOM     17  C   LIG A   1      -5.358  -1.124 127.335  0.00  0.00    +0.012 C 
ATOM     18  C   LIG A   1      -7.322  -2.419 126.765  0.00  0.00    +0.008 C 
ATOM     19  C   LIG A   1      -7.418  -1.655 125.488  0.00  0.00    +0.011 C 
ATOM     20  C   LIG A   1      -7.890  -0.220 125.729  0.00  0.00    -0.011 C 
ATOM     21  C   LIG A   1      -9.585  -0.646 125.581  0.00  0.00    +0.016 C 
ATOM     22  C   LIG A   1      -8.449   0.745 126.760  0.00  0.00    -0.063 C 
ATOM     23  C   LIG A   1      -8.782   1.571 125.653  0.00  0.00    -0.021 C 
ATOM     24  C   LIG A   1      -7.798   1.753 124.272  0.00  0.00    -0.017 C 
ATOM     25  C   LIG A   1      -8.459   2.553 123.167  0.00  0.00    +0.015 C 
ATOM     26  C   LIG A   1      -6.904   0.718 123.387  0.00  0.00    +0.015 C 
ATOM     27  C   LIG A   1      -6.727   2.311 125.156  0.00  0.00    +0.011 C 
ATOM     28  C   LIG A   1      -6.517   0.981 125.948  0.00  0.00    +0.012 C 
ATOM     29  C   LIG A   1      -4.312  -4.233 132.782  0.00  0.00    -0.006 C 
ATOM     30  C   LIG A   1      -5.650  -5.152 132.944  0.00  0.00    +0.014 C 
ATOM     31  C   LIG A   1      -4.021  -4.813 134.271  0.00  0.00    +0.014 C 
ENDROOT
BRANCH   1  32
ATOM     32  O   LIG A   1      -2.651  -2.353 132.306  0.00  0.00    -0.391 OA
ATOM     33  H   LIG A   1      -1.900  -2.955 132.193  0.00  0.00    +0.210 HD
ENDBRANCH   1  32
TORSDOF 1
ENDMDL
MODEL 4
REMARK VINA RESULT:      -9.2      5.216      9.183
REMARK  Name = NuBBE_1110
REMARK  10 active torsions:
REMARK  status: ('A' for Active; 'I' for Inactive)
REMARK    1  A    between atoms: O_1  and  C_2
REMARK    2  A    between atoms: C_6  and  C_7
REMARK    3  A    between atoms: C_11  and  C_12
REMARK    4  A    between atoms: C_13  and  C_14
REMARK    5  A    between atoms: C_18  and  C_19
REMARK    6  A    between atoms: C_22  and  C_23
REMARK    7  A    between atoms: C_26  and  C_27
REMARK    8  A    between atoms: C_26  and  C_28
REMARK    9  A    between atoms: C_31  and  C_32
REMARK   10  A    between atoms: C_31  and  C_33
REMARK                            x       y       z     vdW  Elec       q    Type
REMARK                         _______ _______ _______ _____ _____    ______ ____
ROOT
ATOM      1  C   LIG A   1      -8.597   2.442 124.527  0.00  0.00    +0.120 C 
ATOM      2  C   LIG A   1      -7.211   2.469 123.883  0.00  0.00    +0.032 C 
ATOM      3  C   LIG A   1      -6.138   2.933 124.842  0.00  0.00    +0.010 C 
ATOM      4  C   LIG A   1      -6.139   2.177 126.214  0.00  0.00    -0.023 C 
ATOM      5  C   LIG A   1      -5.354   0.882 125.903  0.00  0.00    +0.012 C 
ATOM      6  C   LIG A   1      -7.684   1.917 126.615  0.00  0.00    +0.004 C 
ATOM      7  C   LIG A   1      -7.916   1.548 128.099  0.00  0.00    +0.005 C 
ATOM      8  C   LIG A   1      -7.325   2.607 128.981  0.00  0.00    +0.008 C 
ATOM      9  C   LIG A   1      -5.778   2.685 128.880  0.00  0.00    -0.020 C 
ATOM     10  C   LIG A   1      -5.240   1.267 129.280  0.00  0.00    +0.012 C 
ATOM     11  C   LIG A   1      -5.353   3.102 127.387  0.00  0.00    -0.021 C 
ATOM     12  C   LIG A   1      -5.665   4.603 127.078  0.00  0.00    +0.012 C 
ATOM     13  C   LIG A   1      -3.790   3.046 127.338  0.00  0.00    +0.008 C 
ATOM     14  C   LIG A   1      -3.079   4.014 128.330  0.00  0.00    +0.009 C 
ATOM     15  C   LIG A   1      -3.530   3.917 129.789  0.00  0.00    +0.022 C 
ATOM     16  C   LIG A   1      -5.237   3.728 129.965  0.00  0.00    -0.020 C 
ATOM     17  C   LIG A   1      -6.212   4.989 130.002  0.00  0.00    +0.012 C 
ATOM     18  C   LIG A   1      -5.454   3.154 131.387  0.00  0.00    +0.008 C 
ATOM     19  C   LIG A   1      -4.937   4.149 132.370  0.00  0.00    +0.011 C 
ATOM     20  C   LIG A   1      -3.684   4.853 131.846  0.00  0.00    -0.011 C 
ATOM     21  C   LIG A   1      -2.602   3.648 132.522  0.00  0.00    +0.016 C 
ATOM     22  C   LIG A   1      -2.634   4.861 130.749  0.00  0.00    -0.063 C 
ATOM     23  C   LIG A   1      -1.887   5.705 131.615  0.00  0.00    -0.021 C 
ATOM     24  C   LIG A   1      -2.582   6.913 132.599  0.00  0.00    -0.017 C 
ATOM     25  C   LIG A   1      -1.592   7.553 133.551  0.00  0.00    +0.015 C 
ATOM     26  C   LIG A   1      -3.938   6.983 133.499  0.00  0.00    +0.015 C 
ATOM     27  C   LIG A   1      -3.075   7.587 131.357  0.00  0.00    +0.011 C 
ATOM     28  C   LIG A   1      -4.037   6.422 130.959  0.00  0.00    +0.012 C 
ATOM     29  C   LIG A   1      -8.832   1.212 125.610  0.00  0.00    -0.006 C 
ATOM     30  C   LIG A   1      -8.328  -0.274 126.054  0.00  0.00    +0.014 C 
ATOM     31  C   LIG A   1      -9.387   0.382 124.329  0.00  0.00    +0.014 C 
ENDROOT
BRANCH   1  32
ATOM     32  O   LIG A   1      -9.012   3.708 125.097  0.00  0.00    -0.391 OA
ATOM     33  H   LIG A   1      -9.810   4.026 124.648  0.00  0.00    +0.210 HD
ENDBRANCH   1  32
TORSDOF 1
ENDMDL
MODEL 5
REMARK VINA RESULT:      -9.2      1.554      2.799
REMARK  Name = NuBBE_1110
REMARK  10 active torsions:
REMARK  status: ('A' for Active; 'I' for Inactive)
REMARK    1  A    between atoms: O_1  and  C_2
REMARK    2  A    between atoms: C_6  and  C_7
REMARK    3  A    between atoms: C_11  and  C_12
REMARK    4  A    between atoms: C_13  and  C_14
REMARK    5  A    between atoms: C_18  and  C_19
REMARK    6  A    between atoms: C_22  and  C_23
REMARK    7  A    between atoms: C_26  and  C_27
REMARK    8  A    between atoms: C_26  and  C_28
REMARK    9  A    between atoms: C_31  and  C_32
REMARK   10  A    between atoms: C_31  and  C_33
REMARK                            x       y       z     vdW  Elec       q    Type
REMARK                         _______ _______ _______ _____ _____    ______ ____
ROOT
ATOM      1  C   LIG A   1      -6.348  -3.956 134.805  0.00  0.00    +0.120 C 
ATOM      2  C   LIG A   1      -5.014  -4.480 134.275  0.00  0.00    +0.032 C 
ATOM      3  C   LIG A   1      -4.852  -4.250 132.789  0.00  0.00    +0.010 C 
ATOM      4  C   LIG A   1      -5.129  -2.775 132.339  0.00  0.00    -0.023 C 
ATOM      5  C   LIG A   1      -3.791  -2.059 132.634  0.00  0.00    +0.012 C 
ATOM      6  C   LIG A   1      -6.365  -2.229 133.228  0.00  0.00    +0.004 C 
ATOM      7  C   LIG A   1      -7.049  -0.957 132.675  0.00  0.00    +0.005 C 
ATOM      8  C   LIG A   1      -7.493  -1.194 131.263  0.00  0.00    +0.008 C 
ATOM      9  C   LIG A   1      -6.308  -1.406 130.282  0.00  0.00    -0.020 C 
ATOM     10  C   LIG A   1      -5.426  -0.113 130.376  0.00  0.00    +0.012 C 
ATOM     11  C   LIG A   1      -5.496  -2.731 130.693  0.00  0.00    -0.021 C 
ATOM     12  C   LIG A   1      -6.287  -4.039 130.359  0.00  0.00    +0.012 C 
ATOM     13  C   LIG A   1      -4.261  -2.808 129.735  0.00  0.00    +0.008 C 
ATOM     14  C   LIG A   1      -4.622  -2.912 128.224  0.00  0.00    +0.009 C 
ATOM     15  C   LIG A   1      -5.586  -1.847 127.697  0.00  0.00    +0.022 C 
ATOM     16  C   LIG A   1      -6.876  -1.494 128.790  0.00  0.00    -0.020 C 
ATOM     17  C   LIG A   1      -8.217  -2.357 128.796  0.00  0.00    +0.012 C 
ATOM     18  C   LIG A   1      -7.425  -0.110 128.363  0.00  0.00    +0.008 C 
ATOM     19  C   LIG A   1      -7.941  -0.229 126.969  0.00  0.00    +0.011 C 
ATOM     20  C   LIG A   1      -7.077  -1.172 126.131  0.00  0.00    -0.011 C 
ATOM     21  C   LIG A   1      -6.006   0.115 125.605  0.00  0.00    +0.016 C 
ATOM     22  C   LIG A   1      -5.781  -1.965 126.096  0.00  0.00    -0.063 C 
ATOM     23  C   LIG A   1      -6.001  -2.062 124.696  0.00  0.00    -0.021 C 
ATOM     24  C   LIG A   1      -7.537  -2.271 123.985  0.00  0.00    -0.017 C 
ATOM     25  C   LIG A   1      -7.517  -2.172 122.472  0.00  0.00    +0.015 C 
ATOM     26  C   LIG A   1      -9.011  -1.652 124.297  0.00  0.00    +0.015 C 
ATOM     27  C   LIG A   1      -7.656  -3.571 124.717  0.00  0.00    +0.011 C 
ATOM     28  C   LIG A   1      -7.666  -2.912 126.134  0.00  0.00    +0.012 C 
ATOM     29  C   LIG A   1      -6.452  -2.307 134.904  0.00  0.00    -0.006 C 
ATOM     30  C   LIG A   1      -5.584  -0.931 135.026  0.00  0.00    +0.014 C 
ATOM     31  C   LIG A   1      -5.904  -2.506 136.420  0.00  0.00    +0.014 C 
ENDROOT
BRANCH   1  32
ATOM     32  O   LIG A   1      -7.510  -4.498 134.131  0.00  0.00    -0.391 OA
ATOM     33  H   LIG A   1      -7.426  -4.369 133.174  0.00  0.00    +0.210 HD
ENDBRANCH   1  32
TORSDOF 1
ENDMDL
MODEL 6
REMARK VINA RESULT:      -9.0      4.033      5.775
REMARK  Name = NuBBE_1110
REMARK  10 active torsions:
REMARK  status: ('A' for Active; 'I' for Inactive)
REMARK    1  A    between atoms: O_1  and  C_2
REMARK    2  A    between atoms: C_6  and  C_7
REMARK    3  A    between atoms: C_11  and  C_12
REMARK    4  A    between atoms: C_13  and  C_14
REMARK    5  A    between atoms: C_18  and  C_19
REMARK    6  A    between atoms: C_22  and  C_23
REMARK    7  A    between atoms: C_26  and  C_27
REMARK    8  A    between atoms: C_26  and  C_28
REMARK    9  A    between atoms: C_31  and  C_32
REMARK   10  A    between atoms: C_31  and  C_33
REMARK                            x       y       z     vdW  Elec       q    Type
REMARK                         _______ _______ _______ _____ _____    ______ ____
ROOT
ATOM      1  C   LIG A   1      -4.389   6.764 130.047  0.00  0.00    +0.120 C 
ATOM      2  C   LIG A   1      -5.743   6.564 130.728  0.00  0.00    +0.032 C 
ATOM      3  C   LIG A   1      -6.510   5.394 130.154  0.00  0.00    +0.010 C 
ATOM      4  C   LIG A   1      -5.684   4.065 130.078  0.00  0.00    -0.023 C 
ATOM      5  C   LIG A   1      -5.806   3.492 131.510  0.00  0.00    +0.012 C 
ATOM      6  C   LIG A   1      -4.172   4.466 129.669  0.00  0.00    +0.004 C 
ATOM      7  C   LIG A   1      -3.306   3.292 129.157  0.00  0.00    +0.005 C 
ATOM      8  C   LIG A   1      -3.992   2.622 128.004  0.00  0.00    +0.008 C 
ATOM      9  C   LIG A   1      -5.318   1.924 128.412  0.00  0.00    -0.020 C 
ATOM     10  C   LIG A   1      -4.941   0.877 129.517  0.00  0.00    +0.012 C 
ATOM     11  C   LIG A   1      -6.367   3.022 128.942  0.00  0.00    -0.021 C 
ATOM     12  C   LIG A   1      -6.936   3.906 127.784  0.00  0.00    +0.012 C 
ATOM     13  C   LIG A   1      -7.623   2.231 129.437  0.00  0.00    +0.008 C 
ATOM     14  C   LIG A   1      -8.327   1.384 128.336  0.00  0.00    +0.009 C 
ATOM     15  C   LIG A   1      -7.422   0.429 127.554  0.00  0.00    +0.022 C 
ATOM     16  C   LIG A   1      -5.888   1.115 127.156  0.00  0.00    -0.020 C 
ATOM     17  C   LIG A   1      -5.688   1.993 125.840  0.00  0.00    +0.012 C 
ATOM     18  C   LIG A   1      -4.957  -0.083 126.848  0.00  0.00    +0.008 C 
ATOM     19  C   LIG A   1      -5.519  -0.815 125.676  0.00  0.00    +0.011 C 
ATOM     20  C   LIG A   1      -7.049  -0.825 125.705  0.00  0.00    -0.011 C 
ATOM     21  C   LIG A   1      -7.121  -2.306 126.643  0.00  0.00    +0.016 C 
ATOM     22  C   LIG A   1      -8.275  -0.497 126.539  0.00  0.00    -0.063 C 
ATOM     23  C   LIG A   1      -8.991  -1.302 125.612  0.00  0.00    -0.021 C 
ATOM     24  C   LIG A   1      -8.672  -1.339 123.937  0.00  0.00    -0.017 C 
ATOM     25  C   LIG A   1      -9.459  -2.404 123.200  0.00  0.00    +0.015 C 
ATOM     26  C   LIG A   1      -7.302  -1.326 123.056  0.00  0.00    +0.015 C 
ATOM     27  C   LIG A   1      -9.015   0.118 123.880  0.00  0.00    +0.011 C 
ATOM     28  C   LIG A   1      -7.813   0.561 124.774  0.00  0.00    +0.012 C 
ATOM     29  C   LIG A   1      -3.244   5.635 130.443  0.00  0.00    -0.006 C 
ATOM     30  C   LIG A   1      -2.792   4.548 131.571  0.00  0.00    +0.014 C 
ATOM     31  C   LIG A   1      -2.830   6.675 131.619  0.00  0.00    +0.014 C 
ENDROOT
BRANCH   1  32
ATOM     32  O   LIG A   1      -4.464   6.929 128.610  0.00  0.00    -0.391 OA
ATOM     33  H   LIG A   1      -5.293   7.371 128.372  0.00  0.00    +0.210 HD
ENDBRANCH   1  32
TORSDOF 1
ENDMDL
MODEL 7
REMARK VINA RESULT:      -8.9      1.643      3.222
REMARK  Name = NuBBE_1110
REMARK  10 active torsions:
REMARK  status: ('A' for Active; 'I' for Inactive)
REMARK    1  A    between atoms: O_1  and  C_2
REMARK    2  A    between atoms: C_6  and  C_7
REMARK    3  A    between atoms: C_11  and  C_12
REMARK    4  A    between atoms: C_13  and  C_14
REMARK    5  A    between atoms: C_18  and  C_19
REMARK    6  A    between atoms: C_22  and  C_23
REMARK    7  A    between atoms: C_26  and  C_27
REMARK    8  A    between atoms: C_26  and  C_28
REMARK    9  A    between atoms: C_31  and  C_32
REMARK   10  A    between atoms: C_31  and  C_33
REMARK                            x       y       z     vdW  Elec       q    Type
REMARK                         _______ _______ _______ _____ _____    ______ ____
ROOT
ATOM      1  C   LIG A   1      -4.194  -1.929 131.888  0.00  0.00    +0.120 C 
ATOM      2  C   LIG A   1      -5.421  -1.170 132.390  0.00  0.00    +0.032 C 
ATOM      3  C   LIG A   1      -6.184  -0.499 131.269  0.00  0.00    +0.010 C 
ATOM      4  C   LIG A   1      -6.526  -1.450 130.072  0.00  0.00    -0.023 C 
ATOM      5  C   LIG A   1      -7.801  -2.180 130.555  0.00  0.00    +0.012 C 
ATOM      6  C   LIG A   1      -5.257  -2.432 129.866  0.00  0.00    +0.004 C 
ATOM      7  C   LIG A   1      -5.221  -3.168 128.506  0.00  0.00    +0.005 C 
ATOM      8  C   LIG A   1      -5.288  -2.169 127.390  0.00  0.00    +0.008 C 
ATOM      9  C   LIG A   1      -6.640  -1.408 127.338  0.00  0.00    -0.020 C 
ATOM     10  C   LIG A   1      -7.752  -2.502 127.170  0.00  0.00    +0.012 C 
ATOM     11  C   LIG A   1      -6.828  -0.546 128.681  0.00  0.00    -0.021 C 
ATOM     12  C   LIG A   1      -5.882   0.700 128.723  0.00  0.00    +0.012 C 
ATOM     13  C   LIG A   1      -8.255   0.093 128.601  0.00  0.00    +0.008 C 
ATOM     14  C   LIG A   1      -8.469   1.041 127.384  0.00  0.00    +0.009 C 
ATOM     15  C   LIG A   1      -8.117   0.454 126.016  0.00  0.00    +0.022 C 
ATOM     16  C   LIG A   1      -6.670  -0.488 126.030  0.00  0.00    -0.020 C 
ATOM     17  C   LIG A   1      -5.238   0.187 125.839  0.00  0.00    +0.012 C 
ATOM     18  C   LIG A   1      -6.737  -1.384 124.769  0.00  0.00    +0.008 C 
ATOM     19  C   LIG A   1      -6.767  -0.494 123.572  0.00  0.00    +0.011 C 
ATOM     20  C   LIG A   1      -7.576   0.776 123.840  0.00  0.00    -0.011 C 
ATOM     21  C   LIG A   1      -9.083   0.047 123.314  0.00  0.00    +0.016 C 
ATOM     22  C   LIG A   1      -8.508   1.469 124.819  0.00  0.00    -0.063 C 
ATOM     23  C   LIG A   1      -8.809   2.350 123.745  0.00  0.00    -0.021 C 
ATOM     24  C   LIG A   1      -7.658   2.900 122.614  0.00  0.00    -0.017 C 
ATOM     25  C   LIG A   1      -8.268   3.691 121.473  0.00  0.00    +0.015 C 
ATOM     26  C   LIG A   1      -6.415   2.185 121.840  0.00  0.00    +0.015 C 
ATOM     27  C   LIG A   1      -6.910   3.539 123.743  0.00  0.00    +0.011 C 
ATOM     28  C   LIG A   1      -6.560   2.184 124.439  0.00  0.00    +0.012 C 
ATOM     29  C   LIG A   1      -4.533  -3.336 131.084  0.00  0.00    -0.006 C 
ATOM     30  C   LIG A   1      -5.645  -4.514 130.890  0.00  0.00    +0.014 C 
ATOM     31  C   LIG A   1      -4.395  -4.035 132.544  0.00  0.00    +0.014 C 
ENDROOT
BRANCH   1  32
ATOM     32  O   LIG A   1      -3.265  -1.120 131.125  0.00  0.00    -0.391 OA
ATOM     33  H   LIG A   1      -2.877  -1.649 130.411  0.00  0.00    +0.210 HD
ENDBRANCH   1  32
TORSDOF 1
ENDMDL
MODEL 8
REMARK VINA RESULT:      -8.9      3.778      7.853
REMARK  Name = NuBBE_1110
REMARK  10 active torsions:
REMARK  status: ('A' for Active; 'I' for Inactive)
REMARK    1  A    between atoms: O_1  and  C_2
REMARK    2  A    between atoms: C_6  and  C_7
REMARK    3  A    between atoms: C_11  and  C_12
REMARK    4  A    between atoms: C_13  and  C_14
REMARK    5  A    between atoms: C_18  and  C_19
REMARK    6  A    between atoms: C_22  and  C_23
REMARK    7  A    between atoms: C_26  and  C_27
REMARK    8  A    between atoms: C_26  and  C_28
REMARK    9  A    between atoms: C_31  and  C_32
REMARK   10  A    between atoms: C_31  and  C_33
REMARK                            x       y       z     vdW  Elec       q    Type
REMARK                         _______ _______ _______ _____ _____    ______ ____
ROOT
ATOM      1  C   LIG A   1      -9.044  -1.008 123.693  0.00  0.00    +0.120 C 
ATOM      2  C   LIG A   1      -7.758  -0.512 123.032  0.00  0.00    +0.032 C 
ATOM      3  C   LIG A   1      -6.905   0.311 123.972  0.00  0.00    +0.010 C 
ATOM      4  C   LIG A   1      -6.633  -0.377 125.353  0.00  0.00    -0.023 C 
ATOM      5  C   LIG A   1      -5.450  -1.325 125.048  0.00  0.00    +0.012 C 
ATOM      6  C   LIG A   1      -7.990  -1.151 125.776  0.00  0.00    +0.004 C 
ATOM      7  C   LIG A   1      -8.068  -1.554 127.267  0.00  0.00    +0.005 C 
ATOM      8  C   LIG A   1      -7.875  -0.343 128.129  0.00  0.00    +0.008 C 
ATOM      9  C   LIG A   1      -6.452   0.266 128.008  0.00  0.00    -0.020 C 
ATOM     10  C   LIG A   1      -5.453  -0.871 128.418  0.00  0.00    +0.012 C 
ATOM     11  C   LIG A   1      -6.209   0.780 126.505  0.00  0.00    -0.021 C 
ATOM     12  C   LIG A   1      -7.025   2.076 126.181  0.00  0.00    +0.012 C 
ATOM     13  C   LIG A   1      -4.724   1.269 126.438  0.00  0.00    +0.008 C 
ATOM     14  C   LIG A   1      -4.386   2.439 127.409  0.00  0.00    +0.009 C 
ATOM     15  C   LIG A   1      -4.764   2.215 128.875  0.00  0.00    +0.022 C 
ATOM     16  C   LIG A   1      -6.299   1.448 129.074  0.00  0.00    -0.020 C 
ATOM     17  C   LIG A   1      -7.650   2.294 129.107  0.00  0.00    +0.012 C 
ATOM     18  C   LIG A   1      -6.293   0.857 130.505  0.00  0.00    +0.008 C 
ATOM     19  C   LIG A   1      -6.145   1.985 131.469  0.00  0.00    +0.011 C 
ATOM     20  C   LIG A   1      -5.219   3.071 130.922  0.00  0.00    -0.011 C 
ATOM     21  C   LIG A   1      -3.781   2.328 131.599  0.00  0.00    +0.016 C 
ATOM     22  C   LIG A   1      -4.244   3.426 129.812  0.00  0.00    -0.063 C 
ATOM     23  C   LIG A   1      -3.831   4.490 130.658  0.00  0.00    -0.021 C 
ATOM     24  C   LIG A   1      -4.894   5.397 131.636  0.00  0.00    -0.017 C 
ATOM     25  C   LIG A   1      -4.181   6.356 132.568  0.00  0.00    +0.015 C 
ATOM     26  C   LIG A   1      -6.184   5.007 132.551  0.00  0.00    +0.015 C 
ATOM     27  C   LIG A   1      -5.600   5.840 130.392  0.00  0.00    +0.011 C 
ATOM     28  C   LIG A   1      -6.101   4.407 130.020  0.00  0.00    +0.012 C 
ATOM     29  C   LIG A   1      -8.829  -2.226 124.793  0.00  0.00    -0.006 C 
ATOM     30  C   LIG A   1      -7.838  -3.438 125.249  0.00  0.00    +0.014 C 
ATOM     31  C   LIG A   1      -9.071  -3.217 123.530  0.00  0.00    +0.014 C 
ENDROOT
BRANCH   1  32
ATOM     32  O   LIG A   1      -9.868   0.044 124.253  0.00  0.00    -0.391 OA
ATOM     33  H   LIG A   1      -9.451   0.398 125.053  0.00  0.00    +0.210 HD
ENDBRANCH   1  32
TORSDOF 1
ENDMDL
MODEL 9
REMARK VINA RESULT:      -8.8      4.919      6.516
REMARK  Name = NuBBE_1110
REMARK  10 active torsions:
REMARK  status: ('A' for Active; 'I' for Inactive)
REMARK    1  A    between atoms: O_1  and  C_2
REMARK    2  A    between atoms: C_6  and  C_7
REMARK    3  A    between atoms: C_11  and  C_12
REMARK    4  A    between atoms: C_13  and  C_14
REMARK    5  A    between atoms: C_18  and  C_19
REMARK    6  A    between atoms: C_22  and  C_23
REMARK    7  A    between atoms: C_26  and  C_27
REMARK    8  A    between atoms: C_26  and  C_28
REMARK    9  A    between atoms: C_31  and  C_32
REMARK   10  A    between atoms: C_31  and  C_33
REMARK                            x       y       z     vdW  Elec       q    Type
REMARK                         _______ _______ _______ _____ _____    ______ ____
ROOT
ATOM      1  C   LIG A   1      -6.082  -2.566 131.419  0.00  0.00    +0.120 C 
ATOM      2  C   LIG A   1      -5.856  -2.281 129.935  0.00  0.00    +0.032 C 
ATOM      3  C   LIG A   1      -6.410  -0.938 129.513  0.00  0.00    +0.010 C 
ATOM      4  C   LIG A   1      -5.951   0.254 130.421  0.00  0.00    -0.023 C 
ATOM      5  C   LIG A   1      -4.555   0.609 129.857  0.00  0.00    +0.012 C 
ATOM      6  C   LIG A   1      -5.913  -0.292 131.943  0.00  0.00    +0.004 C 
ATOM      7  C   LIG A   1      -5.875   0.811 133.026  0.00  0.00    +0.005 C 
ATOM      8  C   LIG A   1      -7.035   1.743 132.840  0.00  0.00    +0.008 C 
ATOM      9  C   LIG A   1      -6.956   2.552 131.517  0.00  0.00    -0.020 C 
ATOM     10  C   LIG A   1      -5.607   3.350 131.572  0.00  0.00    +0.012 C 
ATOM     11  C   LIG A   1      -7.022   1.548 130.264  0.00  0.00    -0.021 C 
ATOM     12  C   LIG A   1      -8.451   0.944 130.061  0.00  0.00    +0.012 C 
ATOM     13  C   LIG A   1      -6.820   2.424 128.983  0.00  0.00    +0.008 C 
ATOM     14  C   LIG A   1      -7.904   3.524 128.778  0.00  0.00    +0.009 C 
ATOM     15  C   LIG A   1      -8.145   4.449 129.974  0.00  0.00    +0.022 C 
ATOM     16  C   LIG A   1      -8.146   3.620 131.488  0.00  0.00    -0.020 C 
ATOM     17  C   LIG A   1      -9.468   2.937 132.059  0.00  0.00    +0.012 C 
ATOM     18  C   LIG A   1      -7.893   4.705 132.564  0.00  0.00    +0.008 C 
ATOM     19  C   LIG A   1      -9.018   5.682 132.505  0.00  0.00    +0.011 C 
ATOM     20  C   LIG A   1      -9.489   5.908 131.067  0.00  0.00    -0.011 C 
ATOM     21  C   LIG A   1      -8.357   7.220 130.796  0.00  0.00    +0.016 C 
ATOM     22  C   LIG A   1      -9.182   5.634 129.605  0.00  0.00    -0.063 C 
ATOM     23  C   LIG A   1     -10.116   6.667 129.325  0.00  0.00    -0.021 C 
ATOM     24  C   LIG A   1     -11.554   6.917 130.207  0.00  0.00    -0.017 C 
ATOM     25  C   LIG A   1     -12.286   8.185 129.816  0.00  0.00    +0.015 C 
ATOM     26  C   LIG A   1     -11.924   6.845 131.792  0.00  0.00    +0.015 C 
ATOM     27  C   LIG A   1     -12.003   5.552 129.787  0.00  0.00    +0.011 C 
ATOM     28  C   LIG A   1     -10.870   4.806 130.563  0.00  0.00    +0.012 C 
ATOM     29  C   LIG A   1      -5.122  -1.688 132.444  0.00  0.00    -0.006 C 
ATOM     30  C   LIG A   1      -3.719  -0.866 132.564  0.00  0.00    +0.014 C 
ATOM     31  C   LIG A   1      -4.102  -2.946 132.337  0.00  0.00    +0.014 C 
ENDROOT
BRANCH   1  32
ATOM     32  O   LIG A   1      -7.468  -2.493 131.835  0.00  0.00    -0.391 OA
ATOM     33  H   LIG A   1      -7.718  -3.312 132.290  0.00  0.00    +0.210 HD
ENDBRANCH   1  32
TORSDOF 1
ENDMDL
