MODEL 1
REMARK VINA RESULT:      -7.6      0.000      0.000
REMARK  Name = NuBBE_1557
REMARK  8 active torsions:
REMARK  status: ('A' for Active; 'I' for Inactive)
REMARK    1  A    between atoms: C_3  and  C_15
REMARK    2  A    between atoms: C_8  and  O_9
REMARK    3  A    between atoms: C_11  and  O_13
REMARK    4  A    between atoms: O_13  and  C_14
REMARK    5  A    between atoms: C_16  and  O_17
REMARK    6  A    between atoms: O_17  and  C_18
REMARK    7  A    between atoms: C_20  and  O_23
REMARK    8  A    between atoms: O_23  and  C_24
REMARK                            x       y       z     vdW  Elec       q    Type
REMARK                         _______ _______ _______ _____ _____    ______ ____
ROOT
ATOM      1  O   LIG A   1      -9.253   5.297 129.074  0.00  0.00    -0.286 OA
ATOM      2  C   LIG A   1     -10.100   5.722 129.861  0.00  0.00    +0.204 A 
ATOM      3  C   LIG A   1     -10.287   5.175 131.225  0.00  0.00    +0.068 A 
ATOM      4  C   LIG A   1     -11.149   5.828 132.024  0.00  0.00    +0.208 A 
ATOM      5  O   LIG A   1     -11.885   6.945 131.699  0.00  0.00    -0.462 OA
ATOM      6  C   LIG A   1     -11.841   7.383 130.399  0.00  0.00    +0.145 A 
ATOM      7  C   LIG A   1     -10.984   6.823 129.454  0.00  0.00    +0.106 A 
ATOM      8  C   LIG A   1     -10.992   7.315 128.145  0.00  0.00    +0.135 A 
ATOM      9  C   LIG A   1     -11.860   8.338 127.777  0.00  0.00    +0.092 A 
ATOM     10  C   LIG A   1     -12.721   8.901 128.722  0.00  0.00    +0.127 A 
ATOM     11  C   LIG A   1     -12.704   8.424 130.037  0.00  0.00    +0.092 A 
ENDROOT
BRANCH   3  12
ATOM     12  C   LIG A   1      -9.580   3.963 131.682  0.00  0.00    +0.031 A 
ATOM     13  C   LIG A   1      -8.362   4.035 132.387  0.00  0.00    +0.131 A 
ATOM     14  C   LIG A   1      -7.738   2.860 132.839  0.00  0.00    +0.091 A 
ATOM     15  C   LIG A   1      -8.293   1.610 132.557  0.00  0.00    +0.124 A 
ATOM     16  C   LIG A   1      -9.489   1.537 131.848  0.00  0.00    +0.046 A 
ATOM     17  C   LIG A   1     -10.128   2.701 131.407  0.00  0.00    +0.016 A 
BRANCH  13  18
ATOM     18  O   LIG A   1      -7.863   5.291 132.641  0.00  0.00    -0.494 OA
ATOM     19  C   LIG A   1      -7.878   5.700 134.007  0.00  0.00    +0.277 C 
ENDBRANCH  13  18
BRANCH  15  20
ATOM     20  O   LIG A   1      -7.785   0.408 132.973  0.00  0.00    -0.495 OA
ATOM     21  C   LIG A   1      -8.164  -0.729 132.203  0.00  0.00    +0.277 C 
ENDBRANCH  15  20
ENDBRANCH   3  12
BRANCH   8  22
ATOM     22  O   LIG A   1     -10.173   6.830 127.159  0.00  0.00    -0.506 OA
ATOM     23  H   LIG A   1     -10.486   7.195 126.301  0.00  0.00    +0.292 HD
ENDBRANCH   8  22
BRANCH  10  24
ATOM     24  O   LIG A   1     -13.612   9.911 128.472  0.00  0.00    -0.495 OA
ATOM     25  C   LIG A   1     -13.690  10.928 129.468  0.00  0.00    +0.277 C 
ENDBRANCH  10  24
TORSDOF 5
ENDMDL
MODEL 2
REMARK VINA RESULT:      -7.5      1.156      7.645
REMARK  Name = NuBBE_1557
REMARK  8 active torsions:
REMARK  status: ('A' for Active; 'I' for Inactive)
REMARK    1  A    between atoms: C_3  and  C_15
REMARK    2  A    between atoms: C_8  and  O_9
REMARK    3  A    between atoms: C_11  and  O_13
REMARK    4  A    between atoms: O_13  and  C_14
REMARK    5  A    between atoms: C_16  and  O_17
REMARK    6  A    between atoms: O_17  and  C_18
REMARK    7  A    between atoms: C_20  and  O_23
REMARK    8  A    between atoms: O_23  and  C_24
REMARK                            x       y       z     vdW  Elec       q    Type
REMARK                         _______ _______ _______ _____ _____    ______ ____
ROOT
ATOM      1  O   LIG A   1      -8.916   6.771 131.687  0.00  0.00    -0.286 OA
ATOM      2  C   LIG A   1      -9.531   5.742 131.405  0.00  0.00    +0.204 A 
ATOM      3  C   LIG A   1     -10.773   5.735 130.597  0.00  0.00    +0.068 A 
ATOM      4  C   LIG A   1     -11.258   4.531 130.246  0.00  0.00    +0.208 A 
ATOM      5  O   LIG A   1     -10.725   3.304 130.573  0.00  0.00    -0.462 OA
ATOM      6  C   LIG A   1      -9.662   3.280 131.441  0.00  0.00    +0.145 A 
ATOM      7  C   LIG A   1      -9.035   4.444 131.882  0.00  0.00    +0.106 A 
ATOM      8  C   LIG A   1      -7.958   4.349 132.770  0.00  0.00    +0.135 A 
ATOM      9  C   LIG A   1      -7.527   3.109 133.230  0.00  0.00    +0.092 A 
ATOM     10  C   LIG A   1      -8.154   1.940 132.790  0.00  0.00    +0.127 A 
ATOM     11  C   LIG A   1      -9.220   2.030 131.888  0.00  0.00    +0.092 A 
ENDROOT
BRANCH   3  12
ATOM     12  C   LIG A   1     -11.458   6.984 130.211  0.00  0.00    +0.031 A 
ATOM     13  C   LIG A   1     -11.131   7.674 129.026  0.00  0.00    +0.131 A 
ATOM     14  C   LIG A   1     -11.832   8.840 128.672  0.00  0.00    +0.091 A 
ATOM     15  C   LIG A   1     -12.826   9.349 129.509  0.00  0.00    +0.124 A 
ATOM     16  C   LIG A   1     -13.140   8.675 130.688  0.00  0.00    +0.046 A 
ATOM     17  C   LIG A   1     -12.460   7.505 131.042  0.00  0.00    +0.016 A 
BRANCH  13  18
ATOM     18  O   LIG A   1     -10.148   7.125 128.236  0.00  0.00    -0.494 OA
ATOM     19  C   LIG A   1     -10.425   7.086 126.838  0.00  0.00    +0.277 C 
ENDBRANCH  13  18
BRANCH  15  20
ATOM     20  O   LIG A   1     -13.588  10.457 129.249  0.00  0.00    -0.495 OA
ATOM     21  C   LIG A   1     -13.601  11.458 130.261  0.00  0.00    +0.277 C 
ENDBRANCH  15  20
ENDBRANCH   3  12
BRANCH   8  22
ATOM     22  O   LIG A   1      -7.279   5.441 133.241  0.00  0.00    -0.506 OA
ATOM     23  H   LIG A   1      -6.441   5.123 133.646  0.00  0.00    +0.292 HD
ENDBRANCH   8  22
BRANCH  10  24
ATOM     24  O   LIG A   1      -7.811   0.671 133.174  0.00  0.00    -0.495 OA
ATOM     25  C   LIG A   1      -8.121  -0.363 132.242  0.00  0.00    +0.277 C 
ENDBRANCH  10  24
TORSDOF 5
ENDMDL
MODEL 3
REMARK VINA RESULT:      -7.1      1.122      1.349
REMARK  Name = NuBBE_1557
REMARK  8 active torsions:
REMARK  status: ('A' for Active; 'I' for Inactive)
REMARK    1  A    between atoms: C_3  and  C_15
REMARK    2  A    between atoms: C_8  and  O_9
REMARK    3  A    between atoms: C_11  and  O_13
REMARK    4  A    between atoms: O_13  and  C_14
REMARK    5  A    between atoms: C_16  and  O_17
REMARK    6  A    between atoms: O_17  and  C_18
REMARK    7  A    between atoms: C_20  and  O_23
REMARK    8  A    between atoms: O_23  and  C_24
REMARK                            x       y       z     vdW  Elec       q    Type
REMARK                         _______ _______ _______ _____ _____    ______ ____
ROOT
ATOM      1  O   LIG A   1      -8.801   5.528 129.487  0.00  0.00    -0.286 OA
ATOM      2  C   LIG A   1      -9.702   5.941 130.219  0.00  0.00    +0.204 A 
ATOM      3  C   LIG A   1      -9.835   5.548 131.641  0.00  0.00    +0.068 A 
ATOM      4  C   LIG A   1     -10.778   6.184 132.357  0.00  0.00    +0.208 A 
ATOM      5  O   LIG A   1     -11.642   7.154 131.899  0.00  0.00    -0.462 OA
ATOM      6  C   LIG A   1     -11.637   7.430 130.554  0.00  0.00    +0.145 A 
ATOM      7  C   LIG A   1     -10.708   6.867 129.682  0.00  0.00    +0.106 A 
ATOM      8  C   LIG A   1     -10.762   7.188 128.322  0.00  0.00    +0.135 A 
ATOM      9  C   LIG A   1     -11.744   8.043 127.834  0.00  0.00    +0.092 A 
ATOM     10  C   LIG A   1     -12.678   8.610 128.706  0.00  0.00    +0.127 A 
ATOM     11  C   LIG A   1     -12.616   8.305 130.070  0.00  0.00    +0.092 A 
ENDROOT
BRANCH   3  12
ATOM     12  C   LIG A   1      -8.991   4.497 132.241  0.00  0.00    +0.031 A 
ATOM     13  C   LIG A   1      -7.671   4.755 132.663  0.00  0.00    +0.131 A 
ATOM     14  C   LIG A   1      -6.911   3.738 133.265  0.00  0.00    +0.091 A 
ATOM     15  C   LIG A   1      -7.437   2.454 133.412  0.00  0.00    +0.124 A 
ATOM     16  C   LIG A   1      -8.737   2.193 132.982  0.00  0.00    +0.046 A 
ATOM     17  C   LIG A   1      -9.508   3.202 132.396  0.00  0.00    +0.016 A 
BRANCH  13  18
ATOM     18  O   LIG A   1      -7.205   6.039 132.499  0.00  0.00    -0.494 OA
ATOM     19  C   LIG A   1      -5.852   6.157 132.066  0.00  0.00    +0.277 C 
ENDBRANCH  13  18
BRANCH  15  20
ATOM     20  O   LIG A   1      -6.797   1.400 134.008  0.00  0.00    -0.495 OA
ATOM     21  C   LIG A   1      -5.615   1.718 134.736  0.00  0.00    +0.277 C 
ENDBRANCH  15  20
ENDBRANCH   3  12
BRANCH   8  22
ATOM     22  O   LIG A   1      -9.880   6.688 127.401  0.00  0.00    -0.506 OA
ATOM     23  H   LIG A   1     -10.243   6.871 126.505  0.00  0.00    +0.292 HD
ENDBRANCH   8  22
BRANCH  10  24
ATOM     24  O   LIG A   1     -13.682   9.465 128.337  0.00  0.00    -0.495 OA
ATOM     25  C   LIG A   1     -13.738  10.698 129.048  0.00  0.00    +0.277 C 
ENDBRANCH  10  24
TORSDOF 5
ENDMDL
MODEL 4
REMARK VINA RESULT:      -6.6      1.899      2.510
REMARK  Name = NuBBE_1557
REMARK  8 active torsions:
REMARK  status: ('A' for Active; 'I' for Inactive)
REMARK    1  A    between atoms: C_3  and  C_15
REMARK    2  A    between atoms: C_8  and  O_9
REMARK    3  A    between atoms: C_11  and  O_13
REMARK    4  A    between atoms: O_13  and  C_14
REMARK    5  A    between atoms: C_16  and  O_17
REMARK    6  A    between atoms: O_17  and  C_18
REMARK    7  A    between atoms: C_20  and  O_23
REMARK    8  A    between atoms: O_23  and  C_24
REMARK                            x       y       z     vdW  Elec       q    Type
REMARK                         _______ _______ _______ _____ _____    ______ ____
ROOT
ATOM      1  O   LIG A   1      -8.716   5.328 127.949  0.00  0.00    -0.286 OA
ATOM      2  C   LIG A   1      -9.252   5.822 128.942  0.00  0.00    +0.204 A 
ATOM      3  C   LIG A   1      -8.821   5.525 130.328  0.00  0.00    +0.068 A 
ATOM      4  C   LIG A   1      -9.399   6.242 131.307  0.00  0.00    +0.208 A 
ATOM      5  O   LIG A   1     -10.362   7.214 131.153  0.00  0.00    -0.462 OA
ATOM      6  C   LIG A   1     -10.883   7.404 129.897  0.00  0.00    +0.145 A 
ATOM      7  C   LIG A   1     -10.378   6.750 128.775  0.00  0.00    +0.106 A 
ATOM      8  C   LIG A   1     -10.958   6.987 127.525  0.00  0.00    +0.135 A 
ATOM      9  C   LIG A   1     -12.044   7.848 127.398  0.00  0.00    +0.092 A 
ATOM     10  C   LIG A   1     -12.553   8.504 128.522  0.00  0.00    +0.127 A 
ATOM     11  C   LIG A   1     -11.964   8.284 129.772  0.00  0.00    +0.092 A 
ENDROOT
BRANCH   3  12
ATOM     12  C   LIG A   1      -7.821   4.481 130.626  0.00  0.00    +0.031 A 
ATOM     13  C   LIG A   1      -8.198   3.164 130.958  0.00  0.00    +0.131 A 
ATOM     14  C   LIG A   1      -7.216   2.188 131.198  0.00  0.00    +0.091 A 
ATOM     15  C   LIG A   1      -5.861   2.521 131.153  0.00  0.00    +0.124 A 
ATOM     16  C   LIG A   1      -5.488   3.826 130.839  0.00  0.00    +0.046 A 
ATOM     17  C   LIG A   1      -6.456   4.802 130.582  0.00  0.00    +0.016 A 
BRANCH  13  18
ATOM     18  O   LIG A   1      -9.546   2.890 130.984  0.00  0.00    -0.494 OA
ATOM     19  C   LIG A   1      -9.959   1.896 131.918  0.00  0.00    +0.277 C 
ENDBRANCH  13  18
BRANCH  15  20
ATOM     20  O   LIG A   1      -4.825   1.645 131.341  0.00  0.00    -0.495 OA
ATOM     21  C   LIG A   1      -3.896   1.988 132.364  0.00  0.00    +0.277 C 
ENDBRANCH  15  20
ENDBRANCH   3  12
BRANCH   8  22
ATOM     22  O   LIG A   1     -10.515   6.396 126.371  0.00  0.00    -0.506 OA
ATOM     23  H   LIG A   1     -10.220   7.109 125.762  0.00  0.00    +0.292 HD
ENDBRANCH   8  22
BRANCH  10  24
ATOM     24  O   LIG A   1     -13.612   9.373 128.513  0.00  0.00    -0.495 OA
ATOM     25  C   LIG A   1     -13.462  10.541 129.317  0.00  0.00    +0.277 C 
ENDBRANCH  10  24
TORSDOF 5
ENDMDL
MODEL 5
REMARK VINA RESULT:      -6.6      7.969      9.638
REMARK  Name = NuBBE_1557
REMARK  8 active torsions:
REMARK  status: ('A' for Active; 'I' for Inactive)
REMARK    1  A    between atoms: C_3  and  C_15
REMARK    2  A    between atoms: C_8  and  O_9
REMARK    3  A    between atoms: C_11  and  O_13
REMARK    4  A    between atoms: O_13  and  C_14
REMARK    5  A    between atoms: C_16  and  O_17
REMARK    6  A    between atoms: O_17  and  C_18
REMARK    7  A    between atoms: C_20  and  O_23
REMARK    8  A    between atoms: O_23  and  C_24
REMARK                            x       y       z     vdW  Elec       q    Type
REMARK                         _______ _______ _______ _____ _____    ______ ____
ROOT
ATOM      1  O   LIG A   1      -5.528  -1.690 128.356  0.00  0.00    -0.286 OA
ATOM      2  C   LIG A   1      -6.554  -2.294 128.037  0.00  0.00    +0.204 A 
ATOM      3  C   LIG A   1      -7.280  -3.201 128.956  0.00  0.00    +0.068 A 
ATOM      4  C   LIG A   1      -8.459  -3.680 128.524  0.00  0.00    +0.208 A 
ATOM      5  O   LIG A   1      -9.054  -3.424 127.308  0.00  0.00    -0.462 OA
ATOM      6  C   LIG A   1      -8.335  -2.707 126.384  0.00  0.00    +0.145 A 
ATOM      7  C   LIG A   1      -7.105  -2.128 126.685  0.00  0.00    +0.106 A 
ATOM      8  C   LIG A   1      -6.423  -1.413 125.695  0.00  0.00    +0.135 A 
ATOM      9  C   LIG A   1      -6.951  -1.297 124.414  0.00  0.00    +0.092 A 
ATOM     10  C   LIG A   1      -8.185  -1.877 124.108  0.00  0.00    +0.127 A 
ATOM     11  C   LIG A   1      -8.879  -2.578 125.101  0.00  0.00    +0.092 A 
ENDROOT
BRANCH   3  12
ATOM     12  C   LIG A   1      -6.731  -3.579 130.272  0.00  0.00    +0.031 A 
ATOM     13  C   LIG A   1      -7.012  -2.834 131.436  0.00  0.00    +0.131 A 
ATOM     14  C   LIG A   1      -6.502  -3.247 132.678  0.00  0.00    +0.091 A 
ATOM     15  C   LIG A   1      -5.679  -4.370 132.768  0.00  0.00    +0.124 A 
ATOM     16  C   LIG A   1      -5.388  -5.099 131.616  0.00  0.00    +0.046 A 
ATOM     17  C   LIG A   1      -5.904  -4.707 130.376  0.00  0.00    +0.016 A 
BRANCH  13  18
ATOM     18  O   LIG A   1      -7.833  -1.739 131.291  0.00  0.00    -0.494 OA
ATOM     19  C   LIG A   1      -7.214  -0.470 131.488  0.00  0.00    +0.277 C 
ENDBRANCH  13  18
BRANCH  15  20
ATOM     20  O   LIG A   1      -5.153  -4.876 133.927  0.00  0.00    -0.495 OA
ATOM     21  C   LIG A   1      -6.034  -5.664 134.721  0.00  0.00    +0.277 C 
ENDBRANCH  15  20
ENDBRANCH   3  12
BRANCH   8  22
ATOM     22  O   LIG A   1      -5.215  -0.803 125.911  0.00  0.00    -0.506 OA
ATOM     23  H   LIG A   1      -5.114  -0.671 126.881  0.00  0.00    +0.292 HD
ENDBRANCH   8  22
BRANCH  10  24
ATOM     24  O   LIG A   1      -8.800  -1.822 122.886  0.00  0.00    -0.495 OA
ATOM     25  C   LIG A   1      -9.575  -0.653 122.634  0.00  0.00    +0.277 C 
ENDBRANCH  10  24
TORSDOF 5
ENDMDL
MODEL 6
REMARK VINA RESULT:      -6.5      5.818      8.732
REMARK  Name = NuBBE_1557
REMARK  8 active torsions:
REMARK  status: ('A' for Active; 'I' for Inactive)
REMARK    1  A    between atoms: C_3  and  C_15
REMARK    2  A    between atoms: C_8  and  O_9
REMARK    3  A    between atoms: C_11  and  O_13
REMARK    4  A    between atoms: O_13  and  C_14
REMARK    5  A    between atoms: C_16  and  O_17
REMARK    6  A    between atoms: O_17  and  C_18
REMARK    7  A    between atoms: C_20  and  O_23
REMARK    8  A    between atoms: O_23  and  C_24
REMARK                            x       y       z     vdW  Elec       q    Type
REMARK                         _______ _______ _______ _____ _____    ______ ____
ROOT
ATOM      1  O   LIG A   1      -8.091   5.263 126.169  0.00  0.00    -0.286 OA
ATOM      2  C   LIG A   1      -7.637   4.195 126.586  0.00  0.00    +0.204 A 
ATOM      3  C   LIG A   1      -6.927   3.223 125.723  0.00  0.00    +0.068 A 
ATOM      4  C   LIG A   1      -6.362   2.170 126.338  0.00  0.00    +0.208 A 
ATOM      5  O   LIG A   1      -6.387   1.897 127.687  0.00  0.00    -0.462 OA
ATOM      6  C   LIG A   1      -7.160   2.701 128.488  0.00  0.00    +0.145 A 
ATOM      7  C   LIG A   1      -7.795   3.843 128.003  0.00  0.00    +0.106 A 
ATOM      8  C   LIG A   1      -8.572   4.615 128.872  0.00  0.00    +0.135 A 
ATOM      9  C   LIG A   1      -8.731   4.243 130.203  0.00  0.00    +0.092 A 
ATOM     10  C   LIG A   1      -8.096   3.098 130.691  0.00  0.00    +0.127 A 
ATOM     11  C   LIG A   1      -7.303   2.331 129.830  0.00  0.00    +0.092 A 
ENDROOT
BRANCH   3  12
ATOM     12  C   LIG A   1      -6.859   3.387 124.258  0.00  0.00    +0.031 A 
ATOM     13  C   LIG A   1      -7.932   3.023 123.419  0.00  0.00    +0.131 A 
ATOM     14  C   LIG A   1      -7.845   3.230 122.032  0.00  0.00    +0.091 A 
ATOM     15  C   LIG A   1      -6.682   3.756 121.466  0.00  0.00    +0.124 A 
ATOM     16  C   LIG A   1      -5.615   4.102 122.293  0.00  0.00    +0.046 A 
ATOM     17  C   LIG A   1      -5.697   3.916 123.677  0.00  0.00    +0.016 A 
BRANCH  13  18
ATOM     18  O   LIG A   1      -9.055   2.515 124.029  0.00  0.00    -0.494 OA
ATOM     19  C   LIG A   1      -9.727   1.473 123.324  0.00  0.00    +0.277 C 
ENDBRANCH  13  18
BRANCH  15  20
ATOM     20  O   LIG A   1      -6.501   4.024 120.136  0.00  0.00    -0.495 OA
ATOM     21  C   LIG A   1      -5.542   5.029 119.826  0.00  0.00    +0.277 C 
ENDBRANCH  15  20
ENDBRANCH   3  12
BRANCH   8  22
ATOM     22  O   LIG A   1      -9.219   5.758 128.481  0.00  0.00    -0.506 OA
ATOM     23  H   LIG A   1      -9.481   5.648 127.539  0.00  0.00    +0.292 HD
ENDBRANCH   8  22
BRANCH  10  24
ATOM     24  O   LIG A   1      -8.179   2.640 131.980  0.00  0.00    -0.495 OA
ATOM     25  C   LIG A   1      -9.494   2.366 132.457  0.00  0.00    +0.277 C 
ENDBRANCH  10  24
TORSDOF 5
ENDMDL
MODEL 7
REMARK VINA RESULT:      -6.5      7.118      8.870
REMARK  Name = NuBBE_1557
REMARK  8 active torsions:
REMARK  status: ('A' for Active; 'I' for Inactive)
REMARK    1  A    between atoms: C_3  and  C_15
REMARK    2  A    between atoms: C_8  and  O_9
REMARK    3  A    between atoms: C_11  and  O_13
REMARK    4  A    between atoms: O_13  and  C_14
REMARK    5  A    between atoms: C_16  and  O_17
REMARK    6  A    between atoms: O_17  and  C_18
REMARK    7  A    between atoms: C_20  and  O_23
REMARK    8  A    between atoms: O_23  and  C_24
REMARK                            x       y       z     vdW  Elec       q    Type
REMARK                         _______ _______ _______ _____ _____    ______ ____
ROOT
ATOM      1  O   LIG A   1      -4.563   1.086 126.061  0.00  0.00    -0.286 OA
ATOM      2  C   LIG A   1      -5.165   2.133 126.304  0.00  0.00    +0.204 A 
ATOM      3  C   LIG A   1      -6.620   2.302 126.079  0.00  0.00    +0.068 A 
ATOM      4  C   LIG A   1      -7.170   3.446 126.522  0.00  0.00    +0.208 A 
ATOM      5  O   LIG A   1      -6.515   4.482 127.150  0.00  0.00    -0.462 OA
ATOM      6  C   LIG A   1      -5.147   4.414 127.238  0.00  0.00    +0.145 A 
ATOM      7  C   LIG A   1      -4.431   3.286 126.841  0.00  0.00    +0.106 A 
ATOM      8  C   LIG A   1      -3.037   3.284 126.954  0.00  0.00    +0.135 A 
ATOM      9  C   LIG A   1      -2.363   4.401 127.437  0.00  0.00    +0.092 A 
ATOM     10  C   LIG A   1      -3.078   5.534 127.836  0.00  0.00    +0.127 A 
ATOM     11  C   LIG A   1      -4.475   5.533 127.741  0.00  0.00    +0.092 A 
ENDROOT
BRANCH   3  12
ATOM     12  C   LIG A   1      -7.425   1.278 125.387  0.00  0.00    +0.031 A 
ATOM     13  C   LIG A   1      -7.499   1.216 123.980  0.00  0.00    +0.131 A 
ATOM     14  C   LIG A   1      -8.246   0.203 123.356  0.00  0.00    +0.091 A 
ATOM     15  C   LIG A   1      -8.956  -0.725 124.119  0.00  0.00    +0.124 A 
ATOM     16  C   LIG A   1      -8.896  -0.656 125.510  0.00  0.00    +0.046 A 
ATOM     17  C   LIG A   1      -8.143   0.339 126.142  0.00  0.00    +0.016 A 
BRANCH  13  18
ATOM     18  O   LIG A   1      -6.775   2.152 123.277  0.00  0.00    -0.494 OA
ATOM     19  C   LIG A   1      -7.538   3.057 122.482  0.00  0.00    +0.277 C 
ENDBRANCH  13  18
BRANCH  15  20
ATOM     20  O   LIG A   1      -9.690  -1.766 123.617  0.00  0.00    -0.495 OA
ATOM     21  C   LIG A   1      -9.081  -3.051 123.689  0.00  0.00    +0.277 C 
ENDBRANCH  15  20
ENDBRANCH   3  12
BRANCH   8  22
ATOM     22  O   LIG A   1      -2.260   2.214 126.598  0.00  0.00    -0.506 OA
ATOM     23  H   LIG A   1      -2.360   1.525 127.294  0.00  0.00    +0.292 HD
ENDBRANCH   8  22
BRANCH  10  24
ATOM     24  O   LIG A   1      -2.521   6.684 128.328  0.00  0.00    -0.495 OA
ATOM     25  C   LIG A   1      -3.438   7.648 128.840  0.00  0.00    +0.277 C 
ENDBRANCH  10  24
TORSDOF 5
ENDMDL
MODEL 8
REMARK VINA RESULT:      -6.4      1.957      2.757
REMARK  Name = NuBBE_1557
REMARK  8 active torsions:
REMARK  status: ('A' for Active; 'I' for Inactive)
REMARK    1  A    between atoms: C_3  and  C_15
REMARK    2  A    between atoms: C_8  and  O_9
REMARK    3  A    between atoms: C_11  and  O_13
REMARK    4  A    between atoms: O_13  and  C_14
REMARK    5  A    between atoms: C_16  and  O_17
REMARK    6  A    between atoms: O_17  and  C_18
REMARK    7  A    between atoms: C_20  and  O_23
REMARK    8  A    between atoms: O_23  and  C_24
REMARK                            x       y       z     vdW  Elec       q    Type
REMARK                         _______ _______ _______ _____ _____    ______ ____
ROOT
ATOM      1  O   LIG A   1     -10.507   4.430 131.435  0.00  0.00    -0.286 OA
ATOM      2  C   LIG A   1     -10.212   5.057 130.416  0.00  0.00    +0.204 A 
ATOM      3  C   LIG A   1      -9.108   4.661 129.511  0.00  0.00    +0.068 A 
ATOM      4  C   LIG A   1      -8.990   5.351 128.364  0.00  0.00    +0.208 A 
ATOM      5  O   LIG A   1      -9.784   6.398 127.951  0.00  0.00    -0.462 OA
ATOM      6  C   LIG A   1     -10.719   6.878 128.834  0.00  0.00    +0.145 A 
ATOM      7  C   LIG A   1     -10.974   6.260 130.057  0.00  0.00    +0.106 A 
ATOM      8  C   LIG A   1     -11.937   6.805 130.912  0.00  0.00    +0.135 A 
ATOM      9  C   LIG A   1     -12.623   7.963 130.561  0.00  0.00    +0.092 A 
ATOM     10  C   LIG A   1     -12.369   8.585 129.336  0.00  0.00    +0.127 A 
ATOM     11  C   LIG A   1     -11.418   8.034 128.470  0.00  0.00    +0.092 A 
ENDROOT
BRANCH   3  12
ATOM     12  C   LIG A   1      -8.168   3.576 129.857  0.00  0.00    +0.031 A 
ATOM     13  C   LIG A   1      -6.979   3.824 130.573  0.00  0.00    +0.131 A 
ATOM     14  C   LIG A   1      -6.129   2.760 130.917  0.00  0.00    +0.091 A 
ATOM     15  C   LIG A   1      -6.428   1.457 130.518  0.00  0.00    +0.124 A 
ATOM     16  C   LIG A   1      -7.596   1.213 129.798  0.00  0.00    +0.046 A 
ATOM     17  C   LIG A   1      -8.458   2.262 129.464  0.00  0.00    +0.016 A 
BRANCH  13  18
ATOM     18  O   LIG A   1      -6.736   5.126 130.945  0.00  0.00    -0.494 OA
ATOM     19  C   LIG A   1      -5.579   5.729 130.371  0.00  0.00    +0.277 C 
ENDBRANCH  13  18
BRANCH  15  20
ATOM     20  O   LIG A   1      -5.687   0.346 130.823  0.00  0.00    -0.495 OA
ATOM     21  C   LIG A   1      -6.422  -0.805 131.223  0.00  0.00    +0.277 C 
ENDBRANCH  15  20
ENDBRANCH   3  12
BRANCH   8  22
ATOM     22  O   LIG A   1     -12.258   6.253 132.124  0.00  0.00    -0.506 OA
ATOM     23  H   LIG A   1     -12.811   5.457 131.956  0.00  0.00    +0.292 HD
ENDBRANCH   8  22
BRANCH  10  24
ATOM     24  O   LIG A   1     -12.986   9.724 128.889  0.00  0.00    -0.495 OA
ATOM     25  C   LIG A   1     -13.375  10.655 129.895  0.00  0.00    +0.277 C 
ENDBRANCH  10  24
TORSDOF 5
ENDMDL
MODEL 9
REMARK VINA RESULT:      -6.4      8.107     11.698
REMARK  Name = NuBBE_1557
REMARK  8 active torsions:
REMARK  status: ('A' for Active; 'I' for Inactive)
REMARK    1  A    between atoms: C_3  and  C_15
REMARK    2  A    between atoms: C_8  and  O_9
REMARK    3  A    between atoms: C_11  and  O_13
REMARK    4  A    between atoms: O_13  and  C_14
REMARK    5  A    between atoms: C_16  and  O_17
REMARK    6  A    between atoms: O_17  and  C_18
REMARK    7  A    between atoms: C_20  and  O_23
REMARK    8  A    between atoms: O_23  and  C_24
REMARK                            x       y       z     vdW  Elec       q    Type
REMARK                         _______ _______ _______ _____ _____    ______ ____
ROOT
ATOM      1  O   LIG A   1      -8.082  -1.911 131.382  0.00  0.00    -0.286 OA
ATOM      2  C   LIG A   1      -7.332  -2.885 131.297  0.00  0.00    +0.204 A 
ATOM      3  C   LIG A   1      -6.946  -3.502 130.006  0.00  0.00    +0.068 A 
ATOM      4  C   LIG A   1      -6.010  -4.465 130.053  0.00  0.00    +0.208 A 
ATOM      5  O   LIG A   1      -5.383  -4.947 131.182  0.00  0.00    -0.462 OA
ATOM      6  C   LIG A   1      -5.828  -4.497 132.400  0.00  0.00    +0.145 A 
ATOM      7  C   LIG A   1      -6.780  -3.486 132.518  0.00  0.00    +0.106 A 
ATOM      8  C   LIG A   1      -7.191  -3.078 133.791  0.00  0.00    +0.135 A 
ATOM      9  C   LIG A   1      -6.676  -3.684 134.932  0.00  0.00    +0.092 A 
ATOM     10  C   LIG A   1      -5.722  -4.698 134.816  0.00  0.00    +0.127 A 
ATOM     11  C   LIG A   1      -5.294  -5.098 133.545  0.00  0.00    +0.092 A 
ENDROOT
BRANCH   3  12
ATOM     12  C   LIG A   1      -7.569  -3.096 128.732  0.00  0.00    +0.031 A 
ATOM     13  C   LIG A   1      -7.121  -1.970 128.011  0.00  0.00    +0.131 A 
ATOM     14  C   LIG A   1      -7.715  -1.637 126.782  0.00  0.00    +0.091 A 
ATOM     15  C   LIG A   1      -8.780  -2.388 126.284  0.00  0.00    +0.124 A 
ATOM     16  C   LIG A   1      -9.234  -3.492 127.002  0.00  0.00    +0.046 A 
ATOM     17  C   LIG A   1      -8.639  -3.843 128.219  0.00  0.00    +0.016 A 
BRANCH  13  18
ATOM     18  O   LIG A   1      -6.065  -1.268 128.545  0.00  0.00    -0.494 OA
ATOM     19  C   LIG A   1      -6.357   0.060 128.975  0.00  0.00    +0.277 C 
ENDBRANCH  13  18
BRANCH  15  20
ATOM     20  O   LIG A   1      -9.411  -2.170 125.088  0.00  0.00    -0.495 OA
ATOM     21  C   LIG A   1      -9.298  -3.212 124.123  0.00  0.00    +0.277 C 
ENDBRANCH  15  20
ENDBRANCH   3  12
BRANCH   8  22
ATOM     22  O   LIG A   1      -8.112  -2.084 133.995  0.00  0.00    -0.506 OA
ATOM     23  H   LIG A   1      -7.986  -1.740 134.909  0.00  0.00    +0.292 HD
ENDBRANCH   8  22
BRANCH  10  24
ATOM     24  O   LIG A   1      -5.145  -5.361 135.868  0.00  0.00    -0.495 OA
ATOM     25  C   LIG A   1      -4.444  -6.557 135.538  0.00  0.00    +0.277 C 
ENDBRANCH  10  24
TORSDOF 5
ENDMDL
