MODEL 1
REMARK VINA RESULT:      -8.0      0.000      0.000
REMARK  Name = NuBBE_1293
REMARK  10 active torsions:
REMARK  status: ('A' for Active; 'I' for Inactive)
REMARK    1  A    between atoms: C_1  and  C_2
REMARK    2  A    between atoms: C_4  and  O_6
REMARK    3  A    between atoms: C_9  and  C_23
REMARK    4  A    between atoms: C_11  and  C_12
REMARK    5  A    between atoms: C_13  and  C_15
REMARK    6  A    between atoms: C_24  and  C_26
REMARK    7  A    between atoms: C_26  and  C_27
REMARK    8  A    between atoms: C_27  and  O_28
REMARK    9  A    between atoms: O_28  and  C_29
REMARK   10  A    between atoms: C_31  and  C_32
REMARK                            x       y       z     vdW  Elec       q    Type
REMARK                         _______ _______ _______ _____ _____    ______ ____
ROOT
ATOM      1  C   LIG A   1      -7.191  -0.421 123.459  0.00  0.00    +0.020 C 
ATOM      2  C   LIG A   1      -7.627   0.231 124.797  0.00  0.00    +0.040 C 
ATOM      3  C   LIG A   1      -6.775   1.552 124.883  0.00  0.00    +0.059 C 
ATOM      4  C   LIG A   1      -6.413   1.932 126.314  0.00  0.00    +0.152 C 
ATOM      5  C   LIG A   1      -5.519   0.787 126.831  0.00  0.00    +0.158 C 
ATOM      6  C   LIG A   1      -6.293  -0.533 127.075  0.00  0.00    +0.024 C 
ATOM      7  C   LIG A   1      -6.598  -0.309 128.552  0.00  0.00    -0.033 C 
ATOM      8  C   LIG A   1      -7.168  -0.954 129.583  0.00  0.00    -0.063 C 
ATOM      9  C   LIG A   1      -8.056  -2.143 129.575  0.00  0.00    +0.040 C 
ATOM     10  C   LIG A   1      -6.661  -0.365 130.907  0.00  0.00    +0.051 C 
ATOM     11  C   LIG A   1      -5.406   0.401 130.420  0.00  0.00    +0.048 C 
ATOM     12  C   LIG A   1      -5.856   0.887 129.059  0.00  0.00    +0.146 C 
ATOM     13  O   LIG A   1      -4.865   1.129 128.083  0.00  0.00    -0.366 OA
ATOM     14  C   LIG A   1      -5.242  -1.675 127.025  0.00  0.00    +0.019 C 
ATOM     15  C   LIG A   1      -7.518  -0.768 126.078  0.00  0.00    +0.026 C 
ATOM     16  C   LIG A   1      -7.308   2.738 124.081  0.00  0.00    -0.070 C 
ATOM     17  C   LIG A   1      -6.351   3.874 123.828  0.00  0.00    +0.039 C 
ATOM     18  C   LIG A   1      -8.534   2.758 123.538  0.00  0.00    -0.020 C 
ATOM     19  C   LIG A   1      -9.534   1.665 123.659  0.00  0.00    +0.102 C 
ATOM     20  C   LIG A   1      -9.129   0.604 124.656  0.00  0.00    +0.144 C 
ATOM     21  O   LIG A   1     -10.027  -0.023 125.228  0.00  0.00    -0.296 OA
ENDROOT
BRANCH  10  22
ATOM     22  C   LIG A   1      -7.646   0.523 131.617  0.00  0.00    -0.003 A 
ATOM     23  C   LIG A   1      -7.435   1.202 132.804  0.00  0.00    +0.199 A 
ATOM     24  O   LIG A   1      -8.532   1.915 133.164  0.00  0.00    -0.471 OA
ATOM     25  C   LIG A   1      -9.469   1.702 132.208  0.00  0.00    +0.195 A 
ATOM     26  C   LIG A   1      -8.977   0.864 131.237  0.00  0.00    +0.045 A 
ENDBRANCH  10  22
BRANCH   4  27
ATOM     27  O   LIG A   1      -7.608   2.126 127.068  0.00  0.00    -0.389 OA
ATOM     28  H   LIG A   1      -7.704   1.366 127.669  0.00  0.00    +0.210 HD
ENDBRANCH   4  27
BRANCH  15  29
ATOM     29  C   LIG A   1      -7.708  -2.284 125.719  0.00  0.00    +0.126 C 
BRANCH  29  30
ATOM     30  C   LIG A   1      -9.024  -2.980 126.019  0.00  0.00    +0.307 C 
ATOM     31  O   LIG A   1      -9.280  -3.475 127.120  0.00  0.00    -0.251 OA
BRANCH  30  32
ATOM     32  O   LIG A   1      -9.894  -2.920 124.984  0.00  0.00    -0.468 OA
ATOM     33  C   LIG A   1      -9.370  -3.344 123.720  0.00  0.00    +0.280 C 
ENDBRANCH  30  32
ENDBRANCH  29  30
ENDBRANCH  15  29
TORSDOF 5
ENDMDL
MODEL 2
REMARK VINA RESULT:      -8.0      1.852      6.700
REMARK  Name = NuBBE_1293
REMARK  10 active torsions:
REMARK  status: ('A' for Active; 'I' for Inactive)
REMARK    1  A    between atoms: C_1  and  C_2
REMARK    2  A    between atoms: C_4  and  O_6
REMARK    3  A    between atoms: C_9  and  C_23
REMARK    4  A    between atoms: C_11  and  C_12
REMARK    5  A    between atoms: C_13  and  C_15
REMARK    6  A    between atoms: C_24  and  C_26
REMARK    7  A    between atoms: C_26  and  C_27
REMARK    8  A    between atoms: C_27  and  O_28
REMARK    9  A    between atoms: O_28  and  C_29
REMARK   10  A    between atoms: C_31  and  C_32
REMARK                            x       y       z     vdW  Elec       q    Type
REMARK                         _______ _______ _______ _____ _____    ______ ____
ROOT
ATOM      1  C   LIG A   1      -6.397   3.021 130.209  0.00  0.00    +0.020 C 
ATOM      2  C   LIG A   1      -7.133   1.956 129.353  0.00  0.00    +0.040 C 
ATOM      3  C   LIG A   1      -6.717   0.582 129.999  0.00  0.00    +0.059 C 
ATOM      4  C   LIG A   1      -6.623  -0.548 128.980  0.00  0.00    +0.152 C 
ATOM      5  C   LIG A   1      -5.488  -0.141 128.018  0.00  0.00    +0.158 C 
ATOM      6  C   LIG A   1      -5.861   1.044 127.093  0.00  0.00    +0.024 C 
ATOM      7  C   LIG A   1      -6.360   0.219 125.913  0.00  0.00    -0.033 C 
ATOM      8  C   LIG A   1      -6.815   0.404 124.662  0.00  0.00    -0.063 C 
ATOM      9  C   LIG A   1      -7.311   1.642 124.013  0.00  0.00    +0.040 C 
ATOM     10  C   LIG A   1      -6.633  -0.887 123.850  0.00  0.00    +0.051 C 
ATOM     11  C   LIG A   1      -5.616  -1.646 124.738  0.00  0.00    +0.048 C 
ATOM     12  C   LIG A   1      -6.054  -1.230 126.125  0.00  0.00    +0.146 C 
ATOM     13  O   LIG A   1      -5.087  -1.240 127.154  0.00  0.00    -0.366 OA
ATOM     14  C   LIG A   1      -4.523   1.682 126.633  0.00  0.00    +0.019 C 
ATOM     15  C   LIG A   1      -6.862   2.099 127.755  0.00  0.00    +0.026 C 
ATOM     16  C   LIG A   1      -7.493   0.175 131.251  0.00  0.00    -0.070 C 
ATOM     17  C   LIG A   1      -6.890  -0.912 132.103  0.00  0.00    +0.039 C 
ATOM     18  C   LIG A   1      -8.612   0.798 131.647  0.00  0.00    -0.020 C 
ATOM     19  C   LIG A   1      -9.255   1.929 130.929  0.00  0.00    +0.102 C 
ATOM     20  C   LIG A   1      -8.657   2.175 129.563  0.00  0.00    +0.144 C 
ATOM     21  O   LIG A   1      -9.384   2.671 128.695  0.00  0.00    -0.296 OA
ENDROOT
BRANCH  10  22
ATOM     22  C   LIG A   1      -7.899  -1.666 123.619  0.00  0.00    -0.003 A 
ATOM     23  C   LIG A   1      -9.086  -1.175 123.103  0.00  0.00    +0.199 A 
ATOM     24  O   LIG A   1     -10.028  -2.148 123.024  0.00  0.00    -0.471 OA
ATOM     25  C   LIG A   1      -9.457  -3.285 123.493  0.00  0.00    +0.195 A 
ATOM     26  C   LIG A   1      -8.156  -3.047 123.864  0.00  0.00    +0.045 A 
ENDBRANCH  10  22
BRANCH   4  27
ATOM     27  O   LIG A   1      -7.889  -0.720 128.348  0.00  0.00    -0.389 OA
ATOM     28  H   LIG A   1      -8.545  -0.215 128.860  0.00  0.00    +0.210 HD
ENDBRANCH   4  27
BRANCH  15  29
ATOM     29  C   LIG A   1      -6.563   3.569 127.290  0.00  0.00    +0.126 C 
BRANCH  29  30
ATOM     30  C   LIG A   1      -7.465   4.244 126.270  0.00  0.00    +0.307 C 
ATOM     31  O   LIG A   1      -8.656   3.951 126.137  0.00  0.00    -0.251 OA
BRANCH  30  32
ATOM     32  O   LIG A   1      -6.841   5.241 125.601  0.00  0.00    -0.468 OA
ATOM     33  C   LIG A   1      -5.670   4.848 124.872  0.00  0.00    +0.280 C 
ENDBRANCH  30  32
ENDBRANCH  29  30
ENDBRANCH  15  29
TORSDOF 5
ENDMDL
MODEL 3
REMARK VINA RESULT:      -7.8      4.881      7.427
REMARK  Name = NuBBE_1293
REMARK  10 active torsions:
REMARK  status: ('A' for Active; 'I' for Inactive)
REMARK    1  A    between atoms: C_1  and  C_2
REMARK    2  A    between atoms: C_4  and  O_6
REMARK    3  A    between atoms: C_9  and  C_23
REMARK    4  A    between atoms: C_11  and  C_12
REMARK    5  A    between atoms: C_13  and  C_15
REMARK    6  A    between atoms: C_24  and  C_26
REMARK    7  A    between atoms: C_26  and  C_27
REMARK    8  A    between atoms: C_27  and  O_28
REMARK    9  A    between atoms: O_28  and  C_29
REMARK   10  A    between atoms: C_31  and  C_32
REMARK                            x       y       z     vdW  Elec       q    Type
REMARK                         _______ _______ _______ _____ _____    ______ ____
ROOT
ATOM      1  C   LIG A   1      -3.383   4.140 130.208  0.00  0.00    +0.020 C 
ATOM      2  C   LIG A   1      -4.624   5.045 129.988  0.00  0.00    +0.040 C 
ATOM      3  C   LIG A   1      -4.421   6.236 130.998  0.00  0.00    +0.059 C 
ATOM      4  C   LIG A   1      -5.736   6.781 131.544  0.00  0.00    +0.152 C 
ATOM      5  C   LIG A   1      -6.365   5.619 132.340  0.00  0.00    +0.158 C 
ATOM      6  C   LIG A   1      -6.886   4.470 131.441  0.00  0.00    +0.024 C 
ATOM      7  C   LIG A   1      -8.323   4.959 131.313  0.00  0.00    -0.033 C 
ATOM      8  C   LIG A   1      -9.489   4.565 130.774  0.00  0.00    -0.063 C 
ATOM      9  C   LIG A   1      -9.749   3.521 129.754  0.00  0.00    +0.040 C 
ATOM     10  C   LIG A   1     -10.652   5.278 131.479  0.00  0.00    +0.051 C 
ATOM     11  C   LIG A   1      -9.947   5.783 132.762  0.00  0.00    +0.048 C 
ATOM     12  C   LIG A   1      -8.565   6.109 132.241  0.00  0.00    +0.146 C 
ATOM     13  O   LIG A   1      -7.487   6.060 133.152  0.00  0.00    -0.366 OA
ATOM     14  C   LIG A   1      -6.944   3.203 132.336  0.00  0.00    +0.019 C 
ATOM     15  C   LIG A   1      -6.040   4.252 130.103  0.00  0.00    +0.026 C 
ATOM     16  C   LIG A   1      -3.477   7.345 130.535  0.00  0.00    -0.070 C 
ATOM     17  C   LIG A   1      -2.964   8.288 131.592  0.00  0.00    +0.039 C 
ATOM     18  C   LIG A   1      -3.037   7.445 129.272  0.00  0.00    -0.020 C 
ATOM     19  C   LIG A   1      -3.416   6.529 128.165  0.00  0.00    +0.102 C 
ATOM     20  C   LIG A   1      -4.541   5.590 128.536  0.00  0.00    +0.144 C 
ATOM     21  O   LIG A   1      -5.278   5.187 127.630  0.00  0.00    -0.296 OA
ENDROOT
BRANCH  10  22
ATOM     22  C   LIG A   1     -11.279   6.391 130.683  0.00  0.00    -0.003 A 
ATOM     23  C   LIG A   1     -10.852   6.868 129.456  0.00  0.00    +0.199 A 
ATOM     24  O   LIG A   1     -11.647   7.877 129.017  0.00  0.00    -0.471 OA
ATOM     25  C   LIG A   1     -12.600   8.065 129.962  0.00  0.00    +0.195 A 
ATOM     26  C   LIG A   1     -12.425   7.180 130.999  0.00  0.00    +0.045 A 
ENDBRANCH  10  22
BRANCH   4  27
ATOM     27  O   LIG A   1      -6.538   7.249 130.462  0.00  0.00    -0.389 OA
ATOM     28  H   LIG A   1      -7.457   7.303 130.778  0.00  0.00    +0.210 HD
ENDBRANCH   4  27
BRANCH  15  29
ATOM     29  C   LIG A   1      -5.955   2.737 129.697  0.00  0.00    +0.126 C 
BRANCH  29  30
ATOM     30  C   LIG A   1      -6.158   2.323 128.250  0.00  0.00    +0.307 C 
ATOM     31  O   LIG A   1      -7.223   2.496 127.651  0.00  0.00    -0.251 OA
BRANCH  30  32
ATOM     32  O   LIG A   1      -5.031   1.830 127.685  0.00  0.00    -0.468 OA
ATOM     33  C   LIG A   1      -4.970   1.928 126.257  0.00  0.00    +0.280 C 
ENDBRANCH  30  32
ENDBRANCH  29  30
ENDBRANCH  15  29
TORSDOF 5
ENDMDL
MODEL 4
REMARK VINA RESULT:      -7.8      4.810      7.657
REMARK  Name = NuBBE_1293
REMARK  10 active torsions:
REMARK  status: ('A' for Active; 'I' for Inactive)
REMARK    1  A    between atoms: C_1  and  C_2
REMARK    2  A    between atoms: C_4  and  O_6
REMARK    3  A    between atoms: C_9  and  C_23
REMARK    4  A    between atoms: C_11  and  C_12
REMARK    5  A    between atoms: C_13  and  C_15
REMARK    6  A    between atoms: C_24  and  C_26
REMARK    7  A    between atoms: C_26  and  C_27
REMARK    8  A    between atoms: C_27  and  O_28
REMARK    9  A    between atoms: O_28  and  C_29
REMARK   10  A    between atoms: C_31  and  C_32
REMARK                            x       y       z     vdW  Elec       q    Type
REMARK                         _______ _______ _______ _____ _____    ______ ____
ROOT
ATOM      1  C   LIG A   1      -4.602   2.892 132.355  0.00  0.00    +0.020 C 
ATOM      2  C   LIG A   1      -5.493   3.800 131.467  0.00  0.00    +0.040 C 
ATOM      3  C   LIG A   1      -5.226   5.255 132.008  0.00  0.00    +0.059 C 
ATOM      4  C   LIG A   1      -6.448   6.160 131.901  0.00  0.00    +0.152 C 
ATOM      5  C   LIG A   1      -7.511   5.527 132.821  0.00  0.00    +0.158 C 
ATOM      6  C   LIG A   1      -8.092   4.202 132.268  0.00  0.00    +0.024 C 
ATOM      7  C   LIG A   1      -9.293   4.802 131.547  0.00  0.00    -0.033 C 
ATOM      8  C   LIG A   1     -10.370   4.398 130.852  0.00  0.00    -0.063 C 
ATOM      9  C   LIG A   1     -10.651   3.079 130.234  0.00  0.00    +0.040 C 
ATOM     10  C   LIG A   1     -11.442   5.497 130.874  0.00  0.00    +0.051 C 
ATOM     11  C   LIG A   1     -10.937   6.370 132.049  0.00  0.00    +0.048 C 
ATOM     12  C   LIG A   1      -9.436   6.251 131.893  0.00  0.00    +0.146 C 
ATOM     13  O   LIG A   1      -8.637   6.419 133.046  0.00  0.00    -0.366 OA
ATOM     14  C   LIG A   1      -8.667   3.430 133.486  0.00  0.00    +0.019 C 
ATOM     15  C   LIG A   1      -7.053   3.338 131.416  0.00  0.00    +0.026 C 
ATOM     16  C   LIG A   1      -3.954   5.929 131.496  0.00  0.00    -0.070 C 
ATOM     17  C   LIG A   1      -3.468   7.134 132.260  0.00  0.00    +0.039 C 
ATOM     18  C   LIG A   1      -3.232   5.443 130.476  0.00  0.00    -0.020 C 
ATOM     19  C   LIG A   1      -3.573   4.222 129.700  0.00  0.00    +0.102 C 
ATOM     20  C   LIG A   1      -4.953   3.690 130.015  0.00  0.00    +0.144 C 
ATOM     21  O   LIG A   1      -5.547   3.067 129.129  0.00  0.00    -0.296 OA
ENDROOT
BRANCH  10  22
ATOM     22  C   LIG A   1     -11.573   6.270 129.589  0.00  0.00    -0.003 A 
ATOM     23  C   LIG A   1     -12.751   6.579 128.931  0.00  0.00    +0.199 A 
ATOM     24  O   LIG A   1     -12.510   7.290 127.800  0.00  0.00    -0.471 OA
ATOM     25  C   LIG A   1     -11.167   7.447 127.715  0.00  0.00    +0.195 A 
ATOM     26  C   LIG A   1     -10.547   6.847 128.785  0.00  0.00    +0.045 A 
ENDBRANCH  10  22
BRANCH   4  27
ATOM     27  O   LIG A   1      -6.843   6.260 130.535  0.00  0.00    -0.389 OA
ATOM     28  H   LIG A   1      -7.424   7.037 130.452  0.00  0.00    +0.210 HD
ENDBRANCH   4  27
BRANCH  15  29
ATOM     29  C   LIG A   1      -7.265   1.795 131.611  0.00  0.00    +0.126 C 
BRANCH  29  30
ATOM     30  C   LIG A   1      -8.062   0.999 130.591  0.00  0.00    +0.307 C 
ATOM     31  O   LIG A   1      -7.886   1.111 129.375  0.00  0.00    -0.251 OA
BRANCH  30  32
ATOM     32  O   LIG A   1      -8.909   0.114 131.166  0.00  0.00    -0.468 OA
ATOM     33  C   LIG A   1      -8.317  -0.756 132.139  0.00  0.00    +0.280 C 
ENDBRANCH  30  32
ENDBRANCH  29  30
ENDBRANCH  15  29
TORSDOF 5
ENDMDL
MODEL 5
REMARK VINA RESULT:      -7.7      2.002      2.816
REMARK  Name = NuBBE_1293
REMARK  10 active torsions:
REMARK  status: ('A' for Active; 'I' for Inactive)
REMARK    1  A    between atoms: C_1  and  C_2
REMARK    2  A    between atoms: C_4  and  O_6
REMARK    3  A    between atoms: C_9  and  C_23
REMARK    4  A    between atoms: C_11  and  C_12
REMARK    5  A    between atoms: C_13  and  C_15
REMARK    6  A    between atoms: C_24  and  C_26
REMARK    7  A    between atoms: C_26  and  C_27
REMARK    8  A    between atoms: C_27  and  O_28
REMARK    9  A    between atoms: O_28  and  C_29
REMARK   10  A    between atoms: C_31  and  C_32
REMARK                            x       y       z     vdW  Elec       q    Type
REMARK                         _______ _______ _______ _____ _____    ______ ____
ROOT
ATOM      1  C   LIG A   1      -6.987  -0.349 123.173  0.00  0.00    +0.020 C 
ATOM      2  C   LIG A   1      -7.801   0.518 124.171  0.00  0.00    +0.040 C 
ATOM      3  C   LIG A   1      -7.748   1.968 123.560  0.00  0.00    +0.059 C 
ATOM      4  C   LIG A   1      -7.746   3.060 124.623  0.00  0.00    +0.152 C 
ATOM      5  C   LIG A   1      -6.438   2.860 125.416  0.00  0.00    +0.158 C 
ATOM      6  C   LIG A   1      -6.449   1.594 126.309  0.00  0.00    +0.024 C 
ATOM      7  C   LIG A   1      -6.943   2.263 127.587  0.00  0.00    -0.033 C 
ATOM      8  C   LIG A   1      -7.186   1.951 128.871  0.00  0.00    -0.063 C 
ATOM      9  C   LIG A   1      -7.342   0.618 129.502  0.00  0.00    +0.040 C 
ATOM     10  C   LIG A   1      -7.156   3.225 129.727  0.00  0.00    +0.051 C 
ATOM     11  C   LIG A   1      -6.432   4.201 128.768  0.00  0.00    +0.048 C 
ATOM     12  C   LIG A   1      -6.956   3.751 127.422  0.00  0.00    +0.146 C 
ATOM     13  O   LIG A   1      -6.151   3.988 126.286  0.00  0.00    -0.366 OA
ATOM     14  C   LIG A   1      -4.964   1.224 126.567  0.00  0.00    +0.019 C 
ATOM     15  C   LIG A   1      -7.301   0.381 125.714  0.00  0.00    +0.026 C 
ATOM     16  C   LIG A   1      -8.745   2.249 122.436  0.00  0.00    -0.070 C 
ATOM     17  C   LIG A   1      -8.482   3.462 121.581  0.00  0.00    +0.039 C 
ATOM     18  C   LIG A   1      -9.763   1.427 122.142  0.00  0.00    -0.020 C 
ATOM     19  C   LIG A   1     -10.073   0.167 122.868  0.00  0.00    +0.102 C 
ATOM     20  C   LIG A   1      -9.266   0.003 124.135  0.00  0.00    +0.144 C 
ATOM     21  O   LIG A   1      -9.763  -0.657 125.054  0.00  0.00    -0.296 OA
ENDROOT
BRANCH  10  22
ATOM     22  C   LIG A   1      -8.510   3.726 130.154  0.00  0.00    -0.003 A 
ATOM     23  C   LIG A   1      -8.782   4.931 130.779  0.00  0.00    +0.199 A 
ATOM     24  O   LIG A   1     -10.110   5.069 131.022  0.00  0.00    -0.471 OA
ATOM     25  C   LIG A   1     -10.713   3.947 130.556  0.00  0.00    +0.195 A 
ATOM     26  C   LIG A   1      -9.781   3.097 130.011  0.00  0.00    +0.045 A 
ENDBRANCH  10  22
BRANCH   4  27
ATOM     27  O   LIG A   1      -8.929   2.953 125.412  0.00  0.00    -0.389 OA
ATOM     28  H   LIG A   1      -9.388   2.137 125.146  0.00  0.00    +0.210 HD
ENDBRANCH   4  27
BRANCH  15  29
ATOM     29  C   LIG A   1      -6.663  -1.013 126.055  0.00  0.00    +0.126 C 
BRANCH  29  30
ATOM     30  C   LIG A   1      -7.554  -2.205 126.359  0.00  0.00    +0.307 C 
ATOM     31  O   LIG A   1      -7.613  -3.197 125.627  0.00  0.00    -0.251 OA
BRANCH  30  32
ATOM     32  O   LIG A   1      -8.197  -2.088 127.544  0.00  0.00    -0.468 OA
ATOM     33  C   LIG A   1      -8.261  -3.288 128.326  0.00  0.00    +0.280 C 
ENDBRANCH  30  32
ENDBRANCH  29  30
ENDBRANCH  15  29
TORSDOF 5
ENDMDL
MODEL 6
REMARK VINA RESULT:      -7.6      5.419      8.569
REMARK  Name = NuBBE_1293
REMARK  10 active torsions:
REMARK  status: ('A' for Active; 'I' for Inactive)
REMARK    1  A    between atoms: C_1  and  C_2
REMARK    2  A    between atoms: C_4  and  O_6
REMARK    3  A    between atoms: C_9  and  C_23
REMARK    4  A    between atoms: C_11  and  C_12
REMARK    5  A    between atoms: C_13  and  C_15
REMARK    6  A    between atoms: C_24  and  C_26
REMARK    7  A    between atoms: C_26  and  C_27
REMARK    8  A    between atoms: C_27  and  O_28
REMARK    9  A    between atoms: O_28  and  C_29
REMARK   10  A    between atoms: C_31  and  C_32
REMARK                            x       y       z     vdW  Elec       q    Type
REMARK                         _______ _______ _______ _____ _____    ______ ____
ROOT
ATOM      1  C   LIG A   1      -1.443   5.746 131.640  0.00  0.00    +0.020 C 
ATOM      2  C   LIG A   1      -2.965   6.041 131.682  0.00  0.00    +0.040 C 
ATOM      3  C   LIG A   1      -3.372   5.774 133.179  0.00  0.00    +0.059 C 
ATOM      4  C   LIG A   1      -4.790   5.232 133.320  0.00  0.00    +0.152 C 
ATOM      5  C   LIG A   1      -4.782   3.865 132.607  0.00  0.00    +0.158 C 
ATOM      6  C   LIG A   1      -4.674   3.977 131.066  0.00  0.00    +0.024 C 
ATOM      7  C   LIG A   1      -6.167   3.954 130.764  0.00  0.00    -0.033 C 
ATOM      8  C   LIG A   1      -6.992   3.945 129.703  0.00  0.00    -0.063 C 
ATOM      9  C   LIG A   1      -6.705   4.273 128.286  0.00  0.00    +0.040 C 
ATOM     10  C   LIG A   1      -8.360   3.382 130.116  0.00  0.00    +0.051 C 
ATOM     11  C   LIG A   1      -7.997   2.692 131.454  0.00  0.00    +0.048 C 
ATOM     12  C   LIG A   1      -6.942   3.629 132.003  0.00  0.00    +0.146 C 
ATOM     13  O   LIG A   1      -5.982   3.095 132.890  0.00  0.00    -0.366 OA
ATOM     14  C   LIG A   1      -4.116   2.618 130.563  0.00  0.00    +0.019 C 
ATOM     15  C   LIG A   1      -3.820   5.228 130.559  0.00  0.00    +0.026 C 
ATOM     16  C   LIG A   1      -3.082   6.911 134.157  0.00  0.00    -0.070 C 
ATOM     17  C   LIG A   1      -3.098   6.567 135.624  0.00  0.00    +0.039 C 
ATOM     18  C   LIG A   1      -2.737   8.144 133.759  0.00  0.00    -0.020 C 
ATOM     19  C   LIG A   1      -2.617   8.576 132.342  0.00  0.00    +0.102 C 
ATOM     20  C   LIG A   1      -3.148   7.551 131.366  0.00  0.00    +0.144 C 
ATOM     21  O   LIG A   1      -3.591   7.957 130.287  0.00  0.00    -0.296 OA
ENDROOT
BRANCH  10  22
ATOM     22  C   LIG A   1      -9.443   4.415 130.269  0.00  0.00    -0.003 A 
ATOM     23  C   LIG A   1     -10.787   4.172 130.489  0.00  0.00    +0.199 A 
ATOM     24  O   LIG A   1     -11.488   5.331 130.581  0.00  0.00    -0.471 OA
ATOM     25  C   LIG A   1     -10.598   6.340 130.419  0.00  0.00    +0.195 A 
ATOM     26  C   LIG A   1      -9.334   5.837 130.230  0.00  0.00    +0.045 A 
ENDBRANCH  10  22
BRANCH   4  27
ATOM     27  O   LIG A   1      -5.711   6.171 132.771  0.00  0.00    -0.389 OA
ATOM     28  H   LIG A   1      -6.609   5.868 132.991  0.00  0.00    +0.210 HD
ENDBRANCH   4  27
BRANCH  15  29
ATOM     29  C   LIG A   1      -3.008   4.902 129.255  0.00  0.00    +0.126 C 
BRANCH  29  30
ATOM     30  C   LIG A   1      -3.533   5.344 127.900  0.00  0.00    +0.307 C 
ATOM     31  O   LIG A   1      -4.037   6.454 127.710  0.00  0.00    -0.251 OA
BRANCH  30  32
ATOM     32  O   LIG A   1      -3.309   4.427 126.929  0.00  0.00    -0.468 OA
ATOM     33  C   LIG A   1      -2.220   3.528 127.177  0.00  0.00    +0.280 C 
ENDBRANCH  30  32
ENDBRANCH  29  30
ENDBRANCH  15  29
TORSDOF 5
ENDMDL
MODEL 7
REMARK VINA RESULT:      -7.6      2.464      5.836
REMARK  Name = NuBBE_1293
REMARK  10 active torsions:
REMARK  status: ('A' for Active; 'I' for Inactive)
REMARK    1  A    between atoms: C_1  and  C_2
REMARK    2  A    between atoms: C_4  and  O_6
REMARK    3  A    between atoms: C_9  and  C_23
REMARK    4  A    between atoms: C_11  and  C_12
REMARK    5  A    between atoms: C_13  and  C_15
REMARK    6  A    between atoms: C_24  and  C_26
REMARK    7  A    between atoms: C_26  and  C_27
REMARK    8  A    between atoms: C_27  and  O_28
REMARK    9  A    between atoms: O_28  and  C_29
REMARK   10  A    between atoms: C_31  and  C_32
REMARK                            x       y       z     vdW  Elec       q    Type
REMARK                         _______ _______ _______ _____ _____    ______ ____
ROOT
ATOM      1  C   LIG A   1      -8.424  -3.077 128.524  0.00  0.00    +0.020 C 
ATOM      2  C   LIG A   1      -7.334  -1.980 128.657  0.00  0.00    +0.040 C 
ATOM      3  C   LIG A   1      -7.651  -1.281 130.031  0.00  0.00    +0.059 C 
ATOM      4  C   LIG A   1      -7.304   0.204 130.034  0.00  0.00    +0.152 C 
ATOM      5  C   LIG A   1      -8.230   0.845 128.981  0.00  0.00    +0.158 C 
ATOM      6  C   LIG A   1      -7.856   0.470 127.525  0.00  0.00    +0.024 C 
ATOM      7  C   LIG A   1      -6.956   1.667 127.241  0.00  0.00    -0.033 C 
ATOM      8  C   LIG A   1      -6.256   2.195 126.224  0.00  0.00    -0.063 C 
ATOM      9  C   LIG A   1      -5.839   1.572 124.943  0.00  0.00    +0.040 C 
ATOM     10  C   LIG A   1      -6.015   3.690 126.482  0.00  0.00    +0.051 C 
ATOM     11  C   LIG A   1      -7.069   3.966 127.583  0.00  0.00    +0.048 C 
ATOM     12  C   LIG A   1      -7.051   2.663 128.354  0.00  0.00    +0.146 C 
ATOM     13  O   LIG A   1      -8.219   2.296 129.057  0.00  0.00    -0.366 OA
ATOM     14  C   LIG A   1      -9.135   0.685 126.672  0.00  0.00    +0.019 C 
ATOM     15  C   LIG A   1      -7.238  -0.994 127.365  0.00  0.00    +0.026 C 
ATOM     16  C   LIG A   1      -7.137  -2.003 131.276  0.00  0.00    -0.070 C 
ATOM     17  C   LIG A   1      -7.730  -1.587 132.597  0.00  0.00    +0.039 C 
ATOM     18  C   LIG A   1      -6.268  -3.023 131.219  0.00  0.00    -0.020 C 
ATOM     19  C   LIG A   1      -5.676  -3.565 129.969  0.00  0.00    +0.102 C 
ATOM     20  C   LIG A   1      -5.965  -2.707 128.759  0.00  0.00    +0.144 C 
ATOM     21  O   LIG A   1      -5.149  -2.723 127.832  0.00  0.00    -0.296 OA
ENDROOT
BRANCH  10  22
ATOM     22  C   LIG A   1      -4.616   4.034 126.916  0.00  0.00    -0.003 A 
ATOM     23  C   LIG A   1      -4.198   5.231 127.471  0.00  0.00    +0.199 A 
ATOM     24  O   LIG A   1      -2.869   5.206 127.749  0.00  0.00    -0.471 OA
ATOM     25  C   LIG A   1      -2.413   3.986 127.372  0.00  0.00    +0.195 A 
ATOM     26  C   LIG A   1      -3.440   3.230 126.862  0.00  0.00    +0.045 A 
ENDBRANCH  10  22
BRANCH   4  27
ATOM     27  O   LIG A   1      -5.913   0.364 129.764  0.00  0.00    -0.389 OA
ATOM     28  H   LIG A   1      -5.680  -0.249 129.045  0.00  0.00    +0.210 HD
ENDBRANCH   4  27
BRANCH  15  29
ATOM     29  C   LIG A   1      -7.664  -1.672 126.014  0.00  0.00    +0.126 C 
BRANCH  29  30
ATOM     30  C   LIG A   1      -6.607  -2.158 125.038  0.00  0.00    +0.307 C 
ATOM     31  O   LIG A   1      -5.501  -1.621 124.932  0.00  0.00    -0.251 OA
BRANCH  30  32
ATOM     32  O   LIG A   1      -6.984  -3.275 124.373  0.00  0.00    -0.468 OA
ATOM     33  C   LIG A   1      -8.249  -3.821 124.765  0.00  0.00    +0.280 C 
ENDBRANCH  30  32
ENDBRANCH  29  30
ENDBRANCH  15  29
TORSDOF 5
ENDMDL
MODEL 8
REMARK VINA RESULT:      -7.3      2.557      6.518
REMARK  Name = NuBBE_1293
REMARK  10 active torsions:
REMARK  status: ('A' for Active; 'I' for Inactive)
REMARK    1  A    between atoms: C_1  and  C_2
REMARK    2  A    between atoms: C_4  and  O_6
REMARK    3  A    between atoms: C_9  and  C_23
REMARK    4  A    between atoms: C_11  and  C_12
REMARK    5  A    between atoms: C_13  and  C_15
REMARK    6  A    between atoms: C_24  and  C_26
REMARK    7  A    between atoms: C_26  and  C_27
REMARK    8  A    between atoms: C_27  and  O_28
REMARK    9  A    between atoms: O_28  and  C_29
REMARK   10  A    between atoms: C_31  and  C_32
REMARK                            x       y       z     vdW  Elec       q    Type
REMARK                         _______ _______ _______ _____ _____    ______ ____
ROOT
ATOM      1  C   LIG A   1      -6.353   5.292 130.691  0.00  0.00    +0.020 C 
ATOM      2  C   LIG A   1      -7.178   4.145 130.049  0.00  0.00    +0.040 C 
ATOM      3  C   LIG A   1      -7.676   3.291 131.274  0.00  0.00    +0.059 C 
ATOM      4  C   LIG A   1      -7.791   1.805 130.953  0.00  0.00    +0.152 C 
ATOM      5  C   LIG A   1      -6.356   1.340 130.634  0.00  0.00    +0.158 C 
ATOM      6  C   LIG A   1      -5.820   1.880 129.285  0.00  0.00    +0.024 C 
ATOM      7  C   LIG A   1      -6.233   0.694 128.423  0.00  0.00    -0.033 C 
ATOM      8  C   LIG A   1      -6.121   0.271 127.152  0.00  0.00    -0.063 C 
ATOM      9  C   LIG A   1      -5.751   1.033 125.935  0.00  0.00    +0.040 C 
ATOM     10  C   LIG A   1      -6.305  -1.253 127.096  0.00  0.00    +0.051 C 
ATOM     11  C   LIG A   1      -6.101  -1.623 128.586  0.00  0.00    +0.048 C 
ATOM     12  C   LIG A   1      -6.718  -0.430 129.283  0.00  0.00    +0.146 C 
ATOM     13  O   LIG A   1      -6.254  -0.109 130.578  0.00  0.00    -0.366 OA
ATOM     14  C   LIG A   1      -4.271   1.826 129.373  0.00  0.00    +0.019 C 
ATOM     15  C   LIG A   1      -6.373   3.327 128.895  0.00  0.00    +0.026 C 
ATOM     16  C   LIG A   1      -8.908   3.828 132.000  0.00  0.00    -0.070 C 
ATOM     17  C   LIG A   1      -9.185   3.273 133.373  0.00  0.00    +0.039 C 
ATOM     18  C   LIG A   1      -9.673   4.812 131.505  0.00  0.00    -0.020 C 
ATOM     19  C   LIG A   1      -9.452   5.484 130.198  0.00  0.00    +0.102 C 
ATOM     20  C   LIG A   1      -8.404   4.798 129.353  0.00  0.00    +0.144 C 
ATOM     21  O   LIG A   1      -8.496   4.899 128.125  0.00  0.00    -0.296 OA
ENDROOT
BRANCH  10  22
ATOM     22  C   LIG A   1      -7.637  -1.704 126.562  0.00  0.00    -0.003 A 
ATOM     23  C   LIG A   1      -8.498  -0.968 125.766  0.00  0.00    +0.199 A 
ATOM     24  O   LIG A   1      -9.613  -1.678 125.461  0.00  0.00    -0.471 OA
ATOM     25  C   LIG A   1      -9.485  -2.887 126.060  0.00  0.00    +0.195 A 
ATOM     26  C   LIG A   1      -8.294  -2.957 126.741  0.00  0.00    +0.045 A 
ENDBRANCH  10  22
BRANCH   4  27
ATOM     27  O   LIG A   1      -8.715   1.625 129.881  0.00  0.00    -0.389 OA
ATOM     28  H   LIG A   1      -8.844   0.667 129.762  0.00  0.00    +0.210 HD
ENDBRANCH   4  27
BRANCH  15  29
ATOM     29  C   LIG A   1      -5.298   4.187 128.139  0.00  0.00    +0.126 C 
BRANCH  29  30
ATOM     30  C   LIG A   1      -5.438   4.444 126.648  0.00  0.00    +0.307 C 
ATOM     31  O   LIG A   1      -6.447   4.952 126.152  0.00  0.00    -0.251 OA
BRANCH  30  32
ATOM     32  O   LIG A   1      -4.316   4.134 125.957  0.00  0.00    -0.468 OA
ATOM     33  C   LIG A   1      -3.110   4.108 126.731  0.00  0.00    +0.280 C 
ENDBRANCH  30  32
ENDBRANCH  29  30
ENDBRANCH  15  29
TORSDOF 5
ENDMDL
MODEL 9
REMARK VINA RESULT:      -7.2      4.395      7.626
REMARK  Name = NuBBE_1293
REMARK  10 active torsions:
REMARK  status: ('A' for Active; 'I' for Inactive)
REMARK    1  A    between atoms: C_1  and  C_2
REMARK    2  A    between atoms: C_4  and  O_6
REMARK    3  A    between atoms: C_9  and  C_23
REMARK    4  A    between atoms: C_11  and  C_12
REMARK    5  A    between atoms: C_13  and  C_15
REMARK    6  A    between atoms: C_24  and  C_26
REMARK    7  A    between atoms: C_26  and  C_27
REMARK    8  A    between atoms: C_27  and  O_28
REMARK    9  A    between atoms: O_28  and  C_29
REMARK   10  A    between atoms: C_31  and  C_32
REMARK                            x       y       z     vdW  Elec       q    Type
REMARK                         _______ _______ _______ _____ _____    ______ ____
ROOT
ATOM      1  C   LIG A   1      -5.840   7.560 130.458  0.00  0.00    +0.020 C 
ATOM      2  C   LIG A   1      -5.603   6.117 130.975  0.00  0.00    +0.040 C 
ATOM      3  C   LIG A   1      -4.674   5.461 129.887  0.00  0.00    +0.059 C 
ATOM      4  C   LIG A   1      -4.927   3.967 129.713  0.00  0.00    +0.152 C 
ATOM      5  C   LIG A   1      -6.375   3.852 129.196  0.00  0.00    +0.158 C 
ATOM      6  C   LIG A   1      -7.439   4.197 130.267  0.00  0.00    +0.024 C 
ATOM      7  C   LIG A   1      -7.670   2.779 130.775  0.00  0.00    -0.033 C 
ATOM      8  C   LIG A   1      -8.456   2.125 131.647  0.00  0.00    -0.063 C 
ATOM      9  C   LIG A   1      -9.284   2.663 132.754  0.00  0.00    +0.040 C 
ATOM     10  C   LIG A   1      -8.522   0.639 131.269  0.00  0.00    +0.051 C 
ATOM     11  C   LIG A   1      -8.000   0.687 129.813  0.00  0.00    +0.048 C 
ATOM     12  C   LIG A   1      -6.969   1.792 129.896  0.00  0.00    +0.146 C 
ATOM     13  O   LIG A   1      -6.677   2.513 128.717  0.00  0.00    -0.366 OA
ATOM     14  C   LIG A   1      -8.728   4.590 129.497  0.00  0.00    +0.019 C 
ATOM     15  C   LIG A   1      -6.975   5.310 131.315  0.00  0.00    +0.026 C 
ATOM     16  C   LIG A   1      -3.186   5.791 129.999  0.00  0.00    -0.070 C 
ATOM     17  C   LIG A   1      -2.333   5.509 128.789  0.00  0.00    +0.039 C 
ATOM     18  C   LIG A   1      -2.652   6.389 131.074  0.00  0.00    -0.020 C 
ATOM     19  C   LIG A   1      -3.409   6.781 132.291  0.00  0.00    +0.102 C 
ATOM     20  C   LIG A   1      -4.818   6.234 132.311  0.00  0.00    +0.144 C 
ATOM     21  O   LIG A   1      -5.340   6.023 133.411  0.00  0.00    -0.296 OA
ENDROOT
BRANCH  10  22
ATOM     22  C   LIG A   1      -7.708  -0.269 132.150  0.00  0.00    -0.003 A 
ATOM     23  C   LIG A   1      -7.721  -1.653 132.142  0.00  0.00    +0.199 A 
ATOM     24  O   LIG A   1      -6.862  -2.159 133.064  0.00  0.00    -0.471 OA
ATOM     25  C   LIG A   1      -6.284  -1.100 133.682  0.00  0.00    +0.195 A 
ATOM     26  C   LIG A   1      -6.761   0.077 133.158  0.00  0.00    +0.045 A 
ENDBRANCH  10  22
BRANCH   4  27
ATOM     27  O   LIG A   1      -4.695   3.302 130.953  0.00  0.00    -0.389 OA
ATOM     28  H   LIG A   1      -5.293   3.695 131.614  0.00  0.00    +0.210 HD
ENDBRANCH   4  27
BRANCH  15  29
ATOM     29  C   LIG A   1      -8.163   6.235 131.761  0.00  0.00    +0.126 C 
BRANCH  29  30
ATOM     30  C   LIG A   1      -8.861   5.994 133.089  0.00  0.00    +0.307 C 
ATOM     31  O   LIG A   1      -8.289   5.493 134.060  0.00  0.00    -0.251 OA
BRANCH  30  32
ATOM     32  O   LIG A   1     -10.131   6.461 133.103  0.00  0.00    -0.468 OA
ATOM     33  C   LIG A   1     -10.885   6.218 131.908  0.00  0.00    +0.280 C 
ENDBRANCH  30  32
ENDBRANCH  29  30
ENDBRANCH  15  29
TORSDOF 5
ENDMDL
