MODEL 1
REMARK VINA RESULT:      -7.9      0.000      0.000
REMARK  Name = NuBBE_2364
REMARK  8 active torsions:
REMARK  status: ('A' for Active; 'I' for Inactive)
REMARK    1  A    between atoms: C_1  and  C_2
REMARK    2  A    between atoms: C_2  and  C_3
REMARK    3  A    between atoms: C_3  and  O_4
REMARK    4  A    between atoms: C_9  and  C_10
REMARK    5  A    between atoms: C_18  and  O_19
REMARK    6  A    between atoms: C_20  and  C_21
REMARK    7  A    between atoms: C_21  and  C_22
REMARK    8  A    between atoms: C_21  and  C_23
REMARK                            x       y       z     vdW  Elec       q    Type
REMARK                         _______ _______ _______ _____ _____    ______ ____
ROOT
ATOM      1  C   LIG A   1      -5.496  -5.112 130.873  0.00  0.00    +0.023 C 
ATOM      2  C   LIG A   1      -5.591  -3.574 131.003  0.00  0.00    +0.068 C 
ATOM      3  C   LIG A   1      -4.175  -2.977 131.066  0.00  0.00    +0.018 C 
ATOM      4  C   LIG A   1      -3.401  -3.097 129.760  0.00  0.00    +0.002 C 
ATOM      5  C   LIG A   1      -4.266  -3.129 128.500  0.00  0.00    +0.012 C 
ATOM      6  C   LIG A   1      -5.604  -2.356 128.601  0.00  0.00    -0.003 C 
ATOM      7  C   LIG A   1      -5.309  -0.842 128.814  0.00  0.00    +0.016 C 
ATOM      8  C   LIG A   1      -6.431  -2.887 129.847  0.00  0.00    +0.016 C 
ATOM      9  C   LIG A   1      -7.626  -3.768 129.431  0.00  0.00    +0.010 C 
ATOM     10  C   LIG A   1      -8.517  -3.031 128.447  0.00  0.00    +0.036 C 
ATOM     11  C   LIG A   1      -7.743  -2.731 127.197  0.00  0.00    -0.043 A 
ATOM     12  C   LIG A   1      -6.370  -2.436 127.254  0.00  0.00    -0.035 A 
ATOM     13  C   LIG A   1      -5.719  -2.158 126.036  0.00  0.00    +0.050 A 
ATOM     14  C   LIG A   1      -6.405  -2.181 124.815  0.00  0.00    +0.121 A 
ATOM     15  C   LIG A   1      -7.772  -2.452 124.752  0.00  0.00    -0.003 A 
ATOM     16  C   LIG A   1      -8.429  -2.721 125.963  0.00  0.00    +0.011 A 
ENDROOT
BRANCH  15  17
ATOM     17  C   LIG A   1      -8.522  -2.454 123.428  0.00  0.00    +0.016 C 
ATOM     18  C   LIG A   1      -9.044  -1.060 123.067  0.00  0.00    +0.012 C 
ATOM     19  C   LIG A   1      -9.664  -3.475 123.417  0.00  0.00    +0.012 C 
ENDBRANCH  15  17
BRANCH   2  20
ATOM     20  C   LIG A   1      -6.264  -3.279 132.353  0.00  0.00    +0.311 C 
ATOM     21  O   LIG A   1      -6.329  -4.015 133.325  0.00  0.00    -0.250 OA
BRANCH  20  22
ATOM     22  O   LIG A   1      -6.838  -2.059 132.412  0.00  0.00    -0.480 OA
ATOM     23  H   LIG A   1      -6.332  -1.531 131.758  0.00  0.00    +0.295 HD
ENDBRANCH  20  22
ENDBRANCH   2  20
BRANCH  14  24
ATOM     24  O   LIG A   1      -5.722  -1.923 123.657  0.00  0.00    -0.506 OA
ATOM     25  H   LIG A   1      -5.956  -2.595 122.999  0.00  0.00    +0.292 HD
ENDBRANCH  14  24
TORSDOF 4
ENDMDL
MODEL 2
REMARK VINA RESULT:      -7.5      2.182      6.892
REMARK  Name = NuBBE_2364
REMARK  8 active torsions:
REMARK  status: ('A' for Active; 'I' for Inactive)
REMARK    1  A    between atoms: C_1  and  C_2
REMARK    2  A    between atoms: C_2  and  C_3
REMARK    3  A    between atoms: C_3  and  O_4
REMARK    4  A    between atoms: C_9  and  C_10
REMARK    5  A    between atoms: C_18  and  O_19
REMARK    6  A    between atoms: C_20  and  C_21
REMARK    7  A    between atoms: C_21  and  C_22
REMARK    8  A    between atoms: C_21  and  C_23
REMARK                            x       y       z     vdW  Elec       q    Type
REMARK                         _______ _______ _______ _____ _____    ______ ____
ROOT
ATOM      1  C   LIG A   1      -9.703   0.899 124.891  0.00  0.00    +0.023 C 
ATOM      2  C   LIG A   1      -8.825  -0.102 124.104  0.00  0.00    +0.068 C 
ATOM      3  C   LIG A   1      -7.698   0.658 123.386  0.00  0.00    +0.018 C 
ATOM      4  C   LIG A   1      -6.662   1.252 124.330  0.00  0.00    +0.002 C 
ATOM      5  C   LIG A   1      -6.486   0.500 125.649  0.00  0.00    +0.012 C 
ATOM      6  C   LIG A   1      -6.769  -1.021 125.581  0.00  0.00    -0.003 C 
ATOM      7  C   LIG A   1      -5.739  -1.694 124.628  0.00  0.00    +0.016 C 
ATOM      8  C   LIG A   1      -8.226  -1.265 124.999  0.00  0.00    +0.016 C 
ATOM      9  C   LIG A   1      -9.230  -1.703 126.085  0.00  0.00    +0.010 C 
ATOM     10  C   LIG A   1      -8.717  -2.925 126.827  0.00  0.00    +0.036 C 
ATOM     11  C   LIG A   1      -7.436  -2.583 127.532  0.00  0.00    -0.043 A 
ATOM     12  C   LIG A   1      -6.526  -1.673 126.968  0.00  0.00    -0.035 A 
ATOM     13  C   LIG A   1      -5.344  -1.412 127.691  0.00  0.00    +0.050 A 
ATOM     14  C   LIG A   1      -5.087  -2.026 128.923  0.00  0.00    +0.121 A 
ATOM     15  C   LIG A   1      -5.976  -2.946 129.479  0.00  0.00    -0.003 A 
ATOM     16  C   LIG A   1      -7.151  -3.217 128.760  0.00  0.00    +0.011 A 
ENDROOT
BRANCH  15  17
ATOM     17  C   LIG A   1      -5.685  -3.630 130.806  0.00  0.00    +0.016 C 
ATOM     18  C   LIG A   1      -5.640  -5.155 130.664  0.00  0.00    +0.012 C 
ATOM     19  C   LIG A   1      -6.683  -3.221 131.893  0.00  0.00    +0.012 C 
ENDBRANCH  15  17
BRANCH   2  20
ATOM     20  C   LIG A   1      -9.716  -0.720 123.015  0.00  0.00    +0.311 C 
ATOM     21  O   LIG A   1      -9.790  -1.897 122.697  0.00  0.00    -0.250 OA
BRANCH  20  22
ATOM     22  O   LIG A   1     -10.475   0.186 122.363  0.00  0.00    -0.480 OA
ATOM     23  H   LIG A   1     -11.253   0.303 122.947  0.00  0.00    +0.295 HD
ENDBRANCH  20  22
ENDBRANCH   2  20
BRANCH  14  24
ATOM     24  O   LIG A   1      -3.933  -1.723 129.594  0.00  0.00    -0.506 OA
ATOM     25  H   LIG A   1      -4.111  -0.997 130.211  0.00  0.00    +0.292 HD
ENDBRANCH  14  24
TORSDOF 4
ENDMDL
MODEL 3
REMARK VINA RESULT:      -7.3      4.067      7.183
REMARK  Name = NuBBE_2364
REMARK  8 active torsions:
REMARK  status: ('A' for Active; 'I' for Inactive)
REMARK    1  A    between atoms: C_1  and  C_2
REMARK    2  A    between atoms: C_2  and  C_3
REMARK    3  A    between atoms: C_3  and  O_4
REMARK    4  A    between atoms: C_9  and  C_10
REMARK    5  A    between atoms: C_18  and  O_19
REMARK    6  A    between atoms: C_20  and  C_21
REMARK    7  A    between atoms: C_21  and  C_22
REMARK    8  A    between atoms: C_21  and  C_23
REMARK                            x       y       z     vdW  Elec       q    Type
REMARK                         _______ _______ _______ _____ _____    ______ ____
ROOT
ATOM      1  C   LIG A   1      -5.486   3.552 124.940  0.00  0.00    +0.023 C 
ATOM      2  C   LIG A   1      -7.025   3.593 124.804  0.00  0.00    +0.068 C 
ATOM      3  C   LIG A   1      -7.412   3.497 123.319  0.00  0.00    +0.018 C 
ATOM      4  C   LIG A   1      -7.116   2.140 122.697  0.00  0.00    +0.002 C 
ATOM      5  C   LIG A   1      -7.148   0.963 123.671  0.00  0.00    +0.012 C 
ATOM      6  C   LIG A   1      -8.112   1.130 124.872  0.00  0.00    -0.003 C 
ATOM      7  C   LIG A   1      -9.575   1.222 124.349  0.00  0.00    +0.016 C 
ATOM      8  C   LIG A   1      -7.770   2.474 125.645  0.00  0.00    +0.016 C 
ATOM      9  C   LIG A   1      -7.052   2.217 126.986  0.00  0.00    +0.010 C 
ATOM     10  C   LIG A   1      -7.861   1.269 127.853  0.00  0.00    +0.036 C 
ATOM     11  C   LIG A   1      -7.984  -0.060 127.165  0.00  0.00    -0.043 A 
ATOM     12  C   LIG A   1      -8.077  -0.138 125.765  0.00  0.00    -0.035 A 
ATOM     13  C   LIG A   1      -8.197  -1.423 125.199  0.00  0.00    +0.050 A 
ATOM     14  C   LIG A   1      -8.214  -2.577 125.993  0.00  0.00    +0.121 A 
ATOM     15  C   LIG A   1      -8.142  -2.505 127.383  0.00  0.00    -0.003 A 
ATOM     16  C   LIG A   1      -8.032  -1.228 127.955  0.00  0.00    +0.011 A 
ENDROOT
BRANCH  15  17
ATOM     17  C   LIG A   1      -8.184  -3.757 128.248  0.00  0.00    +0.016 C 
ATOM     18  C   LIG A   1      -9.618  -4.247 128.473  0.00  0.00    +0.012 C 
ATOM     19  C   LIG A   1      -7.468  -3.554 129.587  0.00  0.00    +0.012 C 
ENDBRANCH  15  17
BRANCH   2  20
ATOM     20  C   LIG A   1      -7.482   4.975 125.300  0.00  0.00    +0.311 C 
ATOM     21  O   LIG A   1      -8.530   5.250 125.863  0.00  0.00    -0.250 OA
BRANCH  20  22
ATOM     22  O   LIG A   1      -6.592   5.957 125.050  0.00  0.00    -0.480 OA
ATOM     23  H   LIG A   1      -5.744   5.594 125.382  0.00  0.00    +0.295 HD
ENDBRANCH  20  22
ENDBRANCH   2  20
BRANCH  14  24
ATOM     24  O   LIG A   1      -8.312  -3.803 125.391  0.00  0.00    -0.506 OA
ATOM     25  H   LIG A   1      -8.780  -3.701 124.548  0.00  0.00    +0.292 HD
ENDBRANCH  14  24
TORSDOF 4
ENDMDL
MODEL 4
REMARK VINA RESULT:      -7.2      8.984     10.424
REMARK  Name = NuBBE_2364
REMARK  8 active torsions:
REMARK  status: ('A' for Active; 'I' for Inactive)
REMARK    1  A    between atoms: C_1  and  C_2
REMARK    2  A    between atoms: C_2  and  C_3
REMARK    3  A    between atoms: C_3  and  O_4
REMARK    4  A    between atoms: C_9  and  C_10
REMARK    5  A    between atoms: C_18  and  O_19
REMARK    6  A    between atoms: C_20  and  C_21
REMARK    7  A    between atoms: C_21  and  C_22
REMARK    8  A    between atoms: C_21  and  C_23
REMARK                            x       y       z     vdW  Elec       q    Type
REMARK                         _______ _______ _______ _____ _____    ______ ____
ROOT
ATOM      1  C   LIG A   1      -4.497   6.716 134.844  0.00  0.00    +0.023 C 
ATOM      2  C   LIG A   1      -4.778   5.285 134.330  0.00  0.00    +0.068 C 
ATOM      3  C   LIG A   1      -5.275   4.410 135.492  0.00  0.00    +0.018 C 
ATOM      4  C   LIG A   1      -6.657   4.797 136.001  0.00  0.00    +0.002 C 
ATOM      5  C   LIG A   1      -7.570   5.442 134.959  0.00  0.00    +0.012 C 
ATOM      6  C   LIG A   1      -7.322   4.990 133.499  0.00  0.00    -0.003 C 
ATOM      7  C   LIG A   1      -7.627   3.469 133.371  0.00  0.00    +0.016 C 
ATOM      8  C   LIG A   1      -5.800   5.232 133.119  0.00  0.00    +0.016 C 
ATOM      9  C   LIG A   1      -5.611   6.439 132.179  0.00  0.00    +0.010 C 
ATOM     10  C   LIG A   1      -6.475   6.293 130.939  0.00  0.00    +0.036 C 
ATOM     11  C   LIG A   1      -7.923   6.275 131.336  0.00  0.00    -0.043 A 
ATOM     12  C   LIG A   1      -8.329   5.688 132.546  0.00  0.00    -0.035 A 
ATOM     13  C   LIG A   1      -9.707   5.707 132.840  0.00  0.00    +0.050 A 
ATOM     14  C   LIG A   1     -10.636   6.292 131.971  0.00  0.00    +0.121 A 
ATOM     15  C   LIG A   1     -10.242   6.858 130.759  0.00  0.00    -0.003 A 
ATOM     16  C   LIG A   1      -8.872   6.835 130.455  0.00  0.00    +0.011 A 
ENDROOT
BRANCH  15  17
ATOM     17  C   LIG A   1     -11.254   7.473 129.802  0.00  0.00    +0.016 C 
ATOM     18  C   LIG A   1     -12.148   6.409 129.156  0.00  0.00    +0.012 C 
ATOM     19  C   LIG A   1     -10.580   8.333 128.729  0.00  0.00    +0.012 C 
ENDBRANCH  15  17
BRANCH   2  20
ATOM     20  C   LIG A   1      -3.432   4.702 133.871  0.00  0.00    +0.311 C 
ATOM     21  O   LIG A   1      -3.250   3.711 133.181  0.00  0.00    -0.250 OA
BRANCH  20  22
ATOM     22  O   LIG A   1      -2.364   5.396 134.318  0.00  0.00    -0.480 OA
ATOM     23  H   LIG A   1      -1.639   5.122 133.717  0.00  0.00    +0.295 HD
ENDBRANCH  20  22
ENDBRANCH   2  20
BRANCH  14  24
ATOM     24  O   LIG A   1     -11.961   6.301 132.313  0.00  0.00    -0.506 OA
ATOM     25  H   LIG A   1     -12.074   6.834 133.115  0.00  0.00    +0.292 HD
ENDBRANCH  14  24
TORSDOF 4
ENDMDL
MODEL 5
REMARK VINA RESULT:      -7.2      3.882      6.724
REMARK  Name = NuBBE_2364
REMARK  8 active torsions:
REMARK  status: ('A' for Active; 'I' for Inactive)
REMARK    1  A    between atoms: C_1  and  C_2
REMARK    2  A    between atoms: C_2  and  C_3
REMARK    3  A    between atoms: C_3  and  O_4
REMARK    4  A    between atoms: C_9  and  C_10
REMARK    5  A    between atoms: C_18  and  O_19
REMARK    6  A    between atoms: C_20  and  C_21
REMARK    7  A    between atoms: C_21  and  C_22
REMARK    8  A    between atoms: C_21  and  C_23
REMARK                            x       y       z     vdW  Elec       q    Type
REMARK                         _______ _______ _______ _____ _____    ______ ____
ROOT
ATOM      1  C   LIG A   1      -7.905  -2.262 122.422  0.00  0.00    +0.023 C 
ATOM      2  C   LIG A   1      -8.090  -2.593 123.921  0.00  0.00    +0.068 C 
ATOM      3  C   LIG A   1      -7.132  -3.728 124.318  0.00  0.00    +0.018 C 
ATOM      4  C   LIG A   1      -5.664  -3.323 124.303  0.00  0.00    +0.002 C 
ATOM      5  C   LIG A   1      -5.402  -1.842 124.576  0.00  0.00    +0.012 C 
ATOM      6  C   LIG A   1      -6.444  -1.147 125.487  0.00  0.00    -0.003 C 
ATOM      7  C   LIG A   1      -6.409  -1.799 126.900  0.00  0.00    +0.016 C 
ATOM      8  C   LIG A   1      -7.897  -1.344 124.879  0.00  0.00    +0.016 C 
ATOM      9  C   LIG A   1      -8.446  -0.058 124.230  0.00  0.00    +0.010 C 
ATOM     10  C   LIG A   1      -8.410   1.096 125.217  0.00  0.00    +0.036 C 
ATOM     11  C   LIG A   1      -6.988   1.379 125.607  0.00  0.00    -0.043 A 
ATOM     12  C   LIG A   1      -6.051   0.337 125.713  0.00  0.00    -0.035 A 
ATOM     13  C   LIG A   1      -4.739   0.686 126.091  0.00  0.00    +0.050 A 
ATOM     14  C   LIG A   1      -4.377   2.015 126.344  0.00  0.00    +0.121 A 
ATOM     15  C   LIG A   1      -5.306   3.052 126.260  0.00  0.00    -0.003 A 
ATOM     16  C   LIG A   1      -6.617   2.710 125.893  0.00  0.00    +0.011 A 
ENDROOT
BRANCH  15  17
ATOM     17  C   LIG A   1      -4.919   4.493 126.558  0.00  0.00    +0.016 C 
ATOM     18  C   LIG A   1      -5.068   4.828 128.045  0.00  0.00    +0.012 C 
ATOM     19  C   LIG A   1      -5.707   5.488 125.700  0.00  0.00    +0.012 C 
ENDBRANCH  15  17
BRANCH   2  20
ATOM     20  C   LIG A   1      -9.520  -3.133 124.087  0.00  0.00    +0.311 C 
ATOM     21  O   LIG A   1     -10.226  -3.637 123.228  0.00  0.00    -0.250 OA
BRANCH  20  22
ATOM     22  O   LIG A   1     -10.002  -3.003 125.341  0.00  0.00    -0.480 OA
ATOM     23  H   LIG A   1     -10.291  -2.067 125.384  0.00  0.00    +0.295 HD
ENDBRANCH  20  22
ENDBRANCH   2  20
BRANCH  14  24
ATOM     24  O   LIG A   1      -3.084   2.304 126.689  0.00  0.00    -0.506 OA
ATOM     25  H   LIG A   1      -3.028   3.239 126.938  0.00  0.00    +0.292 HD
ENDBRANCH  14  24
TORSDOF 4
ENDMDL
MODEL 6
REMARK VINA RESULT:      -7.1      3.321      6.900
REMARK  Name = NuBBE_2364
REMARK  8 active torsions:
REMARK  status: ('A' for Active; 'I' for Inactive)
REMARK    1  A    between atoms: C_1  and  C_2
REMARK    2  A    between atoms: C_2  and  C_3
REMARK    3  A    between atoms: C_3  and  O_4
REMARK    4  A    between atoms: C_9  and  C_10
REMARK    5  A    between atoms: C_18  and  O_19
REMARK    6  A    between atoms: C_20  and  C_21
REMARK    7  A    between atoms: C_21  and  C_22
REMARK    8  A    between atoms: C_21  and  C_23
REMARK                            x       y       z     vdW  Elec       q    Type
REMARK                         _______ _______ _______ _____ _____    ______ ____
ROOT
ATOM      1  C   LIG A   1      -7.245  -3.268 124.302  0.00  0.00    +0.023 C 
ATOM      2  C   LIG A   1      -8.348  -2.313 124.814  0.00  0.00    +0.068 C 
ATOM      3  C   LIG A   1      -9.052  -2.945 126.026  0.00  0.00    +0.018 C 
ATOM      4  C   LIG A   1      -8.172  -3.039 127.264  0.00  0.00    +0.002 C 
ATOM      5  C   LIG A   1      -7.083  -1.971 127.364  0.00  0.00    +0.012 C 
ATOM      6  C   LIG A   1      -7.427  -0.619 126.693  0.00  0.00    -0.003 C 
ATOM      7  C   LIG A   1      -8.645   0.022 127.420  0.00  0.00    +0.016 C 
ATOM      8  C   LIG A   1      -7.819  -0.862 125.175  0.00  0.00    +0.016 C 
ATOM      9  C   LIG A   1      -6.710  -0.417 124.199  0.00  0.00    +0.010 C 
ATOM     10  C   LIG A   1      -6.329   1.031 124.448  0.00  0.00    +0.036 C 
ATOM     11  C   LIG A   1      -5.770   1.173 125.834  0.00  0.00    -0.043 A 
ATOM     12  C   LIG A   1      -6.260   0.386 126.890  0.00  0.00    -0.035 A 
ATOM     13  C   LIG A   1      -5.687   0.586 128.162  0.00  0.00    +0.050 A 
ATOM     14  C   LIG A   1      -4.665   1.521 128.368  0.00  0.00    +0.121 A 
ATOM     15  C   LIG A   1      -4.187   2.319 127.329  0.00  0.00    -0.003 A 
ATOM     16  C   LIG A   1      -4.761   2.132 126.061  0.00  0.00    +0.011 A 
ENDROOT
BRANCH  15  17
ATOM     17  C   LIG A   1      -3.093   3.352 127.558  0.00  0.00    +0.016 C 
ATOM     18  C   LIG A   1      -3.605   4.781 127.348  0.00  0.00    +0.012 C 
ATOM     19  C   LIG A   1      -1.863   3.087 126.684  0.00  0.00    +0.012 C 
ENDBRANCH  15  17
BRANCH   2  20
ATOM     20  C   LIG A   1      -9.395  -2.197 123.695  0.00  0.00    +0.311 C 
ATOM     21  O   LIG A   1      -9.695  -1.197 123.061  0.00  0.00    -0.250 OA
BRANCH  20  22
ATOM     22  O   LIG A   1     -10.029  -3.358 123.429  0.00  0.00    -0.480 OA
ATOM     23  H   LIG A   1     -10.152  -3.340 122.456  0.00  0.00    +0.295 HD
ENDBRANCH  20  22
ENDBRANCH   2  20
BRANCH  14  24
ATOM     24  O   LIG A   1      -4.128   1.662 129.620  0.00  0.00    -0.506 OA
ATOM     25  H   LIG A   1      -3.278   1.197 129.650  0.00  0.00    +0.292 HD
ENDBRANCH  14  24
TORSDOF 4
ENDMDL
MODEL 7
REMARK VINA RESULT:      -7.1      2.450      7.266
REMARK  Name = NuBBE_2364
REMARK  8 active torsions:
REMARK  status: ('A' for Active; 'I' for Inactive)
REMARK    1  A    between atoms: C_1  and  C_2
REMARK    2  A    between atoms: C_2  and  C_3
REMARK    3  A    between atoms: C_3  and  O_4
REMARK    4  A    between atoms: C_9  and  C_10
REMARK    5  A    between atoms: C_18  and  O_19
REMARK    6  A    between atoms: C_20  and  C_21
REMARK    7  A    between atoms: C_21  and  C_22
REMARK    8  A    between atoms: C_21  and  C_23
REMARK                            x       y       z     vdW  Elec       q    Type
REMARK                         _______ _______ _______ _____ _____    ______ ____
ROOT
ATOM      1  C   LIG A   1      -7.085   0.081 123.262  0.00  0.00    +0.023 C 
ATOM      2  C   LIG A   1      -8.487  -0.452 123.634  0.00  0.00    +0.068 C 
ATOM      3  C   LIG A   1      -8.708  -1.822 122.971  0.00  0.00    +0.018 C 
ATOM      4  C   LIG A   1      -7.832  -2.927 123.544  0.00  0.00    +0.002 C 
ATOM      5  C   LIG A   1      -7.426  -2.735 125.005  0.00  0.00    +0.012 C 
ATOM      6  C   LIG A   1      -8.441  -1.950 125.871  0.00  0.00    -0.003 C 
ATOM      7  C   LIG A   1      -9.772  -2.751 125.957  0.00  0.00    +0.016 C 
ATOM      8  C   LIG A   1      -8.742  -0.545 125.196  0.00  0.00    +0.016 C 
ATOM      9  C   LIG A   1      -8.065   0.625 125.939  0.00  0.00    +0.010 C 
ATOM     10  C   LIG A   1      -8.452   0.621 127.407  0.00  0.00    +0.036 C 
ATOM     11  C   LIG A   1      -7.963  -0.643 128.052  0.00  0.00    -0.043 A 
ATOM     12  C   LIG A   1      -7.930  -1.850 127.334  0.00  0.00    -0.035 A 
ATOM     13  C   LIG A   1      -7.464  -2.993 128.015  0.00  0.00    +0.050 A 
ATOM     14  C   LIG A   1      -7.043  -2.932 129.349  0.00  0.00    +0.121 A 
ATOM     15  C   LIG A   1      -7.091  -1.742 130.074  0.00  0.00    -0.003 A 
ATOM     16  C   LIG A   1      -7.563  -0.602 129.405  0.00  0.00    +0.011 A 
ENDROOT
BRANCH  15  17
ATOM     17  C   LIG A   1      -6.655  -1.680 131.530  0.00  0.00    +0.016 C 
ATOM     18  C   LIG A   1      -7.804  -1.258 132.452  0.00  0.00    +0.012 C 
ATOM     19  C   LIG A   1      -5.443  -0.765 131.728  0.00  0.00    +0.012 C 
ENDBRANCH  15  17
BRANCH   2  20
ATOM     20  C   LIG A   1      -9.512   0.515 123.019  0.00  0.00    +0.311 C 
ATOM     21  O   LIG A   1      -9.445   1.734 122.973  0.00  0.00    -0.250 OA
BRANCH  20  22
ATOM     22  O   LIG A   1     -10.589  -0.104 122.493  0.00  0.00    -0.480 OA
ATOM     23  H   LIG A   1     -11.177   0.635 122.229  0.00  0.00    +0.295 HD
ENDBRANCH  20  22
ENDBRANCH   2  20
BRANCH  14  24
ATOM     24  O   LIG A   1      -6.581  -4.067 129.958  0.00  0.00    -0.506 OA
ATOM     25  H   LIG A   1      -6.374  -3.864 130.883  0.00  0.00    +0.292 HD
ENDBRANCH  14  24
TORSDOF 4
ENDMDL
MODEL 8
REMARK VINA RESULT:      -7.0      8.640     10.163
REMARK  Name = NuBBE_2364
REMARK  8 active torsions:
REMARK  status: ('A' for Active; 'I' for Inactive)
REMARK    1  A    between atoms: C_1  and  C_2
REMARK    2  A    between atoms: C_2  and  C_3
REMARK    3  A    between atoms: C_3  and  O_4
REMARK    4  A    between atoms: C_9  and  C_10
REMARK    5  A    between atoms: C_18  and  O_19
REMARK    6  A    between atoms: C_20  and  C_21
REMARK    7  A    between atoms: C_21  and  C_22
REMARK    8  A    between atoms: C_21  and  C_23
REMARK                            x       y       z     vdW  Elec       q    Type
REMARK                         _______ _______ _______ _____ _____    ______ ____
ROOT
ATOM      1  C   LIG A   1      -5.438   6.020 132.861  0.00  0.00    +0.023 C 
ATOM      2  C   LIG A   1      -6.194   4.671 132.873  0.00  0.00    +0.068 C 
ATOM      3  C   LIG A   1      -6.583   4.314 134.317  0.00  0.00    +0.018 C 
ATOM      4  C   LIG A   1      -7.644   5.231 134.910  0.00  0.00    +0.002 C 
ATOM      5  C   LIG A   1      -8.599   5.853 133.892  0.00  0.00    +0.012 C 
ATOM      6  C   LIG A   1      -8.855   5.001 132.625  0.00  0.00    -0.003 C 
ATOM      7  C   LIG A   1      -9.557   3.673 133.031  0.00  0.00    +0.016 C 
ATOM      8  C   LIG A   1      -7.471   4.647 131.933  0.00  0.00    +0.016 C 
ATOM      9  C   LIG A   1      -7.228   5.460 130.646  0.00  0.00    +0.010 C 
ATOM     10  C   LIG A   1      -8.388   5.294 129.681  0.00  0.00    +0.036 C 
ATOM     11  C   LIG A   1      -9.642   5.834 130.305  0.00  0.00    -0.043 A 
ATOM     12  C   LIG A   1      -9.861   5.724 131.689  0.00  0.00    -0.035 A 
ATOM     13  C   LIG A   1     -11.067   6.249 132.195  0.00  0.00    +0.050 A 
ATOM     14  C   LIG A   1     -12.008   6.864 131.359  0.00  0.00    +0.121 A 
ATOM     15  C   LIG A   1     -11.806   6.959 129.982  0.00  0.00    -0.003 A 
ATOM     16  C   LIG A   1     -10.611   6.429 129.470  0.00  0.00    +0.011 A 
ENDROOT
BRANCH  15  17
ATOM     17  C   LIG A   1     -12.839   7.606 129.071  0.00  0.00    +0.016 C 
ATOM     18  C   LIG A   1     -12.874   6.945 127.689  0.00  0.00    +0.012 C 
ATOM     19  C   LIG A   1     -12.621   9.116 128.938  0.00  0.00    +0.012 C 
ENDBRANCH  15  17
BRANCH   2  20
ATOM     20  C   LIG A   1      -5.203   3.597 132.395  0.00  0.00    +0.311 C 
ATOM     21  O   LIG A   1      -4.031   3.755 132.090  0.00  0.00    -0.250 OA
BRANCH  20  22
ATOM     22  O   LIG A   1      -5.743   2.364 132.316  0.00  0.00    -0.480 OA
ATOM     23  H   LIG A   1      -6.444   2.459 131.635  0.00  0.00    +0.295 HD
ENDBRANCH  20  22
ENDBRANCH   2  20
BRANCH  14  24
ATOM     24  O   LIG A   1     -13.154   7.376 131.903  0.00  0.00    -0.506 OA
ATOM     25  H   LIG A   1     -13.900   6.809 131.653  0.00  0.00    +0.292 HD
ENDBRANCH  14  24
TORSDOF 4
ENDMDL
MODEL 9
REMARK VINA RESULT:      -6.9      5.467      7.737
REMARK  Name = NuBBE_2364
REMARK  8 active torsions:
REMARK  status: ('A' for Active; 'I' for Inactive)
REMARK    1  A    between atoms: C_1  and  C_2
REMARK    2  A    between atoms: C_2  and  C_3
REMARK    3  A    between atoms: C_3  and  O_4
REMARK    4  A    between atoms: C_9  and  C_10
REMARK    5  A    between atoms: C_18  and  O_19
REMARK    6  A    between atoms: C_20  and  C_21
REMARK    7  A    between atoms: C_21  and  C_22
REMARK    8  A    between atoms: C_21  and  C_23
REMARK                            x       y       z     vdW  Elec       q    Type
REMARK                         _______ _______ _______ _____ _____    ______ ____
ROOT
ATOM      1  C   LIG A   1     -10.765   4.554 130.717  0.00  0.00    +0.023 C 
ATOM      2  C   LIG A   1      -9.255   4.710 131.006  0.00  0.00    +0.068 C 
ATOM      3  C   LIG A   1      -9.050   5.070 132.487  0.00  0.00    +0.018 C 
ATOM      4  C   LIG A   1      -9.401   3.940 133.446  0.00  0.00    +0.002 C 
ATOM      5  C   LIG A   1      -9.233   2.533 132.872  0.00  0.00    +0.012 C 
ATOM      6  C   LIG A   1      -8.133   2.391 131.792  0.00  0.00    -0.003 C 
ATOM      7  C   LIG A   1      -6.746   2.704 132.425  0.00  0.00    +0.016 C 
ATOM      8  C   LIG A   1      -8.397   3.432 130.623  0.00  0.00    +0.016 C 
ATOM      9  C   LIG A   1      -8.942   2.761 129.346  0.00  0.00    +0.010 C 
ATOM     10  C   LIG A   1      -8.019   1.643 128.894  0.00  0.00    +0.036 C 
ATOM     11  C   LIG A   1      -7.963   0.580 129.953  0.00  0.00    -0.043 A 
ATOM     12  C   LIG A   1      -8.040   0.917 131.315  0.00  0.00    -0.035 A 
ATOM     13  C   LIG A   1      -7.971  -0.139 132.245  0.00  0.00    +0.050 A 
ATOM     14  C   LIG A   1      -7.841  -1.472 131.835  0.00  0.00    +0.121 A 
ATOM     15  C   LIG A   1      -7.744  -1.812 130.486  0.00  0.00    -0.003 A 
ATOM     16  C   LIG A   1      -7.802  -0.764 129.554  0.00  0.00    +0.011 A 
ENDROOT
BRANCH  15  17
ATOM     17  C   LIG A   1      -7.579  -3.258 130.041  0.00  0.00    +0.016 C 
ATOM     18  C   LIG A   1      -6.104  -3.664 129.958  0.00  0.00    +0.012 C 
ATOM     19  C   LIG A   1      -8.288  -3.533 128.711  0.00  0.00    +0.012 C 
ENDBRANCH  15  17
BRANCH   2  20
ATOM     20  C   LIG A   1      -8.761   5.908 130.180  0.00  0.00    +0.311 C 
ATOM     21  O   LIG A   1      -9.373   6.513 129.313  0.00  0.00    -0.250 OA
BRANCH  20  22
ATOM     22  O   LIG A   1      -7.501   6.286 130.481  0.00  0.00    -0.480 OA
ATOM     23  H   LIG A   1      -7.097   6.471 129.606  0.00  0.00    +0.295 HD
ENDBRANCH  20  22
ENDBRANCH   2  20
BRANCH  14  24
ATOM     24  O   LIG A   1      -7.799  -2.463 132.778  0.00  0.00    -0.506 OA
ATOM     25  H   LIG A   1      -6.998  -2.991 132.643  0.00  0.00    +0.292 HD
ENDBRANCH  14  24
TORSDOF 4
ENDMDL
