MODEL 1
REMARK VINA RESULT:      -6.7      0.000      0.000
REMARK  Name = NuBBE_2293
REMARK  4 active torsions:
REMARK  status: ('A' for Active; 'I' for Inactive)
REMARK    1  A    between atoms: C_1  and  C_2
REMARK    2  A    between atoms: C_3  and  C_4
REMARK    3  A    between atoms: C_9  and  C_10
REMARK    4  A    between atoms: C_14  and  C_15
REMARK                            x       y       z     vdW  Elec       q    Type
REMARK                         _______ _______ _______ _____ _____    ______ ____
ROOT
ATOM      1  C   LIG A   1      -8.623  -3.659 128.126  0.00  0.00    +0.016 C 
ATOM      2  C   LIG A   1      -7.639  -2.559 127.755  0.00  0.00    +0.060 C 
ATOM      3  C   LIG A   1      -7.369  -1.481 128.843  0.00  0.00    +0.178 C 
ATOM      4  C   LIG A   1      -8.060  -1.684 130.185  0.00  0.00    +0.052 C 
ATOM      5  O   LIG A   1      -7.767  -0.174 128.336  0.00  0.00    -0.488 OA
ATOM      6  C   LIG A   1      -8.186  -0.363 127.026  0.00  0.00    +0.125 A 
ATOM      7  C   LIG A   1      -8.128  -1.702 126.653  0.00  0.00    +0.004 A 
ATOM      8  C   LIG A   1      -8.509  -1.968 125.332  0.00  0.00    -0.034 A 
ATOM      9  C   LIG A   1      -8.569  -3.244 124.552  0.00  0.00    +0.017 C 
ATOM     10  C   LIG A   1      -7.200  -3.884 124.370  0.00  0.00    +0.012 C 
ATOM     11  C   LIG A   1      -9.192  -2.807 123.202  0.00  0.00    +0.012 C 
ATOM     12  C   LIG A   1      -9.373  -1.271 123.217  0.00  0.00    +0.036 C 
ATOM     13  C   LIG A   1      -8.950  -0.843 124.596  0.00  0.00    -0.041 A 
ATOM     14  C   LIG A   1      -9.013   0.491 125.002  0.00  0.00    -0.043 A 
ATOM     15  C   LIG A   1      -9.486   1.615 124.134  0.00  0.00    +0.044 C 
ATOM     16  C   LIG A   1      -8.593   0.731 126.293  0.00  0.00    +0.049 A 
ENDROOT
TORSDOF 0
ENDMDL
MODEL 2
REMARK VINA RESULT:      -6.7      1.529      4.381
REMARK  Name = NuBBE_2293
REMARK  4 active torsions:
REMARK  status: ('A' for Active; 'I' for Inactive)
REMARK    1  A    between atoms: C_1  and  C_2
REMARK    2  A    between atoms: C_3  and  C_4
REMARK    3  A    between atoms: C_9  and  C_10
REMARK    4  A    between atoms: C_14  and  C_15
REMARK                            x       y       z     vdW  Elec       q    Type
REMARK                         _______ _______ _______ _____ _____    ______ ____
ROOT
ATOM      1  C   LIG A   1      -7.897  -4.062 124.689  0.00  0.00    +0.016 C 
ATOM      2  C   LIG A   1      -8.891  -2.946 124.973  0.00  0.00    +0.060 C 
ATOM      3  C   LIG A   1      -9.033  -1.853 123.875  0.00  0.00    +0.178 C 
ATOM      4  C   LIG A   1      -8.217  -2.059 122.605  0.00  0.00    +0.052 C 
ATOM      5  O   LIG A   1      -8.662  -0.558 124.432  0.00  0.00    -0.488 OA
ATOM      6  C   LIG A   1      -8.377  -0.766 125.775  0.00  0.00    +0.125 A 
ATOM      7  C   LIG A   1      -8.497  -2.107 126.126  0.00  0.00    +0.004 A 
ATOM      8  C   LIG A   1      -8.253  -2.392 127.476  0.00  0.00    -0.034 A 
ATOM      9  C   LIG A   1      -8.295  -3.675 128.245  0.00  0.00    +0.017 C 
ATOM     10  C   LIG A   1      -9.687  -4.288 128.285  0.00  0.00    +0.012 C 
ATOM     11  C   LIG A   1      -7.800  -3.261 129.654  0.00  0.00    +0.012 C 
ATOM     12  C   LIG A   1      -7.588  -1.729 129.673  0.00  0.00    +0.036 C 
ATOM     13  C   LIG A   1      -7.865  -1.282 128.263  0.00  0.00    -0.041 A 
ATOM     14  C   LIG A   1      -7.737   0.054 127.879  0.00  0.00    -0.043 A 
ATOM     15  C   LIG A   1      -7.330   1.161 128.800  0.00  0.00    +0.044 C 
ATOM     16  C   LIG A   1      -8.023   0.313 126.555  0.00  0.00    +0.049 A 
ENDROOT
TORSDOF 0
ENDMDL
MODEL 3
REMARK VINA RESULT:      -6.6      2.513      5.233
REMARK  Name = NuBBE_2293
REMARK  4 active torsions:
REMARK  status: ('A' for Active; 'I' for Inactive)
REMARK    1  A    between atoms: C_1  and  C_2
REMARK    2  A    between atoms: C_3  and  C_4
REMARK    3  A    between atoms: C_9  and  C_10
REMARK    4  A    between atoms: C_14  and  C_15
REMARK                            x       y       z     vdW  Elec       q    Type
REMARK                         _______ _______ _______ _____ _____    ______ ____
ROOT
ATOM      1  C   LIG A   1      -5.432  -0.148 125.953  0.00  0.00    +0.016 C 
ATOM      2  C   LIG A   1      -5.665  -1.614 125.618  0.00  0.00    +0.060 C 
ATOM      3  C   LIG A   1      -6.363  -1.908 124.259  0.00  0.00    +0.178 C 
ATOM      4  C   LIG A   1      -6.671  -0.704 123.380  0.00  0.00    +0.052 C 
ATOM      5  O   LIG A   1      -7.618  -2.608 124.503  0.00  0.00    -0.488 OA
ATOM      6  C   LIG A   1      -7.701  -2.816 125.874  0.00  0.00    +0.125 A 
ATOM      7  C   LIG A   1      -6.612  -2.271 126.545  0.00  0.00    +0.004 A 
ATOM      8  C   LIG A   1      -6.610  -2.467 127.933  0.00  0.00    -0.034 A 
ATOM      9  C   LIG A   1      -5.634  -2.063 128.992  0.00  0.00    +0.017 C 
ATOM     10  C   LIG A   1      -4.274  -2.723 128.818  0.00  0.00    +0.012 C 
ATOM     11  C   LIG A   1      -6.331  -2.505 130.305  0.00  0.00    +0.012 C 
ATOM     12  C   LIG A   1      -7.642  -3.241 129.943  0.00  0.00    +0.036 C 
ATOM     13  C   LIG A   1      -7.745  -3.138 128.445  0.00  0.00    -0.041 A 
ATOM     14  C   LIG A   1      -8.834  -3.663 127.747  0.00  0.00    -0.043 A 
ATOM     15  C   LIG A   1      -9.985  -4.372 128.389  0.00  0.00    +0.044 C 
ATOM     16  C   LIG A   1      -8.791  -3.492 126.379  0.00  0.00    +0.049 A 
ENDROOT
TORSDOF 0
ENDMDL
MODEL 4
REMARK VINA RESULT:      -6.5      2.285      3.180
REMARK  Name = NuBBE_2293
REMARK  4 active torsions:
REMARK  status: ('A' for Active; 'I' for Inactive)
REMARK    1  A    between atoms: C_1  and  C_2
REMARK    2  A    between atoms: C_3  and  C_4
REMARK    3  A    between atoms: C_9  and  C_10
REMARK    4  A    between atoms: C_14  and  C_15
REMARK                            x       y       z     vdW  Elec       q    Type
REMARK                         _______ _______ _______ _____ _____    ______ ____
ROOT
ATOM      1  C   LIG A   1      -4.996  -2.715 128.477  0.00  0.00    +0.016 C 
ATOM      2  C   LIG A   1      -6.369  -2.069 128.360  0.00  0.00    +0.060 C 
ATOM      3  C   LIG A   1      -7.457  -2.583 129.345  0.00  0.00    +0.178 C 
ATOM      4  C   LIG A   1      -7.013  -3.621 130.365  0.00  0.00    +0.052 C 
ATOM      5  O   LIG A   1      -8.562  -3.156 128.586  0.00  0.00    -0.488 OA
ATOM      6  C   LIG A   1      -8.264  -2.972 127.242  0.00  0.00    +0.125 A 
ATOM      7  C   LIG A   1      -7.029  -2.356 127.068  0.00  0.00    +0.004 A 
ATOM      8  C   LIG A   1      -6.670  -2.110 125.736  0.00  0.00    -0.034 A 
ATOM      9  C   LIG A   1      -5.461  -1.466 125.135  0.00  0.00    +0.017 C 
ATOM     10  C   LIG A   1      -5.323  -0.001 125.525  0.00  0.00    +0.012 C 
ATOM     11  C   LIG A   1      -5.684  -1.643 123.611  0.00  0.00    +0.012 C 
ATOM     12  C   LIG A   1      -7.069  -2.295 123.388  0.00  0.00    +0.036 C 
ATOM     13  C   LIG A   1      -7.592  -2.578 124.770  0.00  0.00    -0.041 A 
ATOM     14  C   LIG A   1      -8.821  -3.209 124.974  0.00  0.00    -0.043 A 
ATOM     15  C   LIG A   1      -9.733  -3.654 123.875  0.00  0.00    +0.044 C 
ATOM     16  C   LIG A   1      -9.168  -3.401 126.295  0.00  0.00    +0.049 A 
ENDROOT
TORSDOF 0
ENDMDL
MODEL 5
REMARK VINA RESULT:      -6.4      1.876      5.099
REMARK  Name = NuBBE_2293
REMARK  4 active torsions:
REMARK  status: ('A' for Active; 'I' for Inactive)
REMARK    1  A    between atoms: C_1  and  C_2
REMARK    2  A    between atoms: C_3  and  C_4
REMARK    3  A    between atoms: C_9  and  C_10
REMARK    4  A    between atoms: C_14  and  C_15
REMARK                            x       y       z     vdW  Elec       q    Type
REMARK                         _______ _______ _______ _____ _____    ______ ____
ROOT
ATOM      1  C   LIG A   1      -8.505   1.470 124.374  0.00  0.00    +0.016 C 
ATOM      2  C   LIG A   1      -8.109   0.046 124.014  0.00  0.00    +0.060 C 
ATOM      3  C   LIG A   1      -9.048  -0.700 123.023  0.00  0.00    +0.178 C 
ATOM      4  C   LIG A   1     -10.218   0.099 122.465  0.00  0.00    +0.052 C 
ATOM      5  O   LIG A   1      -9.594  -1.884 123.675  0.00  0.00    -0.488 OA
ATOM      6  C   LIG A   1      -9.017  -1.949 124.937  0.00  0.00    +0.125 A 
ATOM      7  C   LIG A   1      -8.165  -0.874 125.171  0.00  0.00    +0.004 A 
ATOM      8  C   LIG A   1      -7.522  -0.886 126.415  0.00  0.00    -0.034 A 
ATOM      9  C   LIG A   1      -6.537   0.055 127.033  0.00  0.00    +0.017 C 
ATOM     10  C   LIG A   1      -5.224   0.115 126.267  0.00  0.00    +0.012 C 
ATOM     11  C   LIG A   1      -6.350  -0.515 128.463  0.00  0.00    +0.012 C 
ATOM     12  C   LIG A   1      -7.161  -1.826 128.581  0.00  0.00    +0.036 C 
ATOM     13  C   LIG A   1      -7.882  -1.957 127.267  0.00  0.00    -0.041 A 
ATOM     14  C   LIG A   1      -8.754  -3.016 127.010  0.00  0.00    -0.043 A 
ATOM     15  C   LIG A   1      -9.057  -4.113 127.983  0.00  0.00    +0.044 C 
ATOM     16  C   LIG A   1      -9.342  -3.003 125.763  0.00  0.00    +0.049 A 
ENDROOT
TORSDOF 0
ENDMDL
MODEL 6
REMARK VINA RESULT:      -6.3      2.324      2.935
REMARK  Name = NuBBE_2293
REMARK  4 active torsions:
REMARK  status: ('A' for Active; 'I' for Inactive)
REMARK    1  A    between atoms: C_1  and  C_2
REMARK    2  A    between atoms: C_3  and  C_4
REMARK    3  A    between atoms: C_9  and  C_10
REMARK    4  A    between atoms: C_14  and  C_15
REMARK                            x       y       z     vdW  Elec       q    Type
REMARK                         _______ _______ _______ _____ _____    ______ ____
ROOT
ATOM      1  C   LIG A   1      -5.603  -0.954 127.244  0.00  0.00    +0.016 C 
ATOM      2  C   LIG A   1      -5.415  -0.297 125.885  0.00  0.00    +0.060 C 
ATOM      3  C   LIG A   1      -5.220   1.246 125.887  0.00  0.00    +0.178 C 
ATOM      4  C   LIG A   1      -5.164   1.921 127.251  0.00  0.00    +0.052 C 
ATOM      5  O   LIG A   1      -6.299   1.870 125.131  0.00  0.00    -0.488 OA
ATOM      6  C   LIG A   1      -7.081   0.840 124.624  0.00  0.00    +0.125 A 
ATOM      7  C   LIG A   1      -6.614  -0.407 125.025  0.00  0.00    +0.004 A 
ATOM      8  C   LIG A   1      -7.336  -1.500 124.527  0.00  0.00    -0.034 A 
ATOM      9  C   LIG A   1      -7.154  -2.975 124.702  0.00  0.00    +0.017 C 
ATOM     10  C   LIG A   1      -5.841  -3.476 124.119  0.00  0.00    +0.012 C 
ATOM     11  C   LIG A   1      -8.382  -3.574 123.971  0.00  0.00    +0.012 C 
ATOM     12  C   LIG A   1      -9.174  -2.421 123.311  0.00  0.00    +0.036 C 
ATOM     13  C   LIG A   1      -8.464  -1.166 123.741  0.00  0.00    -0.041 A 
ATOM     14  C   LIG A   1      -8.919   0.100 123.367  0.00  0.00    -0.043 A 
ATOM     15  C   LIG A   1     -10.125   0.344 122.514  0.00  0.00    +0.044 C 
ATOM     16  C   LIG A   1      -8.166   1.156 123.836  0.00  0.00    +0.049 A 
ENDROOT
TORSDOF 0
ENDMDL
MODEL 7
REMARK VINA RESULT:      -6.3      1.866      4.340
REMARK  Name = NuBBE_2293
REMARK  4 active torsions:
REMARK  status: ('A' for Active; 'I' for Inactive)
REMARK    1  A    between atoms: C_1  and  C_2
REMARK    2  A    between atoms: C_3  and  C_4
REMARK    3  A    between atoms: C_9  and  C_10
REMARK    4  A    between atoms: C_14  and  C_15
REMARK                            x       y       z     vdW  Elec       q    Type
REMARK                         _______ _______ _______ _____ _____    ______ ____
ROOT
ATOM      1  C   LIG A   1      -8.101   1.923 126.890  0.00  0.00    +0.016 C 
ATOM      2  C   LIG A   1      -7.339   1.250 125.758  0.00  0.00    +0.060 C 
ATOM      3  C   LIG A   1      -7.408   1.950 124.370  0.00  0.00    +0.178 C 
ATOM      4  C   LIG A   1      -8.166   3.269 124.312  0.00  0.00    +0.052 C 
ATOM      5  O   LIG A   1      -8.020   1.047 123.404  0.00  0.00    -0.488 OA
ATOM      6  C   LIG A   1      -8.262  -0.148 124.069  0.00  0.00    +0.125 A 
ATOM      7  C   LIG A   1      -7.889  -0.078 125.407  0.00  0.00    +0.004 A 
ATOM      8  C   LIG A   1      -8.076  -1.258 126.139  0.00  0.00    -0.034 A 
ATOM      9  C   LIG A   1      -7.792  -1.597 127.568  0.00  0.00    +0.017 C 
ATOM     10  C   LIG A   1      -6.308  -1.533 127.901  0.00  0.00    +0.012 C 
ATOM     11  C   LIG A   1      -8.359  -3.033 127.712  0.00  0.00    +0.012 C 
ATOM     12  C   LIG A   1      -8.859  -3.507 126.328  0.00  0.00    +0.036 C 
ATOM     13  C   LIG A   1      -8.671  -2.322 125.420  0.00  0.00    -0.041 A 
ATOM     14  C   LIG A   1      -9.051  -2.358 124.077  0.00  0.00    -0.043 A 
ATOM     15  C   LIG A   1      -9.664  -3.548 123.407  0.00  0.00    +0.044 C 
ATOM     16  C   LIG A   1      -8.817  -1.198 123.370  0.00  0.00    +0.049 A 
ENDROOT
TORSDOF 0
ENDMDL
MODEL 8
REMARK VINA RESULT:      -5.9      2.797      4.872
REMARK  Name = NuBBE_2293
REMARK  4 active torsions:
REMARK  status: ('A' for Active; 'I' for Inactive)
REMARK    1  A    between atoms: C_1  and  C_2
REMARK    2  A    between atoms: C_3  and  C_4
REMARK    3  A    between atoms: C_9  and  C_10
REMARK    4  A    between atoms: C_14  and  C_15
REMARK                            x       y       z     vdW  Elec       q    Type
REMARK                         _______ _______ _______ _____ _____    ______ ____
ROOT
ATOM      1  C   LIG A   1      -6.631  -0.589 126.261  0.00  0.00    +0.016 C 
ATOM      2  C   LIG A   1      -7.898   0.248 126.151  0.00  0.00    +0.060 C 
ATOM      3  C   LIG A   1      -9.205  -0.523 125.809  0.00  0.00    +0.178 C 
ATOM      4  C   LIG A   1      -9.089  -2.037 125.695  0.00  0.00    +0.052 C 
ATOM      5  O   LIG A   1      -9.742  -0.026 124.548  0.00  0.00    -0.488 OA
ATOM      6  C   LIG A   1      -8.915   1.013 124.141  0.00  0.00    +0.125 A 
ATOM      7  C   LIG A   1      -7.856   1.204 125.023  0.00  0.00    +0.004 A 
ATOM      8  C   LIG A   1      -6.992   2.257 124.694  0.00  0.00    -0.034 A 
ATOM      9  C   LIG A   1      -5.772   2.791 125.376  0.00  0.00    +0.017 C 
ATOM     10  C   LIG A   1      -6.074   3.365 126.752  0.00  0.00    +0.012 C 
ATOM     11  C   LIG A   1      -5.262   3.876 124.392  0.00  0.00    +0.012 C 
ATOM     12  C   LIG A   1      -6.269   3.997 123.225  0.00  0.00    +0.036 C 
ATOM     13  C   LIG A   1      -7.295   2.926 123.485  0.00  0.00    -0.041 A 
ATOM     14  C   LIG A   1      -8.359   2.701 122.609  0.00  0.00    -0.043 A 
ATOM     15  C   LIG A   1      -8.597   3.481 121.354  0.00  0.00    +0.044 C 
ATOM     16  C   LIG A   1      -9.217   1.687 122.978  0.00  0.00    +0.049 A 
ENDROOT
TORSDOF 0
ENDMDL
MODEL 9
REMARK VINA RESULT:      -5.8      8.140      9.863
REMARK  Name = NuBBE_2293
REMARK  4 active torsions:
REMARK  status: ('A' for Active; 'I' for Inactive)
REMARK    1  A    between atoms: C_1  and  C_2
REMARK    2  A    between atoms: C_3  and  C_4
REMARK    3  A    between atoms: C_9  and  C_10
REMARK    4  A    between atoms: C_14  and  C_15
REMARK                            x       y       z     vdW  Elec       q    Type
REMARK                         _______ _______ _______ _____ _____    ______ ____
ROOT
ATOM      1  C   LIG A   1     -10.724   4.462 130.374  0.00  0.00    +0.016 C 
ATOM      2  C   LIG A   1     -10.276   5.728 131.089  0.00  0.00    +0.060 C 
ATOM      3  C   LIG A   1     -10.355   7.047 130.269  0.00  0.00    +0.178 C 
ATOM      4  C   LIG A   1     -10.940   6.940 128.868  0.00  0.00    +0.052 C 
ATOM      5  O   LIG A   1      -9.020   7.620 130.147  0.00  0.00    -0.488 OA
ATOM      6  C   LIG A   1      -8.164   6.801 130.872  0.00  0.00    +0.125 A 
ATOM      7  C   LIG A   1      -8.836   5.716 131.427  0.00  0.00    +0.004 A 
ATOM      8  C   LIG A   1      -8.042   4.858 132.200  0.00  0.00    -0.034 A 
ATOM      9  C   LIG A   1      -8.376   3.617 132.966  0.00  0.00    +0.017 C 
ATOM     10  C   LIG A   1      -9.347   3.876 134.108  0.00  0.00    +0.012 C 
ATOM     11  C   LIG A   1      -6.994   3.132 133.475  0.00  0.00    +0.012 C 
ATOM     12  C   LIG A   1      -5.925   4.173 133.068  0.00  0.00    +0.036 C 
ATOM     13  C   LIG A   1      -6.669   5.194 132.250  0.00  0.00    -0.041 A 
ATOM     14  C   LIG A   1      -6.018   6.284 131.669  0.00  0.00    -0.043 A 
ATOM     15  C   LIG A   1      -4.552   6.556 131.796  0.00  0.00    +0.044 C 
ATOM     16  C   LIG A   1      -6.830   7.135 130.948  0.00  0.00    +0.049 A 
ENDROOT
TORSDOF 0
ENDMDL
