MODEL 1
REMARK VINA RESULT:      -8.0      0.000      0.000
REMARK  Name = NuBBE_2078
REMARK  2 active torsions:
REMARK  status: ('A' for Active; 'I' for Inactive)
REMARK    1  A    between atoms: C_3  and  C_5
REMARK    2  A    between atoms: C_23  and  O_25
REMARK                            x       y       z     vdW  Elec       q    Type
REMARK                         _______ _______ _______ _____ _____    ______ ____
ROOT
ATOM      1  O   LIG A   1      -6.408   6.111 125.296  0.00  0.00    -0.251 OA
ATOM      2  C   LIG A   1      -6.772   4.946 125.316  0.00  0.00    +0.311 C 
ATOM      3  C   LIG A   1      -5.913   3.684 125.556  0.00  0.00    +0.102 C 
ATOM      4  C   LIG A   1      -4.380   3.482 125.444  0.00  0.00    +0.020 C 
ATOM      5  O   LIG A   1      -8.050   4.568 124.969  0.00  0.00    -0.461 OA
ATOM      6  C   LIG A   1      -8.050   3.163 124.883  0.00  0.00    +0.181 C 
ATOM      7  C   LIG A   1      -6.620   2.761 124.574  0.00  0.00    +0.053 C 
ATOM      8  C   LIG A   1      -6.201   2.512 122.987  0.00  0.00    +0.015 C 
ATOM      9  C   LIG A   1      -5.704   4.134 122.945  0.00  0.00    +0.022 C 
ATOM     10  C   LIG A   1      -4.661   4.651 121.957  0.00  0.00    +0.121 C 
ATOM     11  C   LIG A   1      -5.347   4.670 120.684  0.00  0.00    +0.307 C 
ATOM     12  O   LIG A   1      -5.958   3.473 120.469  0.00  0.00    -0.464 OA
ATOM     13  C   LIG A   1      -6.872   2.887 121.504  0.00  0.00    +0.239 C 
ATOM     14  O   LIG A   1      -5.306   5.607 119.854  0.00  0.00    -0.251 OA
ATOM     15  C   LIG A   1      -7.288   1.011 123.337  0.00  0.00    +0.005 C 
ATOM     16  C   LIG A   1      -6.635  -0.278 124.046  0.00  0.00    +0.004 C 
ATOM     17  C   LIG A   1      -6.948  -0.640 125.538  0.00  0.00    +0.003 C 
ATOM     18  C   LIG A   1      -8.403  -0.666 125.966  0.00  0.00    +0.031 C 
ATOM     19  C   LIG A   1      -9.142   0.535 125.446  0.00  0.00    +0.118 C 
ATOM     20  C   LIG A   1      -8.788   1.087 123.983  0.00  0.00    +0.025 C 
ATOM     21  C   LIG A   1      -9.130   2.560 124.005  0.00  0.00    +0.051 C 
ENDROOT
BRANCH  19  22
ATOM     22  O   LIG A   1     -10.568   0.295 125.556  0.00  0.00    -0.392 OA
ATOM     23  H   LIG A   1     -10.992   0.811 124.824  0.00  0.00    +0.210 HD
ENDBRANCH  19  22
TORSDOF 1
ENDMDL
MODEL 2
REMARK VINA RESULT:      -7.9      2.097      3.499
REMARK  Name = NuBBE_2078
REMARK  2 active torsions:
REMARK  status: ('A' for Active; 'I' for Inactive)
REMARK    1  A    between atoms: C_3  and  C_5
REMARK    2  A    between atoms: C_23  and  O_25
REMARK                            x       y       z     vdW  Elec       q    Type
REMARK                         _______ _______ _______ _____ _____    ______ ____
ROOT
ATOM      1  O   LIG A   1      -8.855   2.295 128.123  0.00  0.00    -0.251 OA
ATOM      2  C   LIG A   1      -8.686   1.344 127.377  0.00  0.00    +0.311 C 
ATOM      3  C   LIG A   1      -7.493   0.362 127.341  0.00  0.00    +0.102 C 
ATOM      4  C   LIG A   1      -6.060   0.508 127.916  0.00  0.00    +0.020 C 
ATOM      5  O   LIG A   1      -9.519   1.087 126.312  0.00  0.00    -0.461 OA
ATOM      6  C   LIG A   1      -8.905   0.076 125.549  0.00  0.00    +0.181 C 
ATOM      7  C   LIG A   1      -7.419   0.179 125.832  0.00  0.00    +0.053 C 
ATOM      8  C   LIG A   1      -6.480   1.059 124.782  0.00  0.00    +0.015 C 
ATOM      9  C   LIG A   1      -6.720   2.391 125.807  0.00  0.00    +0.022 C 
ATOM     10  C   LIG A   1      -5.746   3.564 125.875  0.00  0.00    +0.121 C 
ATOM     11  C   LIG A   1      -5.961   4.284 124.639  0.00  0.00    +0.307 C 
ATOM     12  O   LIG A   1      -5.920   3.421 123.587  0.00  0.00    -0.464 OA
ATOM     13  C   LIG A   1      -6.768   2.184 123.582  0.00  0.00    +0.239 C 
ATOM     14  O   LIG A   1      -6.069   5.527 124.535  0.00  0.00    -0.251 OA
ATOM     15  C   LIG A   1      -6.889  -0.464 123.748  0.00  0.00    +0.005 C 
ATOM     16  C   LIG A   1      -6.003  -1.794 123.932  0.00  0.00    +0.004 C 
ATOM     17  C   LIG A   1      -6.566  -3.062 124.660  0.00  0.00    +0.003 C 
ATOM     18  C   LIG A   1      -7.931  -3.569 124.236  0.00  0.00    +0.031 C 
ATOM     19  C   LIG A   1      -8.911  -2.438 124.100  0.00  0.00    +0.118 C 
ATOM     20  C   LIG A   1      -8.401  -1.038 123.507  0.00  0.00    +0.025 C 
ATOM     21  C   LIG A   1      -9.317   0.015 124.090  0.00  0.00    +0.051 C 
ENDROOT
BRANCH  19  22
ATOM     22  O   LIG A   1     -10.067  -2.902 123.357  0.00  0.00    -0.392 OA
ATOM     23  H   LIG A   1      -9.712  -3.375 122.561  0.00  0.00    +0.210 HD
ENDBRANCH  19  22
TORSDOF 1
ENDMDL
MODEL 3
REMARK VINA RESULT:      -7.5      3.704      6.192
REMARK  Name = NuBBE_2078
REMARK  2 active torsions:
REMARK  status: ('A' for Active; 'I' for Inactive)
REMARK    1  A    between atoms: C_3  and  C_5
REMARK    2  A    between atoms: C_23  and  O_25
REMARK                            x       y       z     vdW  Elec       q    Type
REMARK                         _______ _______ _______ _____ _____    ______ ____
ROOT
ATOM      1  O   LIG A   1      -6.162  -2.220 122.437  0.00  0.00    -0.251 OA
ATOM      2  C   LIG A   1      -6.141  -2.309 123.653  0.00  0.00    +0.311 C 
ATOM      3  C   LIG A   1      -7.121  -3.077 124.568  0.00  0.00    +0.102 C 
ATOM      4  C   LIG A   1      -8.557  -3.590 124.289  0.00  0.00    +0.020 C 
ATOM      5  O   LIG A   1      -5.269  -1.580 124.429  0.00  0.00    -0.461 OA
ATOM      6  C   LIG A   1      -5.673  -1.753 125.767  0.00  0.00    +0.181 C 
ATOM      7  C   LIG A   1      -7.153  -2.084 125.721  0.00  0.00    +0.053 C 
ATOM      8  C   LIG A   1      -8.240  -0.843 125.918  0.00  0.00    +0.015 C 
ATOM      9  C   LIG A   1      -8.266  -0.703 124.226  0.00  0.00    +0.022 C 
ATOM     10  C   LIG A   1      -9.449  -0.106 123.467  0.00  0.00    +0.121 C 
ATOM     11  C   LIG A   1      -9.372   1.313 123.736  0.00  0.00    +0.307 C 
ATOM     12  O   LIG A   1      -9.241   1.525 125.074  0.00  0.00    -0.464 OA
ATOM     13  C   LIG A   1      -8.170   0.824 125.856  0.00  0.00    +0.239 C 
ATOM     14  O   LIG A   1      -9.506   2.219 122.882  0.00  0.00    -0.251 OA
ATOM     15  C   LIG A   1      -7.539  -1.020 127.660  0.00  0.00    +0.005 C 
ATOM     16  C   LIG A   1      -8.152  -2.141 128.638  0.00  0.00    +0.004 C 
ATOM     17  C   LIG A   1      -7.358  -3.444 128.994  0.00  0.00    +0.003 C 
ATOM     18  C   LIG A   1      -5.918  -3.288 129.447  0.00  0.00    +0.031 C 
ATOM     19  C   LIG A   1      -5.175  -2.322 128.569  0.00  0.00    +0.118 C 
ATOM     20  C   LIG A   1      -5.944  -1.027 128.018  0.00  0.00    +0.025 C 
ATOM     21  C   LIG A   1      -5.252  -0.655 126.726  0.00  0.00    +0.051 C 
ENDROOT
BRANCH  19  22
ATOM     22  O   LIG A   1      -3.948  -1.927 129.234  0.00  0.00    -0.392 OA
ATOM     23  H   LIG A   1      -3.334  -2.702 129.164  0.00  0.00    +0.210 HD
ENDBRANCH  19  22
TORSDOF 1
ENDMDL
MODEL 4
REMARK VINA RESULT:      -7.2      2.602      3.977
REMARK  Name = NuBBE_2078
REMARK  2 active torsions:
REMARK  status: ('A' for Active; 'I' for Inactive)
REMARK    1  A    between atoms: C_3  and  C_5
REMARK    2  A    between atoms: C_23  and  O_25
REMARK                            x       y       z     vdW  Elec       q    Type
REMARK                         _______ _______ _______ _____ _____    ______ ____
ROOT
ATOM      1  O   LIG A   1      -8.146   1.659 129.048  0.00  0.00    -0.251 OA
ATOM      2  C   LIG A   1      -8.291   1.221 127.918  0.00  0.00    +0.311 C 
ATOM      3  C   LIG A   1      -7.535   0.052 127.246  0.00  0.00    +0.102 C 
ATOM      4  C   LIG A   1      -6.182  -0.608 127.617  0.00  0.00    +0.020 C 
ATOM      5  O   LIG A   1      -9.099   1.835 126.989  0.00  0.00    -0.461 OA
ATOM      6  C   LIG A   1      -8.851   1.206 125.754  0.00  0.00    +0.181 C 
ATOM      7  C   LIG A   1      -7.446   0.639 125.845  0.00  0.00    +0.053 C 
ATOM      8  C   LIG A   1      -6.194   1.547 125.239  0.00  0.00    +0.015 C 
ATOM      9  C   LIG A   1      -5.993   2.172 126.805  0.00  0.00    +0.022 C 
ATOM     10  C   LIG A   1      -4.666   2.739 127.301  0.00  0.00    +0.121 C 
ATOM     11  C   LIG A   1      -4.535   4.005 126.614  0.00  0.00    +0.307 C 
ATOM     12  O   LIG A   1      -4.749   3.834 125.281  0.00  0.00    -0.464 OA
ATOM     13  C   LIG A   1      -5.986   3.142 124.791  0.00  0.00    +0.239 C 
ATOM     14  O   LIG A   1      -4.179   5.082 127.145  0.00  0.00    -0.251 OA
ATOM     15  C   LIG A   1      -7.068   0.996 123.661  0.00  0.00    +0.005 C 
ATOM     16  C   LIG A   1      -6.736  -0.456 123.051  0.00  0.00    +0.004 C 
ATOM     17  C   LIG A   1      -7.761  -1.638 123.139  0.00  0.00    +0.003 C 
ATOM     18  C   LIG A   1      -9.190  -1.363 122.713  0.00  0.00    +0.031 C 
ATOM     19  C   LIG A   1      -9.685  -0.063 123.281  0.00  0.00    +0.118 C 
ATOM     20  C   LIG A   1      -8.669   1.175 123.381  0.00  0.00    +0.025 C 
ATOM     21  C   LIG A   1      -9.172   2.030 124.522  0.00  0.00    +0.051 C 
ENDROOT
BRANCH  19  22
ATOM     22  O   LIG A   1     -10.885   0.336 122.571  0.00  0.00    -0.392 OA
ATOM     23  H   LIG A   1     -10.810   1.314 122.429  0.00  0.00    +0.210 HD
ENDBRANCH  19  22
TORSDOF 1
ENDMDL
MODEL 5
REMARK VINA RESULT:      -6.9      6.823      8.586
REMARK  Name = NuBBE_2078
REMARK  2 active torsions:
REMARK  status: ('A' for Active; 'I' for Inactive)
REMARK    1  A    between atoms: C_3  and  C_5
REMARK    2  A    between atoms: C_23  and  O_25
REMARK                            x       y       z     vdW  Elec       q    Type
REMARK                         _______ _______ _______ _____ _____    ______ ____
ROOT
ATOM      1  O   LIG A   1      -8.757   6.365 134.110  0.00  0.00    -0.251 OA
ATOM      2  C   LIG A   1      -8.470   5.318 133.554  0.00  0.00    +0.311 C 
ATOM      3  C   LIG A   1      -7.501   5.103 132.370  0.00  0.00    +0.102 C 
ATOM      4  C   LIG A   1      -6.951   6.115 131.331  0.00  0.00    +0.020 C 
ATOM      5  O   LIG A   1      -9.115   4.135 133.835  0.00  0.00    -0.461 OA
ATOM      6  C   LIG A   1      -8.699   3.203 132.865  0.00  0.00    +0.181 C 
ATOM      7  C   LIG A   1      -8.287   4.016 131.651  0.00  0.00    +0.053 C 
ATOM      8  C   LIG A   1      -9.406   4.248 130.446  0.00  0.00    +0.015 C 
ATOM      9  C   LIG A   1      -9.821   5.701 131.219  0.00  0.00    +0.022 C 
ATOM     10  C   LIG A   1     -10.459   6.874 130.480  0.00  0.00    +0.121 C 
ATOM     11  C   LIG A   1     -11.816   6.446 130.223  0.00  0.00    +0.307 C 
ATOM     12  O   LIG A   1     -11.812   5.206 129.663  0.00  0.00    -0.464 OA
ATOM     13  C   LIG A   1     -11.062   4.079 130.309  0.00  0.00    +0.239 C 
ATOM     14  O   LIG A   1     -12.840   7.146 130.395  0.00  0.00    -0.251 OA
ATOM     15  C   LIG A   1      -8.989   2.420 130.237  0.00  0.00    +0.005 C 
ATOM     16  C   LIG A   1      -7.685   2.009 129.388  0.00  0.00    +0.004 C 
ATOM     17  C   LIG A   1      -6.395   1.454 130.083  0.00  0.00    +0.003 C 
ATOM     18  C   LIG A   1      -6.565   0.331 131.089  0.00  0.00    +0.031 C 
ATOM     19  C   LIG A   1      -7.708   0.609 132.024  0.00  0.00    +0.118 C 
ATOM     20  C   LIG A   1      -9.025   1.320 131.446  0.00  0.00    +0.025 C 
ATOM     21  C   LIG A   1      -9.648   2.046 132.617  0.00  0.00    +0.051 C 
ENDROOT
BRANCH  19  22
ATOM     22  O   LIG A   1      -8.065  -0.617 132.710  0.00  0.00    -0.392 OA
ATOM     23  H   LIG A   1      -7.284  -1.221 132.623  0.00  0.00    +0.210 HD
ENDBRANCH  19  22
TORSDOF 1
ENDMDL
MODEL 6
REMARK VINA RESULT:      -6.9      5.965      9.100
REMARK  Name = NuBBE_2078
REMARK  2 active torsions:
REMARK  status: ('A' for Active; 'I' for Inactive)
REMARK    1  A    between atoms: C_3  and  C_5
REMARK    2  A    between atoms: C_23  and  O_25
REMARK                            x       y       z     vdW  Elec       q    Type
REMARK                         _______ _______ _______ _____ _____    ______ ____
ROOT
ATOM      1  O   LIG A   1      -4.513   6.051 126.719  0.00  0.00    -0.251 OA
ATOM      2  C   LIG A   1      -3.960   6.122 127.805  0.00  0.00    +0.311 C 
ATOM      3  C   LIG A   1      -3.120   5.038 128.517  0.00  0.00    +0.102 C 
ATOM      4  C   LIG A   1      -3.064   3.505 128.289  0.00  0.00    +0.020 C 
ATOM      5  O   LIG A   1      -4.137   7.191 128.652  0.00  0.00    -0.461 OA
ATOM      6  C   LIG A   1      -3.551   6.838 129.883  0.00  0.00    +0.181 C 
ATOM      7  C   LIG A   1      -3.578   5.322 129.941  0.00  0.00    +0.053 C 
ATOM      8  C   LIG A   1      -4.843   4.590 130.730  0.00  0.00    +0.015 C 
ATOM      9  C   LIG A   1      -5.625   4.499 129.226  0.00  0.00    +0.022 C 
ATOM     10  C   LIG A   1      -6.698   3.458 128.917  0.00  0.00    +0.121 C 
ATOM     11  C   LIG A   1      -7.856   3.900 129.664  0.00  0.00    +0.307 C 
ATOM     12  O   LIG A   1      -7.505   4.159 130.953  0.00  0.00    -0.464 OA
ATOM     13  C   LIG A   1      -6.352   5.067 131.262  0.00  0.00    +0.239 C 
ATOM     14  O   LIG A   1      -9.027   3.944 129.222  0.00  0.00    -0.251 OA
ATOM     15  C   LIG A   1      -3.869   5.327 132.167  0.00  0.00    +0.005 C 
ATOM     16  C   LIG A   1      -2.611   4.514 132.756  0.00  0.00    +0.004 C 
ATOM     17  C   LIG A   1      -1.137   4.981 132.497  0.00  0.00    +0.003 C 
ATOM     18  C   LIG A   1      -0.806   6.438 132.757  0.00  0.00    +0.031 C 
ATOM     19  C   LIG A   1      -1.858   7.344 132.184  0.00  0.00    +0.118 C 
ATOM     20  C   LIG A   1      -3.395   6.889 132.257  0.00  0.00    +0.025 C 
ATOM     21  C   LIG A   1      -4.083   7.574 131.097  0.00  0.00    +0.051 C 
ENDROOT
BRANCH  19  22
ATOM     22  O   LIG A   1      -1.704   8.668 132.757  0.00  0.00    -0.392 OA
ATOM     23  H   LIG A   1      -2.603   9.085 132.736  0.00  0.00    +0.210 HD
ENDBRANCH  19  22
TORSDOF 1
ENDMDL
MODEL 7
REMARK VINA RESULT:      -6.8      2.727      5.504
REMARK  Name = NuBBE_2078
REMARK  2 active torsions:
REMARK  status: ('A' for Active; 'I' for Inactive)
REMARK    1  A    between atoms: C_3  and  C_5
REMARK    2  A    between atoms: C_23  and  O_25
REMARK                            x       y       z     vdW  Elec       q    Type
REMARK                         _______ _______ _______ _____ _____    ______ ____
ROOT
ATOM      1  O   LIG A   1      -8.803   4.251 125.166  0.00  0.00    -0.251 OA
ATOM      2  C   LIG A   1      -7.775   4.278 125.823  0.00  0.00    +0.311 C 
ATOM      3  C   LIG A   1      -6.334   4.536 125.326  0.00  0.00    +0.102 C 
ATOM      4  C   LIG A   1      -5.736   4.439 123.900  0.00  0.00    +0.020 C 
ATOM      5  O   LIG A   1      -7.742   3.924 127.152  0.00  0.00    -0.461 OA
ATOM      6  C   LIG A   1      -6.385   3.850 127.521  0.00  0.00    +0.181 C 
ATOM      7  C   LIG A   1      -5.619   3.557 126.245  0.00  0.00    +0.053 C 
ATOM      8  C   LIG A   1      -5.251   1.975 125.898  0.00  0.00    +0.015 C 
ATOM      9  C   LIG A   1      -6.686   1.923 124.991  0.00  0.00    +0.022 C 
ATOM     10  C   LIG A   1      -6.901   0.940 123.844  0.00  0.00    +0.121 C 
ATOM     11  C   LIG A   1      -7.086  -0.339 124.493  0.00  0.00    +0.307 C 
ATOM     12  O   LIG A   1      -6.089  -0.549 125.396  0.00  0.00    -0.464 OA
ATOM     13  C   LIG A   1      -5.774   0.483 126.438  0.00  0.00    +0.239 C 
ATOM     14  O   LIG A   1      -7.970  -1.177 124.203  0.00  0.00    -0.251 OA
ATOM     15  C   LIG A   1      -4.092   2.329 127.342  0.00  0.00    +0.005 C 
ATOM     16  C   LIG A   1      -2.685   3.055 127.055  0.00  0.00    +0.004 C 
ATOM     17  C   LIG A   1      -2.433   4.547 127.461  0.00  0.00    +0.003 C 
ATOM     18  C   LIG A   1      -2.795   4.963 128.874  0.00  0.00    +0.031 C 
ATOM     19  C   LIG A   1      -4.142   4.427 129.269  0.00  0.00    +0.118 C 
ATOM     20  C   LIG A   1      -4.567   2.961 128.774  0.00  0.00    +0.025 C 
ATOM     21  C   LIG A   1      -6.078   2.968 128.716  0.00  0.00    +0.051 C 
ENDROOT
BRANCH  19  22
ATOM     22  O   LIG A   1      -4.286   4.527 130.708  0.00  0.00    -0.392 OA
ATOM     23  H   LIG A   1      -4.800   5.358 130.878  0.00  0.00    +0.210 HD
ENDBRANCH  19  22
TORSDOF 1
ENDMDL
MODEL 8
REMARK VINA RESULT:      -6.8      6.970      9.432
REMARK  Name = NuBBE_2078
REMARK  2 active torsions:
REMARK  status: ('A' for Active; 'I' for Inactive)
REMARK    1  A    between atoms: C_3  and  C_5
REMARK    2  A    between atoms: C_23  and  O_25
REMARK                            x       y       z     vdW  Elec       q    Type
REMARK                         _______ _______ _______ _____ _____    ______ ____
ROOT
ATOM      1  O   LIG A   1      -8.330   4.668 127.842  0.00  0.00    -0.251 OA
ATOM      2  C   LIG A   1      -7.853   4.562 128.959  0.00  0.00    +0.311 C 
ATOM      3  C   LIG A   1      -8.019   3.394 129.958  0.00  0.00    +0.102 C 
ATOM      4  C   LIG A   1      -9.088   2.273 130.017  0.00  0.00    +0.020 C 
ATOM      5  O   LIG A   1      -7.175   5.592 129.571  0.00  0.00    -0.461 OA
ATOM      6  C   LIG A   1      -6.973   5.207 130.911  0.00  0.00    +0.181 C 
ATOM      7  C   LIG A   1      -8.077   4.219 131.236  0.00  0.00    +0.053 C 
ATOM      8  C   LIG A   1      -9.451   4.792 131.972  0.00  0.00    +0.015 C 
ATOM      9  C   LIG A   1     -10.119   4.956 130.420  0.00  0.00    +0.022 C 
ATOM     10  C   LIG A   1     -11.624   4.947 130.166  0.00  0.00    +0.121 C 
ATOM     11  C   LIG A   1     -12.083   6.225 130.665  0.00  0.00    +0.307 C 
ATOM     12  O   LIG A   1     -11.603   6.433 131.921  0.00  0.00    -0.464 OA
ATOM     13  C   LIG A   1     -10.137   6.296 132.209  0.00  0.00    +0.239 C 
ATOM     14  O   LIG A   1     -12.883   6.987 130.074  0.00  0.00    -0.251 OA
ATOM     15  C   LIG A   1      -8.189   4.913 133.368  0.00  0.00    +0.005 C 
ATOM     16  C   LIG A   1      -7.874   3.605 134.251  0.00  0.00    +0.004 C 
ATOM     17  C   LIG A   1      -6.525   2.821 134.107  0.00  0.00    +0.003 C 
ATOM     18  C   LIG A   1      -5.238   3.624 134.142  0.00  0.00    +0.031 C 
ATOM     19  C   LIG A   1      -5.342   4.853 133.284  0.00  0.00    +0.118 C 
ATOM     20  C   LIG A   1      -6.734   5.648 133.237  0.00  0.00    +0.025 C 
ATOM     21  C   LIG A   1      -6.767   6.343 131.894  0.00  0.00    +0.051 C 
ENDROOT
BRANCH  19  22
ATOM     22  O   LIG A   1      -4.262   5.759 133.626  0.00  0.00    -0.392 OA
ATOM     23  H   LIG A   1      -4.102   5.645 134.597  0.00  0.00    +0.210 HD
ENDBRANCH  19  22
TORSDOF 1
ENDMDL
MODEL 9
REMARK VINA RESULT:      -6.8      2.686      5.047
REMARK  Name = NuBBE_2078
REMARK  2 active torsions:
REMARK  status: ('A' for Active; 'I' for Inactive)
REMARK    1  A    between atoms: C_3  and  C_5
REMARK    2  A    between atoms: C_23  and  O_25
REMARK                            x       y       z     vdW  Elec       q    Type
REMARK                         _______ _______ _______ _____ _____    ______ ____
ROOT
ATOM      1  O   LIG A   1      -7.778   2.710 122.565  0.00  0.00    -0.251 OA
ATOM      2  C   LIG A   1      -7.787   1.582 123.030  0.00  0.00    +0.311 C 
ATOM      3  C   LIG A   1      -8.942   0.865 123.766  0.00  0.00    +0.102 C 
ATOM      4  C   LIG A   1     -10.202   1.448 124.456  0.00  0.00    +0.020 C 
ATOM      5  O   LIG A   1      -6.656   0.799 123.086  0.00  0.00    -0.461 OA
ATOM      6  C   LIG A   1      -6.975  -0.321 123.877  0.00  0.00    +0.181 C 
ATOM      7  C   LIG A   1      -8.102   0.117 124.792  0.00  0.00    +0.053 C 
ATOM      8  C   LIG A   1      -7.713   0.648 126.316  0.00  0.00    +0.015 C 
ATOM      9  C   LIG A   1      -7.685   2.221 125.677  0.00  0.00    +0.022 C 
ATOM     10  C   LIG A   1      -7.915   3.463 126.533  0.00  0.00    +0.121 C 
ATOM     11  C   LIG A   1      -6.704   3.595 127.312  0.00  0.00    +0.307 C 
ATOM     12  O   LIG A   1      -6.399   2.406 127.900  0.00  0.00    -0.464 OA
ATOM     13  C   LIG A   1      -6.317   1.150 127.084  0.00  0.00    +0.239 C 
ATOM     14  O   LIG A   1      -6.079   4.663 127.503  0.00  0.00    -0.251 OA
ATOM     15  C   LIG A   1      -7.379  -1.202 126.458  0.00  0.00    +0.005 C 
ATOM     16  C   LIG A   1      -8.606  -2.196 126.769  0.00  0.00    +0.004 C 
ATOM     17  C   LIG A   1      -9.192  -3.146 125.669  0.00  0.00    +0.003 C 
ATOM     18  C   LIG A   1      -8.213  -3.986 124.871  0.00  0.00    +0.031 C 
ATOM     19  C   LIG A   1      -7.033  -3.169 124.427  0.00  0.00    +0.118 C 
ATOM     20  C   LIG A   1      -6.446  -2.054 125.420  0.00  0.00    +0.025 C 
ATOM     21  C   LIG A   1      -5.797  -1.015 124.534  0.00  0.00    +0.051 C 
ENDROOT
BRANCH  19  22
ATOM     22  O   LIG A   1      -5.973  -4.064 124.001  0.00  0.00    -0.392 OA
ATOM     23  H   LIG A   1      -5.407  -4.221 124.799  0.00  0.00    +0.210 HD
ENDBRANCH  19  22
TORSDOF 1
ENDMDL
