MODEL 1
REMARK VINA RESULT:      -7.5      0.000      0.000
REMARK  Name = NuBBE_2241
REMARK  7 active torsions:
REMARK  status: ('A' for Active; 'I' for Inactive)
REMARK    1  A    between atoms: C_1  and  C_2
REMARK    2  A    between atoms: C_2  and  C_3
REMARK    3  A    between atoms: C_11  and  O_12
REMARK    4  A    between atoms: C_14  and  C_15
REMARK    5  A    between atoms: C_16  and  O_18
REMARK    6  A    between atoms: C_20  and  C_21
REMARK    7  A    between atoms: C_20  and  C_22
REMARK                            x       y       z     vdW  Elec       q    Type
REMARK                         _______ _______ _______ _____ _____    ______ ____
ROOT
ATOM      1  C   LIG A   1      -8.917  -1.542 123.210  0.00  0.00    +0.014 C 
ATOM      2  C   LIG A   1      -7.675  -1.201 124.061  0.00  0.00    +0.001 C 
ATOM      3  C   LIG A   1      -6.443  -1.992 123.561  0.00  0.00    +0.014 C 
ATOM      4  C   LIG A   1      -7.385   0.309 123.795  0.00  0.00    +0.010 C 
ATOM      5  C   LIG A   1      -6.268   0.846 124.674  0.00  0.00    +0.003 C 
ATOM      6  C   LIG A   1      -6.693   0.862 126.132  0.00  0.00    +0.039 C 
ATOM      7  C   LIG A   1      -7.348  -0.433 126.597  0.00  0.00    +0.116 C 
ATOM      8  O   LIG A   1      -8.734  -0.405 126.154  0.00  0.00    -0.355 OA
ATOM      9  C   LIG A   1      -7.948  -1.458 125.581  0.00  0.00    +0.133 C 
ATOM     10  C   LIG A   1      -8.193  -2.855 126.106  0.00  0.00    +0.022 C 
ATOM     11  C   LIG A   1      -8.440  -2.961 127.553  0.00  0.00    +0.122 C 
ATOM     12  C   LIG A   1      -7.984  -2.093 128.472  0.00  0.00    -0.016 C 
ATOM     13  C   LIG A   1      -7.244  -0.790 128.119  0.00  0.00    +0.051 C 
ATOM     14  C   LIG A   1      -7.862   0.407 128.900  0.00  0.00    +0.021 C 
ATOM     15  C   LIG A   1      -5.765  -1.054 128.581  0.00  0.00    +0.128 C 
ATOM     16  C   LIG A   1      -5.659  -1.486 130.063  0.00  0.00    +0.043 C 
ATOM     17  C   LIG A   1      -6.570  -2.661 130.491  0.00  0.00    -0.008 C 
ATOM     18  C   LIG A   1      -6.644  -2.675 132.035  0.00  0.00    +0.016 C 
ATOM     19  C   LIG A   1      -8.013  -2.448 129.950  0.00  0.00    +0.046 C 
ATOM     20  C   LIG A   1      -8.198  -4.004 125.399  0.00  0.00    +0.019 C 
ENDROOT
BRANCH  11  21
ATOM     21  O   LIG A   1      -9.155  -4.074 127.970  0.00  0.00    -0.506 OA
ATOM     22  H   LIG A   1      -8.589  -4.544 128.607  0.00  0.00    +0.292 HD
ENDBRANCH  11  21
BRANCH  15  23
ATOM     23  O   LIG A   1      -4.939   0.109 128.466  0.00  0.00    -0.391 OA
ATOM     24  H   LIG A   1      -5.386   0.727 127.862  0.00  0.00    +0.210 HD
ENDBRANCH  15  23
BRANCH  17  25
ATOM     25  C   LIG A   1      -5.982  -3.962 129.931  0.00  0.00    -0.028 C 
ATOM     26  C   LIG A   1      -5.561  -5.037 130.612  0.00  0.00    +0.004 C 
ENDBRANCH  17  25
TORSDOF 3
ENDMDL
MODEL 2
REMARK VINA RESULT:      -7.3      3.347      5.254
REMARK  Name = NuBBE_2241
REMARK  7 active torsions:
REMARK  status: ('A' for Active; 'I' for Inactive)
REMARK    1  A    between atoms: C_1  and  C_2
REMARK    2  A    between atoms: C_2  and  C_3
REMARK    3  A    between atoms: C_11  and  O_12
REMARK    4  A    between atoms: C_14  and  C_15
REMARK    5  A    between atoms: C_16  and  O_18
REMARK    6  A    between atoms: C_20  and  C_21
REMARK    7  A    between atoms: C_20  and  C_22
REMARK                            x       y       z     vdW  Elec       q    Type
REMARK                         _______ _______ _______ _____ _____    ______ ____
ROOT
ATOM      1  C   LIG A   1      -8.825  -1.692 124.649  0.00  0.00    +0.014 C 
ATOM      2  C   LIG A   1      -8.242  -0.367 124.113  0.00  0.00    +0.001 C 
ATOM      3  C   LIG A   1      -7.299  -0.637 122.916  0.00  0.00    +0.014 C 
ATOM      4  C   LIG A   1      -9.461   0.434 123.559  0.00  0.00    +0.010 C 
ATOM      5  C   LIG A   1      -9.076   1.837 123.119  0.00  0.00    +0.003 C 
ATOM      6  C   LIG A   1      -8.664   2.681 124.312  0.00  0.00    +0.039 C 
ATOM      7  C   LIG A   1      -7.688   1.983 125.251  0.00  0.00    +0.116 C 
ATOM      8  O   LIG A   1      -8.462   1.092 126.102  0.00  0.00    -0.355 OA
ATOM      9  C   LIG A   1      -7.519   0.429 125.250  0.00  0.00    +0.133 C 
ATOM     10  C   LIG A   1      -6.267  -0.109 125.907  0.00  0.00    +0.022 C 
ATOM     11  C   LIG A   1      -5.686   0.734 126.964  0.00  0.00    +0.122 C 
ATOM     12  C   LIG A   1      -5.826   2.069 127.041  0.00  0.00    -0.016 C 
ATOM     13  C   LIG A   1      -6.728   2.887 126.098  0.00  0.00    +0.051 C 
ATOM     14  C   LIG A   1      -7.633   3.849 126.922  0.00  0.00    +0.021 C 
ATOM     15  C   LIG A   1      -5.715   3.696 125.209  0.00  0.00    +0.128 C 
ATOM     16  C   LIG A   1      -4.709   4.530 126.040  0.00  0.00    +0.043 C 
ATOM     17  C   LIG A   1      -3.951   3.764 127.150  0.00  0.00    -0.008 C 
ATOM     18  C   LIG A   1      -3.334   4.801 128.115  0.00  0.00    +0.016 C 
ATOM     19  C   LIG A   1      -4.940   2.886 127.968  0.00  0.00    +0.046 C 
ATOM     20  C   LIG A   1      -5.626  -1.261 125.622  0.00  0.00    +0.019 C 
ENDROOT
BRANCH  11  21
ATOM     21  O   LIG A   1      -4.903   0.081 127.903  0.00  0.00    -0.506 OA
ATOM     22  H   LIG A   1      -4.370  -0.571 127.416  0.00  0.00    +0.292 HD
ENDBRANCH  11  21
BRANCH  15  23
ATOM     23  O   LIG A   1      -6.369   4.637 124.352  0.00  0.00    -0.391 OA
ATOM     24  H   LIG A   1      -6.247   5.520 124.740  0.00  0.00    +0.210 HD
ENDBRANCH  15  23
BRANCH  17  25
ATOM     25  C   LIG A   1      -2.883   2.883 126.492  0.00  0.00    -0.028 C 
ATOM     26  C   LIG A   1      -1.552   3.032 126.532  0.00  0.00    +0.004 C 
ENDBRANCH  17  25
TORSDOF 3
ENDMDL
MODEL 3
REMARK VINA RESULT:      -7.3      2.332      5.386
REMARK  Name = NuBBE_2241
REMARK  7 active torsions:
REMARK  status: ('A' for Active; 'I' for Inactive)
REMARK    1  A    between atoms: C_1  and  C_2
REMARK    2  A    between atoms: C_2  and  C_3
REMARK    3  A    between atoms: C_11  and  O_12
REMARK    4  A    between atoms: C_14  and  C_15
REMARK    5  A    between atoms: C_16  and  O_18
REMARK    6  A    between atoms: C_20  and  C_21
REMARK    7  A    between atoms: C_20  and  C_22
REMARK                            x       y       z     vdW  Elec       q    Type
REMARK                         _______ _______ _______ _____ _____    ______ ____
ROOT
ATOM      1  C   LIG A   1      -9.290  -3.486 126.417  0.00  0.00    +0.014 C 
ATOM      2  C   LIG A   1      -8.526  -2.710 125.323  0.00  0.00    +0.001 C 
ATOM      3  C   LIG A   1      -7.136  -3.345 125.080  0.00  0.00    +0.014 C 
ATOM      4  C   LIG A   1      -9.351  -2.906 124.014  0.00  0.00    +0.010 C 
ATOM      5  C   LIG A   1      -8.807  -2.080 122.860  0.00  0.00    +0.003 C 
ATOM      6  C   LIG A   1      -8.993  -0.597 123.127  0.00  0.00    +0.039 C 
ATOM      7  C   LIG A   1      -8.562  -0.163 124.522  0.00  0.00    +0.116 C 
ATOM      8  O   LIG A   1      -9.641  -0.501 125.438  0.00  0.00    -0.355 OA
ATOM      9  C   LIG A   1      -8.411  -1.192 125.689  0.00  0.00    +0.133 C 
ATOM     10  C   LIG A   1      -7.603  -0.735 126.884  0.00  0.00    +0.022 C 
ATOM     11  C   LIG A   1      -7.577   0.717 127.121  0.00  0.00    +0.122 C 
ATOM     12  C   LIG A   1      -7.738   1.651 126.167  0.00  0.00    -0.016 C 
ATOM     13  C   LIG A   1      -8.102   1.323 124.708  0.00  0.00    +0.051 C 
ATOM     14  C   LIG A   1      -9.285   2.218 124.236  0.00  0.00    +0.021 C 
ATOM     15  C   LIG A   1      -6.793   1.659 123.904  0.00  0.00    +0.128 C 
ATOM     16  C   LIG A   1      -6.286   3.101 124.144  0.00  0.00    +0.043 C 
ATOM     17  C   LIG A   1      -6.126   3.524 125.623  0.00  0.00    -0.008 C 
ATOM     18  C   LIG A   1      -6.025   5.065 125.676  0.00  0.00    +0.016 C 
ATOM     19  C   LIG A   1      -7.381   3.103 126.441  0.00  0.00    +0.046 C 
ATOM     20  C   LIG A   1      -6.902  -1.507 127.740  0.00  0.00    +0.019 C 
ENDROOT
BRANCH  11  21
ATOM     21  O   LIG A   1      -7.316   1.119 128.422  0.00  0.00    -0.506 OA
ATOM     22  H   LIG A   1      -7.440   2.083 128.446  0.00  0.00    +0.292 HD
ENDBRANCH  11  21
BRANCH  15  23
ATOM     23  O   LIG A   1      -6.977   1.553 122.489  0.00  0.00    -0.391 OA
ATOM     24  H   LIG A   1      -7.691   0.911 122.334  0.00  0.00    +0.210 HD
ENDBRANCH  15  23
BRANCH  17  25
ATOM     25  C   LIG A   1      -4.874   2.845 126.192  0.00  0.00    -0.028 C 
ATOM     26  C   LIG A   1      -3.645   3.363 126.328  0.00  0.00    +0.004 C 
ENDBRANCH  17  25
TORSDOF 3
ENDMDL
MODEL 4
REMARK VINA RESULT:      -7.2      2.730      5.116
REMARK  Name = NuBBE_2241
REMARK  7 active torsions:
REMARK  status: ('A' for Active; 'I' for Inactive)
REMARK    1  A    between atoms: C_1  and  C_2
REMARK    2  A    between atoms: C_2  and  C_3
REMARK    3  A    between atoms: C_11  and  O_12
REMARK    4  A    between atoms: C_14  and  C_15
REMARK    5  A    between atoms: C_16  and  O_18
REMARK    6  A    between atoms: C_20  and  C_21
REMARK    7  A    between atoms: C_20  and  C_22
REMARK                            x       y       z     vdW  Elec       q    Type
REMARK                         _______ _______ _______ _____ _____    ______ ____
ROOT
ATOM      1  C   LIG A   1      -8.272   5.090 125.848  0.00  0.00    +0.014 C 
ATOM      2  C   LIG A   1      -7.168   4.014 125.919  0.00  0.00    +0.001 C 
ATOM      3  C   LIG A   1      -6.112   4.249 124.813  0.00  0.00    +0.014 C 
ATOM      4  C   LIG A   1      -6.452   4.237 127.287  0.00  0.00    +0.010 C 
ATOM      5  C   LIG A   1      -5.421   3.160 127.580  0.00  0.00    +0.003 C 
ATOM      6  C   LIG A   1      -6.094   1.816 127.797  0.00  0.00    +0.039 C 
ATOM      7  C   LIG A   1      -7.138   1.474 126.741  0.00  0.00    +0.116 C 
ATOM      8  O   LIG A   1      -8.360   2.184 127.089  0.00  0.00    -0.355 OA
ATOM      9  C   LIG A   1      -7.781   2.575 125.837  0.00  0.00    +0.133 C 
ATOM     10  C   LIG A   1      -8.475   2.092 124.583  0.00  0.00    +0.022 C 
ATOM     11  C   LIG A   1      -9.009   0.721 124.636  0.00  0.00    +0.122 C 
ATOM     12  C   LIG A   1      -8.525  -0.259 125.418  0.00  0.00    -0.016 C 
ATOM     13  C   LIG A   1      -7.420  -0.043 126.468  0.00  0.00    +0.051 C 
ATOM     14  C   LIG A   1      -7.842  -0.670 127.829  0.00  0.00    +0.021 C 
ATOM     15  C   LIG A   1      -6.174  -0.793 125.869  0.00  0.00    +0.128 C 
ATOM     16  C   LIG A   1      -6.466  -2.273 125.521  0.00  0.00    +0.043 C 
ATOM     17  C   LIG A   1      -7.715  -2.527 124.643  0.00  0.00    -0.008 C 
ATOM     18  C   LIG A   1      -8.080  -4.025 124.746  0.00  0.00    +0.016 C 
ATOM     19  C   LIG A   1      -8.924  -1.706 125.178  0.00  0.00    +0.046 C 
ATOM     20  C   LIG A   1      -8.645   2.770 123.430  0.00  0.00    +0.019 C 
ENDROOT
BRANCH  11  21
ATOM     21  O   LIG A   1     -10.054   0.440 123.768  0.00  0.00    -0.506 OA
ATOM     22  H   LIG A   1     -10.133   1.205 123.172  0.00  0.00    +0.292 HD
ENDBRANCH  11  21
BRANCH  15  23
ATOM     23  O   LIG A   1      -5.069  -0.830 126.776  0.00  0.00    -0.391 OA
ATOM     24  H   LIG A   1      -5.345  -1.344 127.554  0.00  0.00    +0.210 HD
ENDBRANCH  15  23
BRANCH  17  25
ATOM     25  C   LIG A   1      -7.390  -2.111 123.203  0.00  0.00    -0.028 C 
ATOM     26  C   LIG A   1      -6.198  -2.118 122.592  0.00  0.00    +0.004 C 
ENDBRANCH  17  25
TORSDOF 3
ENDMDL
MODEL 5
REMARK VINA RESULT:      -7.1      2.542      5.140
REMARK  Name = NuBBE_2241
REMARK  7 active torsions:
REMARK  status: ('A' for Active; 'I' for Inactive)
REMARK    1  A    between atoms: C_1  and  C_2
REMARK    2  A    between atoms: C_2  and  C_3
REMARK    3  A    between atoms: C_11  and  O_12
REMARK    4  A    between atoms: C_14  and  C_15
REMARK    5  A    between atoms: C_16  and  O_18
REMARK    6  A    between atoms: C_20  and  C_21
REMARK    7  A    between atoms: C_20  and  C_22
REMARK                            x       y       z     vdW  Elec       q    Type
REMARK                         _______ _______ _______ _____ _____    ______ ____
ROOT
ATOM      1  C   LIG A   1      -5.115   4.181 127.365  0.00  0.00    +0.014 C 
ATOM      2  C   LIG A   1      -6.479   3.598 126.940  0.00  0.00    +0.001 C 
ATOM      3  C   LIG A   1      -7.498   3.706 128.101  0.00  0.00    +0.014 C 
ATOM      4  C   LIG A   1      -6.994   4.524 125.796  0.00  0.00    +0.010 C 
ATOM      5  C   LIG A   1      -8.273   4.002 125.162  0.00  0.00    +0.003 C 
ATOM      6  C   LIG A   1      -8.014   2.704 124.420  0.00  0.00    +0.039 C 
ATOM      7  C   LIG A   1      -7.199   1.692 125.216  0.00  0.00    +0.116 C 
ATOM      8  O   LIG A   1      -5.799   2.076 125.108  0.00  0.00    -0.355 OA
ATOM      9  C   LIG A   1      -6.328   2.122 126.440  0.00  0.00    +0.133 C 
ATOM     10  C   LIG A   1      -5.903   1.017 127.381  0.00  0.00    +0.022 C 
ATOM     11  C   LIG A   1      -5.797  -0.325 126.786  0.00  0.00    +0.122 C 
ATOM     12  C   LIG A   1      -6.489  -0.743 125.713  0.00  0.00    -0.016 C 
ATOM     13  C   LIG A   1      -7.400   0.175 124.877  0.00  0.00    +0.051 C 
ATOM     14  C   LIG A   1      -7.083   0.010 123.362  0.00  0.00    +0.021 C 
ATOM     15  C   LIG A   1      -8.853  -0.332 125.202  0.00  0.00    +0.128 C 
ATOM     16  C   LIG A   1      -9.039  -1.847 124.947  0.00  0.00    +0.043 C 
ATOM     17  C   LIG A   1      -7.990  -2.776 125.603  0.00  0.00    -0.008 C 
ATOM     18  C   LIG A   1      -8.078  -4.160 124.920  0.00  0.00    +0.016 C 
ATOM     19  C   LIG A   1      -6.556  -2.221 125.365  0.00  0.00    +0.046 C 
ATOM     20  C   LIG A   1      -5.627   1.126 128.697  0.00  0.00    +0.019 C 
ENDROOT
BRANCH  11  21
ATOM     21  O   LIG A   1      -4.950  -1.213 127.432  0.00  0.00    -0.506 OA
ATOM     22  H   LIG A   1      -4.903  -0.926 128.360  0.00  0.00    +0.292 HD
ENDBRANCH  11  21
BRANCH  15  23
ATOM     23  O   LIG A   1      -9.849   0.311 124.402  0.00  0.00    -0.391 OA
ATOM     24  H   LIG A   1     -10.719   0.026 124.732  0.00  0.00    +0.210 HD
ENDBRANCH  15  23
BRANCH  17  25
ATOM     25  C   LIG A   1      -8.283  -2.857 127.106  0.00  0.00    -0.028 C 
ATOM     26  C   LIG A   1      -8.890  -3.846 127.776  0.00  0.00    +0.004 C 
ENDBRANCH  17  25
TORSDOF 3
ENDMDL
MODEL 6
REMARK VINA RESULT:      -7.0      1.599      4.053
REMARK  Name = NuBBE_2241
REMARK  7 active torsions:
REMARK  status: ('A' for Active; 'I' for Inactive)
REMARK    1  A    between atoms: C_1  and  C_2
REMARK    2  A    between atoms: C_2  and  C_3
REMARK    3  A    between atoms: C_11  and  O_12
REMARK    4  A    between atoms: C_14  and  C_15
REMARK    5  A    between atoms: C_16  and  O_18
REMARK    6  A    between atoms: C_20  and  C_21
REMARK    7  A    between atoms: C_20  and  C_22
REMARK                            x       y       z     vdW  Elec       q    Type
REMARK                         _______ _______ _______ _____ _____    ______ ____
ROOT
ATOM      1  C   LIG A   1      -6.845   2.728 122.971  0.00  0.00    +0.014 C 
ATOM      2  C   LIG A   1      -7.910   1.812 123.610  0.00  0.00    +0.001 C 
ATOM      3  C   LIG A   1      -8.948   2.653 124.391  0.00  0.00    +0.014 C 
ATOM      4  C   LIG A   1      -8.666   1.152 122.416  0.00  0.00    +0.010 C 
ATOM      5  C   LIG A   1      -9.664   0.102 122.875  0.00  0.00    +0.003 C 
ATOM      6  C   LIG A   1      -8.948  -1.088 123.487  0.00  0.00    +0.039 C 
ATOM      7  C   LIG A   1      -7.868  -0.707 124.492  0.00  0.00    +0.116 C 
ATOM      8  O   LIG A   1      -6.681  -0.334 123.736  0.00  0.00    -0.355 OA
ATOM      9  C   LIG A   1      -7.244   0.726 124.519  0.00  0.00    +0.133 C 
ATOM     10  C   LIG A   1      -6.504   1.110 125.781  0.00  0.00    +0.022 C 
ATOM     11  C   LIG A   1      -5.922  -0.005 126.546  0.00  0.00    +0.122 C 
ATOM     12  C   LIG A   1      -6.388  -1.266 126.535  0.00  0.00    -0.016 C 
ATOM     13  C   LIG A   1      -7.525  -1.745 125.615  0.00  0.00    +0.051 C 
ATOM     14  C   LIG A   1      -7.113  -3.062 124.893  0.00  0.00    +0.021 C 
ATOM     15  C   LIG A   1      -8.728  -1.998 126.594  0.00  0.00    +0.128 C 
ATOM     16  C   LIG A   1      -8.375  -2.961 127.754  0.00  0.00    +0.043 C 
ATOM     17  C   LIG A   1      -7.098  -2.614 128.555  0.00  0.00    -0.008 C 
ATOM     18  C   LIG A   1      -6.681  -3.863 129.363  0.00  0.00    +0.016 C 
ATOM     19  C   LIG A   1      -5.932  -2.267 127.585  0.00  0.00    +0.046 C 
ATOM     20  C   LIG A   1      -6.332   2.350 126.282  0.00  0.00    +0.019 C 
ENDROOT
BRANCH  11  21
ATOM     21  O   LIG A   1      -4.848   0.311 127.364  0.00  0.00    -0.506 OA
ATOM     22  H   LIG A   1      -4.862  -0.325 128.099  0.00  0.00    +0.292 HD
ENDBRANCH  11  21
BRANCH  15  23
ATOM     23  O   LIG A   1      -9.853  -2.593 125.940  0.00  0.00    -0.391 OA
ATOM     24  H   LIG A   1     -10.472  -1.877 125.714  0.00  0.00    +0.210 HD
ENDBRANCH  15  23
BRANCH  17  25
ATOM     25  C   LIG A   1      -7.403  -1.416 129.463  0.00  0.00    -0.028 C 
ATOM     26  C   LIG A   1      -7.989  -1.424 130.669  0.00  0.00    +0.004 C 
ENDBRANCH  17  25
TORSDOF 3
ENDMDL
MODEL 7
REMARK VINA RESULT:      -7.0      5.031      7.860
REMARK  Name = NuBBE_2241
REMARK  7 active torsions:
REMARK  status: ('A' for Active; 'I' for Inactive)
REMARK    1  A    between atoms: C_1  and  C_2
REMARK    2  A    between atoms: C_2  and  C_3
REMARK    3  A    between atoms: C_11  and  O_12
REMARK    4  A    between atoms: C_14  and  C_15
REMARK    5  A    between atoms: C_16  and  O_18
REMARK    6  A    between atoms: C_20  and  C_21
REMARK    7  A    between atoms: C_20  and  C_22
REMARK                            x       y       z     vdW  Elec       q    Type
REMARK                         _______ _______ _______ _____ _____    ______ ____
ROOT
ATOM      1  C   LIG A   1      -9.118   3.593 132.086  0.00  0.00    +0.014 C 
ATOM      2  C   LIG A   1      -8.395   4.579 131.143  0.00  0.00    +0.001 C 
ATOM      3  C   LIG A   1      -9.322   4.988 129.974  0.00  0.00    +0.014 C 
ATOM      4  C   LIG A   1      -8.141   5.862 131.993  0.00  0.00    +0.010 C 
ATOM      5  C   LIG A   1      -7.303   6.889 131.250  0.00  0.00    +0.003 C 
ATOM      6  C   LIG A   1      -5.891   6.375 131.033  0.00  0.00    +0.039 C 
ATOM      7  C   LIG A   1      -5.831   4.948 130.500  0.00  0.00    +0.116 C 
ATOM      8  O   LIG A   1      -6.024   4.051 131.629  0.00  0.00    -0.355 OA
ATOM      9  C   LIG A   1      -7.046   3.974 130.627  0.00  0.00    +0.133 C 
ATOM     10  C   LIG A   1      -7.028   2.759 129.726  0.00  0.00    +0.022 C 
ATOM     11  C   LIG A   1      -5.696   2.289 129.313  0.00  0.00    +0.122 C 
ATOM     12  C   LIG A   1      -4.605   3.068 129.220  0.00  0.00    -0.016 C 
ATOM     13  C   LIG A   1      -4.571   4.543 129.660  0.00  0.00    +0.051 C 
ATOM     14  C   LIG A   1      -3.330   4.806 130.563  0.00  0.00    +0.021 C 
ATOM     15  C   LIG A   1      -4.459   5.341 128.310  0.00  0.00    +0.128 C 
ATOM     16  C   LIG A   1      -3.263   4.892 127.436  0.00  0.00    +0.043 C 
ATOM     17  C   LIG A   1      -3.156   3.372 127.168  0.00  0.00    -0.008 C 
ATOM     18  C   LIG A   1      -1.728   3.072 126.659  0.00  0.00    +0.016 C 
ATOM     19  C   LIG A   1      -3.366   2.577 128.489  0.00  0.00    +0.046 C 
ATOM     20  C   LIG A   1      -8.091   2.075 129.256  0.00  0.00    +0.019 C 
ENDROOT
BRANCH  11  21
ATOM     21  O   LIG A   1      -5.606   0.953 128.953  0.00  0.00    -0.506 OA
ATOM     22  H   LIG A   1      -6.168   0.460 129.575  0.00  0.00    +0.292 HD
ENDBRANCH  11  21
BRANCH  15  23
ATOM     23  O   LIG A   1      -4.270   6.744 128.517  0.00  0.00    -0.391 OA
ATOM     24  H   LIG A   1      -5.071   7.197 128.202  0.00  0.00    +0.210 HD
ENDBRANCH  15  23
BRANCH  17  25
ATOM     25  C   LIG A   1      -4.227   2.982 126.141  0.00  0.00    -0.028 C 
ATOM     26  C   LIG A   1      -4.814   3.764 125.225  0.00  0.00    +0.004 C 
ENDBRANCH  17  25
TORSDOF 3
ENDMDL
MODEL 8
REMARK VINA RESULT:      -6.6      4.780      7.733
REMARK  Name = NuBBE_2241
REMARK  7 active torsions:
REMARK  status: ('A' for Active; 'I' for Inactive)
REMARK    1  A    between atoms: C_1  and  C_2
REMARK    2  A    between atoms: C_2  and  C_3
REMARK    3  A    between atoms: C_11  and  O_12
REMARK    4  A    between atoms: C_14  and  C_15
REMARK    5  A    between atoms: C_16  and  O_18
REMARK    6  A    between atoms: C_20  and  C_21
REMARK    7  A    between atoms: C_20  and  C_22
REMARK                            x       y       z     vdW  Elec       q    Type
REMARK                         _______ _______ _______ _____ _____    ______ ____
ROOT
ATOM      1  C   LIG A   1      -2.200   4.948 131.700  0.00  0.00    +0.014 C 
ATOM      2  C   LIG A   1      -3.297   5.377 130.702  0.00  0.00    +0.001 C 
ATOM      3  C   LIG A   1      -4.600   5.741 131.454  0.00  0.00    +0.014 C 
ATOM      4  C   LIG A   1      -2.772   6.688 130.040  0.00  0.00    +0.010 C 
ATOM      5  C   LIG A   1      -3.677   7.170 128.918  0.00  0.00    +0.003 C 
ATOM      6  C   LIG A   1      -3.650   6.199 127.751  0.00  0.00    +0.039 C 
ATOM      7  C   LIG A   1      -3.810   4.740 128.161  0.00  0.00    +0.116 C 
ATOM      8  O   LIG A   1      -2.513   4.272 128.628  0.00  0.00    -0.355 OA
ATOM      9  C   LIG A   1      -3.542   4.266 129.626  0.00  0.00    +0.133 C 
ATOM     10  C   LIG A   1      -4.113   2.919 130.009  0.00  0.00    +0.022 C 
ATOM     11  C   LIG A   1      -4.292   1.963 128.905  0.00  0.00    +0.122 C 
ATOM     12  C   LIG A   1      -4.489   2.306 127.621  0.00  0.00    -0.016 C 
ATOM     13  C   LIG A   1      -4.424   3.755 127.107  0.00  0.00    +0.051 C 
ATOM     14  C   LIG A   1      -3.520   3.837 125.842  0.00  0.00    +0.021 C 
ATOM     15  C   LIG A   1      -5.916   4.101 126.751  0.00  0.00    +0.128 C 
ATOM     16  C   LIG A   1      -6.556   3.088 125.771  0.00  0.00    +0.043 C 
ATOM     17  C   LIG A   1      -6.433   1.597 126.166  0.00  0.00    -0.008 C 
ATOM     18  C   LIG A   1      -6.740   0.741 124.916  0.00  0.00    +0.016 C 
ATOM     19  C   LIG A   1      -4.978   1.278 126.613  0.00  0.00    +0.046 C 
ATOM     20  C   LIG A   1      -4.482   2.508 131.240  0.00  0.00    +0.019 C 
ENDROOT
BRANCH  11  21
ATOM     21  O   LIG A   1      -4.304   0.621 129.256  0.00  0.00    -0.506 OA
ATOM     22  H   LIG A   1      -3.377   0.363 129.397  0.00  0.00    +0.292 HD
ENDBRANCH  11  21
BRANCH  15  23
ATOM     23  O   LIG A   1      -6.046   5.376 126.114  0.00  0.00    -0.391 OA
ATOM     24  H   LIG A   1      -6.964   5.672 126.236  0.00  0.00    +0.210 HD
ENDBRANCH  15  23
BRANCH  17  25
ATOM     25  C   LIG A   1      -7.413   1.314 127.311  0.00  0.00    -0.028 C 
ATOM     26  C   LIG A   1      -7.600   0.162 127.970  0.00  0.00    +0.004 C 
ENDBRANCH  17  25
TORSDOF 3
ENDMDL
MODEL 9
REMARK VINA RESULT:      -6.6      4.438      7.179
REMARK  Name = NuBBE_2241
REMARK  7 active torsions:
REMARK  status: ('A' for Active; 'I' for Inactive)
REMARK    1  A    between atoms: C_1  and  C_2
REMARK    2  A    between atoms: C_2  and  C_3
REMARK    3  A    between atoms: C_11  and  O_12
REMARK    4  A    between atoms: C_14  and  C_15
REMARK    5  A    between atoms: C_16  and  O_18
REMARK    6  A    between atoms: C_20  and  C_21
REMARK    7  A    between atoms: C_20  and  C_22
REMARK                            x       y       z     vdW  Elec       q    Type
REMARK                         _______ _______ _______ _____ _____    ______ ____
ROOT
ATOM      1  C   LIG A   1      -8.317   6.858 131.053  0.00  0.00    +0.014 C 
ATOM      2  C   LIG A   1      -7.776   5.718 131.942  0.00  0.00    +0.001 C 
ATOM      3  C   LIG A   1      -6.296   5.978 132.313  0.00  0.00    +0.014 C 
ATOM      4  C   LIG A   1      -8.596   5.792 133.266  0.00  0.00    +0.010 C 
ATOM      5  C   LIG A   1      -8.283   4.638 134.205  0.00  0.00    +0.003 C 
ATOM      6  C   LIG A   1      -8.760   3.323 133.616  0.00  0.00    +0.039 C 
ATOM      7  C   LIG A   1      -8.370   3.124 132.156  0.00  0.00    +0.116 C 
ATOM      8  O   LIG A   1      -9.317   3.873 131.344  0.00  0.00    -0.355 OA
ATOM      9  C   LIG A   1      -7.961   4.328 131.246  0.00  0.00    +0.133 C 
ATOM     10  C   LIG A   1      -7.217   3.984 129.975  0.00  0.00    +0.022 C 
ATOM     11  C   LIG A   1      -7.481   2.646 129.421  0.00  0.00    +0.122 C 
ATOM     12  C   LIG A   1      -7.871   1.582 130.144  0.00  0.00    -0.016 C 
ATOM     13  C   LIG A   1      -8.219   1.651 131.642  0.00  0.00    +0.051 C 
ATOM     14  C   LIG A   1      -9.581   0.945 131.909  0.00  0.00    +0.021 C 
ATOM     15  C   LIG A   1      -7.042   0.881 132.344  0.00  0.00    +0.128 C 
ATOM     16  C   LIG A   1      -6.834  -0.548 131.786  0.00  0.00    +0.043 C 
ATOM     17  C   LIG A   1      -6.704  -0.661 130.248  0.00  0.00    -0.008 C 
ATOM     18  C   LIG A   1      -6.922  -2.139 129.853  0.00  0.00    +0.016 C 
ATOM     19  C   LIG A   1      -7.811   0.183 129.552  0.00  0.00    +0.046 C 
ATOM     20  C   LIG A   1      -6.337   4.759 129.308  0.00  0.00    +0.019 C 
ENDROOT
BRANCH  11  21
ATOM     21  O   LIG A   1      -7.255   2.494 128.061  0.00  0.00    -0.506 OA
ATOM     22  H   LIG A   1      -8.066   2.109 127.687  0.00  0.00    +0.292 HD
ENDBRANCH  11  21
BRANCH  15  23
ATOM     23  O   LIG A   1      -7.259   0.710 133.748  0.00  0.00    -0.391 OA
ATOM     24  H   LIG A   1      -8.134   1.082 133.956  0.00  0.00    +0.210 HD
ENDBRANCH  15  23
BRANCH  17  25
ATOM     25  C   LIG A   1      -5.317  -0.153 129.838  0.00  0.00    -0.028 C 
ATOM     26  C   LIG A   1      -4.137  -0.425 130.413  0.00  0.00    +0.004 C 
ENDBRANCH  17  25
TORSDOF 3
ENDMDL
