MODEL 1
REMARK VINA RESULT:      -5.6      0.000      0.000
REMARK  Name = NuBBE_453
REMARK  16 active torsions:
REMARK  status: ('A' for Active; 'I' for Inactive)
REMARK    1  A    between atoms: O_1  and  C_2
REMARK    2  A    between atoms: C_4  and  C_6
REMARK    3  A    between atoms: C_9  and  C_11
REMARK    4  A    between atoms: C_11  and  C_12
REMARK    5  A    between atoms: C_12  and  C_13
REMARK    6  A    between atoms: C_13  and  C_14
REMARK    7  A    between atoms: C_14  and  C_15
REMARK    8  A    between atoms: C_15  and  C_16
REMARK    9  A    between atoms: C_16  and  C_17
REMARK   10  A    between atoms: C_17  and  C_18
REMARK   11  A    between atoms: C_18  and  C_19
REMARK   12  A    between atoms: C_19  and  C_20
REMARK   13  A    between atoms: C_20  and  C_21
REMARK   14  A    between atoms: C_21  and  O_22
REMARK   15  A    between atoms: C_21  and  C_23
REMARK   16  A    between atoms: C_23  and  O_24
REMARK                            x       y       z     vdW  Elec       q    Type
REMARK                         _______ _______ _______ _____ _____    ______ ____
ROOT
ATOM      1  C   LIG A   1      -9.379  -2.912 125.944  0.00  0.00    +0.000 C 
ENDROOT
BRANCH   1   2
ATOM      2  C   LIG A   1      -8.746  -3.439 127.259  0.00  0.00    +0.002 C 
BRANCH   2   3
ATOM      3  C   LIG A   1      -8.107  -2.648 128.460  0.00  0.00    +0.019 C 
BRANCH   3   9
ATOM      4  C   LIG A   1      -4.387  -2.096 130.630  0.00  0.00    +0.131 C 
ATOM      5  C   LIG A   1      -4.536  -3.368 129.786  0.00  0.00    +0.079 C 
ATOM      6  C   LIG A   1      -3.193  -3.639 129.103  0.00  0.00    +0.026 C 
ATOM      7  N   LIG A   1      -5.672  -3.253 128.826  0.00  0.00    -0.308 NA
ATOM      8  H   LIG A   1      -5.645  -4.036 128.169  0.00  0.00    +0.122 HD
ATOM      9  C   LIG A   1      -7.034  -3.233 129.484  0.00  0.00    +0.054 C 
ATOM     10  C   LIG A   1      -6.921  -2.659 130.926  0.00  0.00    +0.021 C 
ATOM     11  C   LIG A   1      -5.775  -1.653 131.054  0.00  0.00    +0.034 C 
BRANCH   4  12
ATOM     12  O   LIG A   1      -3.678  -1.087 129.915  0.00  0.00    -0.390 OA
ATOM     13  H   LIG A   1      -3.965  -0.208 130.265  0.00  0.00    +0.210 HD
ENDBRANCH   4  12
ENDBRANCH   3   9
ENDBRANCH   2   3
ENDBRANCH   1   2
BRANCH   1  14
ATOM     14  C   LIG A   1      -8.890  -3.313 124.533  0.00  0.00    -0.000 C 
BRANCH  14  15
ATOM     15  C   LIG A   1      -7.430  -3.753 124.377  0.00  0.00    -0.000 C 
BRANCH  15  16
ATOM     16  C   LIG A   1      -6.549  -2.690 123.749  0.00  0.00    -0.000 C 
BRANCH  16  17
ATOM     17  C   LIG A   1      -5.754  -1.801 124.701  0.00  0.00    -0.000 C 
BRANCH  17  18
ATOM     18  C   LIG A   1      -6.540  -0.512 125.070  0.00  0.00    +0.000 C 
BRANCH  18  19
ATOM     19  C   LIG A   1      -7.137   0.452 124.080  0.00  0.00    +0.003 C 
BRANCH  19  20
ATOM     20  C   LIG A   1      -8.634   0.389 123.909  0.00  0.00    +0.034 C 
BRANCH  20  21
ATOM     21  C   LIG A   1      -9.402   1.662 123.493  0.00  0.00    +0.140 C 
BRANCH  21  22
ATOM     22  O   LIG A   1      -9.763   2.341 124.708  0.00  0.00    -0.390 OA
ATOM     23  H   LIG A   1      -8.934   2.672 125.112  0.00  0.00    +0.210 HD
ENDBRANCH  21  22
BRANCH  21  24
ATOM     24  C   LIG A   1      -8.677   2.679 122.587  0.00  0.00    +0.187 C 
BRANCH  24  25
ATOM     25  O   LIG A   1      -8.216   3.824 123.348  0.00  0.00    -0.393 OA
ATOM     26  H   LIG A   1      -8.927   4.167 123.823  0.00  0.00    +0.209 HD
ENDBRANCH  24  25
ENDBRANCH  21  24
ENDBRANCH  20  21
ENDBRANCH  19  20
ENDBRANCH  18  19
ENDBRANCH  17  18
ENDBRANCH  16  17
ENDBRANCH  15  16
ENDBRANCH  14  15
ENDBRANCH   1  14
TORSDOF 15
ENDMDL
MODEL 2
REMARK VINA RESULT:      -5.6      2.105      7.737
REMARK  Name = NuBBE_453
REMARK  16 active torsions:
REMARK  status: ('A' for Active; 'I' for Inactive)
REMARK    1  A    between atoms: O_1  and  C_2
REMARK    2  A    between atoms: C_4  and  C_6
REMARK    3  A    between atoms: C_9  and  C_11
REMARK    4  A    between atoms: C_11  and  C_12
REMARK    5  A    between atoms: C_12  and  C_13
REMARK    6  A    between atoms: C_13  and  C_14
REMARK    7  A    between atoms: C_14  and  C_15
REMARK    8  A    between atoms: C_15  and  C_16
REMARK    9  A    between atoms: C_16  and  C_17
REMARK   10  A    between atoms: C_17  and  C_18
REMARK   11  A    between atoms: C_18  and  C_19
REMARK   12  A    between atoms: C_19  and  C_20
REMARK   13  A    between atoms: C_20  and  C_21
REMARK   14  A    between atoms: C_21  and  O_22
REMARK   15  A    between atoms: C_21  and  C_23
REMARK   16  A    between atoms: C_23  and  O_24
REMARK                            x       y       z     vdW  Elec       q    Type
REMARK                         _______ _______ _______ _____ _____    ______ ____
ROOT
ATOM      1  C   LIG A   1      -9.296  -3.293 123.788  0.00  0.00    +0.000 C 
ENDROOT
BRANCH   1   2
ATOM      2  C   LIG A   1      -8.771  -2.159 122.868  0.00  0.00    +0.002 C 
BRANCH   2   3
ATOM      3  C   LIG A   1      -7.535  -1.202 123.050  0.00  0.00    +0.019 C 
BRANCH   3   9
ATOM      4  C   LIG A   1      -8.497   2.995 123.600  0.00  0.00    +0.131 C 
ATOM      5  C   LIG A   1      -7.047   2.562 123.840  0.00  0.00    +0.079 C 
ATOM      6  C   LIG A   1      -6.130   3.648 123.271  0.00  0.00    +0.026 C 
ATOM      7  N   LIG A   1      -6.781   1.210 123.269  0.00  0.00    -0.308 NA
ATOM      8  H   LIG A   1      -5.778   1.018 123.295  0.00  0.00    +0.122 HD
ATOM      9  C   LIG A   1      -7.497   0.087 123.988  0.00  0.00    +0.054 C 
ATOM     10  C   LIG A   1      -8.800   0.623 124.649  0.00  0.00    +0.021 C 
ATOM     11  C   LIG A   1      -9.393   1.802 123.875  0.00  0.00    +0.034 C 
BRANCH   4  12
ATOM     12  O   LIG A   1      -8.663   3.521 122.285  0.00  0.00    -0.390 OA
ATOM     13  H   LIG A   1      -9.056   4.425 122.366  0.00  0.00    +0.210 HD
ENDBRANCH   4  12
ENDBRANCH   3   9
ENDBRANCH   2   3
ENDBRANCH   1   2
BRANCH   1  14
ATOM     14  C   LIG A   1      -8.654  -3.665 125.145  0.00  0.00    -0.000 C 
BRANCH  14  15
ATOM     15  C   LIG A   1      -8.906  -2.737 126.338  0.00  0.00    -0.000 C 
BRANCH  15  16
ATOM     16  C   LIG A   1      -8.605  -3.387 127.675  0.00  0.00    -0.000 C 
BRANCH  16  17
ATOM     17  C   LIG A   1      -7.951  -2.508 128.738  0.00  0.00    -0.000 C 
BRANCH  17  18
ATOM     18  C   LIG A   1      -7.493  -3.342 129.967  0.00  0.00    +0.000 C 
BRANCH  18  19
ATOM     19  C   LIG A   1      -6.323  -4.290 129.983  0.00  0.00    +0.003 C 
BRANCH  19  20
ATOM     20  C   LIG A   1      -5.354  -4.132 131.127  0.00  0.00    +0.034 C 
BRANCH  20  21
ATOM     21  C   LIG A   1      -4.336  -2.971 131.102  0.00  0.00    +0.140 C 
BRANCH  21  22
ATOM     22  O   LIG A   1      -3.167  -3.434 131.800  0.00  0.00    -0.390 OA
ATOM     23  H   LIG A   1      -2.976  -4.338 131.476  0.00  0.00    +0.210 HD
ENDBRANCH  21  22
BRANCH  21  24
ATOM     24  C   LIG A   1      -3.882  -2.438 129.729  0.00  0.00    +0.187 C 
BRANCH  24  25
ATOM     25  O   LIG A   1      -2.442  -2.275 129.679  0.00  0.00    -0.393 OA
ATOM     26  H   LIG A   1      -2.171  -2.324 128.800  0.00  0.00    +0.209 HD
ENDBRANCH  24  25
ENDBRANCH  21  24
ENDBRANCH  20  21
ENDBRANCH  19  20
ENDBRANCH  18  19
ENDBRANCH  17  18
ENDBRANCH  16  17
ENDBRANCH  15  16
ENDBRANCH  14  15
ENDBRANCH   1  14
TORSDOF 15
ENDMDL
MODEL 3
REMARK VINA RESULT:      -5.6      4.617      6.454
REMARK  Name = NuBBE_453
REMARK  16 active torsions:
REMARK  status: ('A' for Active; 'I' for Inactive)
REMARK    1  A    between atoms: O_1  and  C_2
REMARK    2  A    between atoms: C_4  and  C_6
REMARK    3  A    between atoms: C_9  and  C_11
REMARK    4  A    between atoms: C_11  and  C_12
REMARK    5  A    between atoms: C_12  and  C_13
REMARK    6  A    between atoms: C_13  and  C_14
REMARK    7  A    between atoms: C_14  and  C_15
REMARK    8  A    between atoms: C_15  and  C_16
REMARK    9  A    between atoms: C_16  and  C_17
REMARK   10  A    between atoms: C_17  and  C_18
REMARK   11  A    between atoms: C_18  and  C_19
REMARK   12  A    between atoms: C_19  and  C_20
REMARK   13  A    between atoms: C_20  and  C_21
REMARK   14  A    between atoms: C_21  and  O_22
REMARK   15  A    between atoms: C_21  and  C_23
REMARK   16  A    between atoms: C_23  and  O_24
REMARK                            x       y       z     vdW  Elec       q    Type
REMARK                         _______ _______ _______ _____ _____    ______ ____
ROOT
ATOM      1  C   LIG A   1      -6.955  -0.436 128.349  0.00  0.00    +0.000 C 
ENDROOT
BRANCH   1   2
ATOM      2  C   LIG A   1      -8.054   0.435 127.684  0.00  0.00    +0.002 C 
BRANCH   2   3
ATOM      3  C   LIG A   1      -8.256   1.996 127.706  0.00  0.00    +0.019 C 
BRANCH   3   9
ATOM      4  C   LIG A   1     -10.463   4.382 130.584  0.00  0.00    +0.131 C 
ATOM      5  C   LIG A   1      -9.262   5.036 129.892  0.00  0.00    +0.079 C 
ATOM      6  C   LIG A   1      -9.634   6.486 129.573  0.00  0.00    +0.026 C 
ATOM      7  N   LIG A   1      -8.837   4.260 128.691  0.00  0.00    -0.308 NA
ATOM      8  H   LIG A   1      -8.151   4.800 128.160  0.00  0.00    +0.122 HD
ATOM      9  C   LIG A   1      -8.233   2.911 129.013  0.00  0.00    +0.054 C 
ATOM     10  C   LIG A   1      -8.801   2.379 130.360  0.00  0.00    +0.021 C 
ATOM     11  C   LIG A   1     -10.222   2.885 130.622  0.00  0.00    +0.034 C 
BRANCH   4  12
ATOM     12  O   LIG A   1     -11.682   4.730 129.932  0.00  0.00    -0.390 OA
ATOM     13  H   LIG A   1     -11.602   5.664 129.617  0.00  0.00    +0.210 HD
ENDBRANCH   4  12
ENDBRANCH   3   9
ENDBRANCH   2   3
ENDBRANCH   1   2
BRANCH   1  14
ATOM     14  C   LIG A   1      -7.101  -1.089 129.743  0.00  0.00    -0.000 C 
BRANCH  14  15
ATOM     15  C   LIG A   1      -8.029  -2.302 129.874  0.00  0.00    -0.000 C 
BRANCH  15  16
ATOM     16  C   LIG A   1      -7.728  -3.396 128.868  0.00  0.00    -0.000 C 
BRANCH  16  17
ATOM     17  C   LIG A   1      -8.914  -3.969 128.096  0.00  0.00    -0.000 C 
BRANCH  17  18
ATOM     18  C   LIG A   1      -9.051  -3.317 126.692  0.00  0.00    +0.000 C 
BRANCH  18  19
ATOM     19  C   LIG A   1      -7.912  -3.061 125.741  0.00  0.00    +0.003 C 
BRANCH  19  20
ATOM     20  C   LIG A   1      -8.056  -3.641 124.357  0.00  0.00    +0.034 C 
BRANCH  20  21
ATOM     21  C   LIG A   1      -8.906  -2.894 123.307  0.00  0.00    +0.140 C 
BRANCH  21  22
ATOM     22  O   LIG A   1     -10.229  -3.455 123.374  0.00  0.00    -0.390 OA
ATOM     23  H   LIG A   1     -10.537  -3.359 124.299  0.00  0.00    +0.210 HD
ENDBRANCH  21  22
BRANCH  21  24
ATOM     24  C   LIG A   1      -9.039  -1.364 123.443  0.00  0.00    +0.187 C 
BRANCH  24  25
ATOM     25  O   LIG A   1     -10.060  -0.845 122.553  0.00  0.00    -0.393 OA
ATOM     26  H   LIG A   1     -10.881  -0.944 122.960  0.00  0.00    +0.209 HD
ENDBRANCH  24  25
ENDBRANCH  21  24
ENDBRANCH  20  21
ENDBRANCH  19  20
ENDBRANCH  18  19
ENDBRANCH  17  18
ENDBRANCH  16  17
ENDBRANCH  15  16
ENDBRANCH  14  15
ENDBRANCH   1  14
TORSDOF 15
ENDMDL
MODEL 4
REMARK VINA RESULT:      -5.5      1.620      1.848
REMARK  Name = NuBBE_453
REMARK  16 active torsions:
REMARK  status: ('A' for Active; 'I' for Inactive)
REMARK    1  A    between atoms: O_1  and  C_2
REMARK    2  A    between atoms: C_4  and  C_6
REMARK    3  A    between atoms: C_9  and  C_11
REMARK    4  A    between atoms: C_11  and  C_12
REMARK    5  A    between atoms: C_12  and  C_13
REMARK    6  A    between atoms: C_13  and  C_14
REMARK    7  A    between atoms: C_14  and  C_15
REMARK    8  A    between atoms: C_15  and  C_16
REMARK    9  A    between atoms: C_16  and  C_17
REMARK   10  A    between atoms: C_17  and  C_18
REMARK   11  A    between atoms: C_18  and  C_19
REMARK   12  A    between atoms: C_19  and  C_20
REMARK   13  A    between atoms: C_20  and  C_21
REMARK   14  A    between atoms: C_21  and  O_22
REMARK   15  A    between atoms: C_21  and  C_23
REMARK   16  A    between atoms: C_23  and  O_24
REMARK                            x       y       z     vdW  Elec       q    Type
REMARK                         _______ _______ _______ _____ _____    ______ ____
ROOT
ATOM      1  C   LIG A   1      -9.442  -3.084 125.045  0.00  0.00    +0.000 C 
ENDROOT
BRANCH   1   2
ATOM      2  C   LIG A   1      -8.816  -2.631 126.390  0.00  0.00    +0.002 C 
BRANCH   2   3
ATOM      3  C   LIG A   1      -8.663  -3.414 127.747  0.00  0.00    +0.019 C 
BRANCH   3   9
ATOM      4  C   LIG A   1      -4.853  -2.830 129.744  0.00  0.00    +0.131 C 
ATOM      5  C   LIG A   1      -5.949  -3.577 130.511  0.00  0.00    +0.079 C 
ATOM      6  C   LIG A   1      -5.290  -4.730 131.273  0.00  0.00    +0.026 C 
ATOM      7  N   LIG A   1      -7.042  -4.025 129.599  0.00  0.00    -0.308 NA
ATOM      8  H   LIG A   1      -7.669  -4.657 130.101  0.00  0.00    +0.122 HD
ATOM      9  C   LIG A   1      -7.868  -2.894 129.028  0.00  0.00    +0.054 C 
ATOM     10  C   LIG A   1      -7.015  -1.594 128.955  0.00  0.00    +0.021 C 
ATOM     11  C   LIG A   1      -5.528  -1.896 128.757  0.00  0.00    +0.034 C 
BRANCH   4  12
ATOM     12  O   LIG A   1      -3.953  -3.741 129.118  0.00  0.00    -0.390 OA
ATOM     13  H   LIG A   1      -4.482  -4.331 128.526  0.00  0.00    +0.210 HD
ENDBRANCH   4  12
ENDBRANCH   3   9
ENDBRANCH   2   3
ENDBRANCH   1   2
BRANCH   1  14
ATOM     14  C   LIG A   1      -8.638  -3.244 123.733  0.00  0.00    -0.000 C 
BRANCH  14  15
ATOM     15  C   LIG A   1      -8.384  -1.990 122.889  0.00  0.00    -0.000 C 
BRANCH  15  16
ATOM     16  C   LIG A   1      -6.919  -1.605 122.815  0.00  0.00    -0.000 C 
BRANCH  16  17
ATOM     17  C   LIG A   1      -6.221  -1.290 124.135  0.00  0.00    -0.000 C 
BRANCH  17  18
ATOM     18  C   LIG A   1      -6.852  -0.054 124.835  0.00  0.00    +0.000 C 
BRANCH  18  19
ATOM     19  C   LIG A   1      -6.592   1.381 124.458  0.00  0.00    +0.003 C 
BRANCH  19  20
ATOM     20  C   LIG A   1      -7.613   2.029 123.559  0.00  0.00    +0.034 C 
BRANCH  20  21
ATOM     21  C   LIG A   1      -8.578   3.083 124.145  0.00  0.00    +0.140 C 
BRANCH  21  22
ATOM     22  O   LIG A   1      -9.706   2.361 124.670  0.00  0.00    -0.390 OA
ATOM     23  H   LIG A   1      -9.427   1.428 124.779  0.00  0.00    +0.210 HD
ENDBRANCH  21  22
BRANCH  21  24
ATOM     24  C   LIG A   1      -8.049   4.002 125.265  0.00  0.00    +0.187 C 
BRANCH  24  25
ATOM     25  O   LIG A   1      -8.969   5.092 125.527  0.00  0.00    -0.393 OA
ATOM     26  H   LIG A   1      -8.740   5.482 126.330  0.00  0.00    +0.209 HD
ENDBRANCH  24  25
ENDBRANCH  21  24
ENDBRANCH  20  21
ENDBRANCH  19  20
ENDBRANCH  18  19
ENDBRANCH  17  18
ENDBRANCH  16  17
ENDBRANCH  15  16
ENDBRANCH  14  15
ENDBRANCH   1  14
TORSDOF 15
ENDMDL
MODEL 5
REMARK VINA RESULT:      -5.5      2.552      6.404
REMARK  Name = NuBBE_453
REMARK  16 active torsions:
REMARK  status: ('A' for Active; 'I' for Inactive)
REMARK    1  A    between atoms: O_1  and  C_2
REMARK    2  A    between atoms: C_4  and  C_6
REMARK    3  A    between atoms: C_9  and  C_11
REMARK    4  A    between atoms: C_11  and  C_12
REMARK    5  A    between atoms: C_12  and  C_13
REMARK    6  A    between atoms: C_13  and  C_14
REMARK    7  A    between atoms: C_14  and  C_15
REMARK    8  A    between atoms: C_15  and  C_16
REMARK    9  A    between atoms: C_16  and  C_17
REMARK   10  A    between atoms: C_17  and  C_18
REMARK   11  A    between atoms: C_18  and  C_19
REMARK   12  A    between atoms: C_19  and  C_20
REMARK   13  A    between atoms: C_20  and  C_21
REMARK   14  A    between atoms: C_21  and  O_22
REMARK   15  A    between atoms: C_21  and  C_23
REMARK   16  A    between atoms: C_23  and  O_24
REMARK                            x       y       z     vdW  Elec       q    Type
REMARK                         _______ _______ _______ _____ _____    ______ ____
ROOT
ATOM      1  C   LIG A   1      -4.739  -1.362 128.347  0.00  0.00    +0.000 C 
ENDROOT
BRANCH   1   2
ATOM      2  C   LIG A   1      -5.905  -0.427 128.762  0.00  0.00    +0.002 C 
BRANCH   2   3
ATOM      3  C   LIG A   1      -7.032   0.233 127.883  0.00  0.00    +0.019 C 
BRANCH   3   9
ATOM      4  C   LIG A   1      -7.981   3.013 124.687  0.00  0.00    +0.131 C 
ATOM      5  C   LIG A   1      -8.284   1.529 124.450  0.00  0.00    +0.079 C 
ATOM      6  C   LIG A   1      -9.621   1.433 123.711  0.00  0.00    +0.026 C 
ATOM      7  N   LIG A   1      -8.261   0.759 125.728  0.00  0.00    -0.308 NA
ATOM      8  H   LIG A   1      -8.626  -0.182 125.566  0.00  0.00    +0.122 HD
ATOM      9  C   LIG A   1      -6.886   0.635 126.347  0.00  0.00    +0.054 C 
ATOM     10  C   LIG A   1      -6.001   1.845 125.927  0.00  0.00    +0.021 C 
ATOM     11  C   LIG A   1      -6.834   3.104 125.675  0.00  0.00    +0.034 C 
BRANCH   4  12
ATOM     12  O   LIG A   1      -9.146   3.710 125.124  0.00  0.00    -0.390 OA
ATOM     13  H   LIG A   1      -8.851   4.507 125.629  0.00  0.00    +0.210 HD
ENDBRANCH   4  12
ENDBRANCH   3   9
ENDBRANCH   2   3
ENDBRANCH   1   2
BRANCH   1  14
ATOM     14  C   LIG A   1      -4.754  -2.896 128.546  0.00  0.00    -0.000 C 
BRANCH  14  15
ATOM     15  C   LIG A   1      -5.055  -3.435 129.949  0.00  0.00    -0.000 C 
BRANCH  15  16
ATOM     16  C   LIG A   1      -6.394  -4.140 130.044  0.00  0.00    -0.000 C 
BRANCH  16  17
ATOM     17  C   LIG A   1      -7.598  -3.286 130.430  0.00  0.00    -0.000 C 
BRANCH  17  18
ATOM     18  C   LIG A   1      -8.431  -2.874 129.184  0.00  0.00    +0.000 C 
BRANCH  18  19
ATOM     19  C   LIG A   1      -8.807  -3.792 128.052  0.00  0.00    +0.003 C 
BRANCH  19  20
ATOM     20  C   LIG A   1      -8.365  -3.368 126.675  0.00  0.00    +0.034 C 
BRANCH  20  21
ATOM     21  C   LIG A   1      -9.428  -3.031 125.608  0.00  0.00    +0.140 C 
BRANCH  21  22
ATOM     22  O   LIG A   1      -9.749  -1.639 125.772  0.00  0.00    -0.390 OA
ATOM     23  H   LIG A   1     -10.708  -1.540 125.596  0.00  0.00    +0.210 HD
ENDBRANCH  21  22
BRANCH  21  24
ATOM     24  C   LIG A   1      -9.062  -3.255 124.127  0.00  0.00    +0.187 C 
BRANCH  24  25
ATOM     25  O   LIG A   1     -10.238  -3.556 123.334  0.00  0.00    -0.393 OA
ATOM     26  H   LIG A   1     -10.953  -3.676 123.904  0.00  0.00    +0.209 HD
ENDBRANCH  24  25
ENDBRANCH  21  24
ENDBRANCH  20  21
ENDBRANCH  19  20
ENDBRANCH  18  19
ENDBRANCH  17  18
ENDBRANCH  16  17
ENDBRANCH  15  16
ENDBRANCH  14  15
ENDBRANCH   1  14
TORSDOF 15
ENDMDL
MODEL 6
REMARK VINA RESULT:      -5.4      1.917      2.466
REMARK  Name = NuBBE_453
REMARK  16 active torsions:
REMARK  status: ('A' for Active; 'I' for Inactive)
REMARK    1  A    between atoms: O_1  and  C_2
REMARK    2  A    between atoms: C_4  and  C_6
REMARK    3  A    between atoms: C_9  and  C_11
REMARK    4  A    between atoms: C_11  and  C_12
REMARK    5  A    between atoms: C_12  and  C_13
REMARK    6  A    between atoms: C_13  and  C_14
REMARK    7  A    between atoms: C_14  and  C_15
REMARK    8  A    between atoms: C_15  and  C_16
REMARK    9  A    between atoms: C_16  and  C_17
REMARK   10  A    between atoms: C_17  and  C_18
REMARK   11  A    between atoms: C_18  and  C_19
REMARK   12  A    between atoms: C_19  and  C_20
REMARK   13  A    between atoms: C_20  and  C_21
REMARK   14  A    between atoms: C_21  and  O_22
REMARK   15  A    between atoms: C_21  and  C_23
REMARK   16  A    between atoms: C_23  and  O_24
REMARK                            x       y       z     vdW  Elec       q    Type
REMARK                         _______ _______ _______ _____ _____    ______ ____
ROOT
ATOM      1  C   LIG A   1      -8.950  -2.697 126.201  0.00  0.00    +0.000 C 
ENDROOT
BRANCH   1   2
ATOM      2  C   LIG A   1      -8.893  -3.747 127.342  0.00  0.00    +0.002 C 
BRANCH   2   3
ATOM      3  C   LIG A   1      -8.685  -3.546 128.890  0.00  0.00    +0.019 C 
BRANCH   3   9
ATOM      4  C   LIG A   1      -6.908  -1.888 132.487  0.00  0.00    +0.131 C 
ATOM      5  C   LIG A   1      -7.114  -0.944 131.297  0.00  0.00    +0.079 C 
ATOM      6  C   LIG A   1      -7.586   0.406 131.843  0.00  0.00    +0.026 C 
ATOM      7  N   LIG A   1      -8.048  -1.531 130.293  0.00  0.00    -0.308 NA
ATOM      8  H   LIG A   1      -8.296  -0.821 129.600  0.00  0.00    +0.122 HD
ATOM      9  C   LIG A   1      -7.489  -2.732 129.562  0.00  0.00    +0.054 C 
ATOM     10  C   LIG A   1      -6.441  -3.459 130.453  0.00  0.00    +0.021 C 
ATOM     11  C   LIG A   1      -6.744  -3.295 131.944  0.00  0.00    +0.034 C 
BRANCH   4  12
ATOM     12  O   LIG A   1      -7.979  -1.775 133.421  0.00  0.00    -0.390 OA
ATOM     13  H   LIG A   1      -7.596  -1.499 134.290  0.00  0.00    +0.210 HD
ENDBRANCH   4  12
ENDBRANCH   3   9
ENDBRANCH   2   3
ENDBRANCH   1   2
BRANCH   1  14
ATOM     14  C   LIG A   1      -9.448  -3.009 124.771  0.00  0.00    -0.000 C 
BRANCH  14  15
ATOM     15  C   LIG A   1      -8.396  -3.252 123.682  0.00  0.00    -0.000 C 
BRANCH  15  16
ATOM     16  C   LIG A   1      -6.972  -3.174 124.197  0.00  0.00    -0.000 C 
BRANCH  16  17
ATOM     17  C   LIG A   1      -6.036  -2.197 123.492  0.00  0.00    -0.000 C 
BRANCH  17  18
ATOM     18  C   LIG A   1      -6.783  -0.908 123.048  0.00  0.00    +0.000 C 
BRANCH  18  19
ATOM     19  C   LIG A   1      -7.043   0.287 123.926  0.00  0.00    +0.003 C 
BRANCH  19  20
ATOM     20  C   LIG A   1      -8.482   0.545 124.291  0.00  0.00    +0.034 C 
BRANCH  20  21
ATOM     21  C   LIG A   1      -9.118   1.910 123.950  0.00  0.00    +0.140 C 
BRANCH  21  22
ATOM     22  O   LIG A   1     -10.538   1.756 124.115  0.00  0.00    -0.390 OA
ATOM     23  H   LIG A   1     -10.680   1.246 124.940  0.00  0.00    +0.210 HD
ENDBRANCH  21  22
BRANCH  21  24
ATOM     24  C   LIG A   1      -8.681   3.136 124.777  0.00  0.00    +0.187 C 
BRANCH  24  25
ATOM     25  O   LIG A   1      -7.947   4.084 123.962  0.00  0.00    -0.393 OA
ATOM     26  H   LIG A   1      -8.213   4.936 124.191  0.00  0.00    +0.209 HD
ENDBRANCH  24  25
ENDBRANCH  21  24
ENDBRANCH  20  21
ENDBRANCH  19  20
ENDBRANCH  18  19
ENDBRANCH  17  18
ENDBRANCH  16  17
ENDBRANCH  15  16
ENDBRANCH  14  15
ENDBRANCH   1  14
TORSDOF 15
ENDMDL
MODEL 7
REMARK VINA RESULT:      -5.4      1.595      2.320
REMARK  Name = NuBBE_453
REMARK  16 active torsions:
REMARK  status: ('A' for Active; 'I' for Inactive)
REMARK    1  A    between atoms: O_1  and  C_2
REMARK    2  A    between atoms: C_4  and  C_6
REMARK    3  A    between atoms: C_9  and  C_11
REMARK    4  A    between atoms: C_11  and  C_12
REMARK    5  A    between atoms: C_12  and  C_13
REMARK    6  A    between atoms: C_13  and  C_14
REMARK    7  A    between atoms: C_14  and  C_15
REMARK    8  A    between atoms: C_15  and  C_16
REMARK    9  A    between atoms: C_16  and  C_17
REMARK   10  A    between atoms: C_17  and  C_18
REMARK   11  A    between atoms: C_18  and  C_19
REMARK   12  A    between atoms: C_19  and  C_20
REMARK   13  A    between atoms: C_20  and  C_21
REMARK   14  A    between atoms: C_21  and  O_22
REMARK   15  A    between atoms: C_21  and  C_23
REMARK   16  A    between atoms: C_23  and  O_24
REMARK                            x       y       z     vdW  Elec       q    Type
REMARK                         _______ _______ _______ _____ _____    ______ ____
ROOT
ATOM      1  C   LIG A   1      -9.012  -3.678 127.335  0.00  0.00    +0.000 C 
ENDROOT
BRANCH   1   2
ATOM      2  C   LIG A   1      -8.327  -3.651 128.727  0.00  0.00    +0.002 C 
BRANCH   2   3
ATOM      3  C   LIG A   1      -7.756  -2.435 129.548  0.00  0.00    +0.019 C 
BRANCH   3   9
ATOM      4  C   LIG A   1      -3.449  -2.681 130.034  0.00  0.00    +0.131 C 
ATOM      5  C   LIG A   1      -4.152  -1.423 130.558  0.00  0.00    +0.079 C 
ATOM      6  C   LIG A   1      -3.499  -1.038 131.888  0.00  0.00    +0.026 C 
ATOM      7  N   LIG A   1      -5.626  -1.629 130.663  0.00  0.00    -0.308 NA
ATOM      8  H   LIG A   1      -6.045  -0.844 131.166  0.00  0.00    +0.122 HD
ATOM      9  C   LIG A   1      -6.325  -1.765 129.329  0.00  0.00    +0.054 C 
ATOM     10  C   LIG A   1      -5.340  -2.334 128.266  0.00  0.00    +0.021 C 
ATOM     11  C   LIG A   1      -4.280  -3.240 128.895  0.00  0.00    +0.034 C 
BRANCH   4  12
ATOM     12  O   LIG A   1      -3.239  -3.624 131.082  0.00  0.00    -0.390 OA
ATOM     13  H   LIG A   1      -2.287  -3.889 131.067  0.00  0.00    +0.210 HD
ENDBRANCH   4  12
ENDBRANCH   3   9
ENDBRANCH   2   3
ENDBRANCH   1   2
BRANCH   1  14
ATOM     14  C   LIG A   1      -8.503  -2.880 126.112  0.00  0.00    -0.000 C 
BRANCH  14  15
ATOM     15  C   LIG A   1      -8.143  -3.662 124.843  0.00  0.00    -0.000 C 
BRANCH  15  16
ATOM     16  C   LIG A   1      -9.129  -3.449 123.710  0.00  0.00    -0.000 C 
BRANCH  16  17
ATOM     17  C   LIG A   1      -8.977  -2.168 122.895  0.00  0.00    -0.000 C 
BRANCH  17  18
ATOM     18  C   LIG A   1      -7.509  -1.657 122.899  0.00  0.00    +0.000 C 
BRANCH  18  19
ATOM     19  C   LIG A   1      -7.046  -0.359 123.503  0.00  0.00    +0.003 C 
BRANCH  19  20
ATOM     20  C   LIG A   1      -8.108   0.488 124.157  0.00  0.00    +0.034 C 
BRANCH  20  21
ATOM     21  C   LIG A   1      -7.746   1.903 124.658  0.00  0.00    +0.140 C 
BRANCH  21  22
ATOM     22  O   LIG A   1      -6.384   2.143 124.264  0.00  0.00    -0.390 OA
ATOM     23  H   LIG A   1      -6.410   2.684 123.447  0.00  0.00    +0.210 HD
ENDBRANCH  21  22
BRANCH  21  24
ATOM     24  C   LIG A   1      -8.594   3.086 124.150  0.00  0.00    +0.187 C 
BRANCH  24  25
ATOM     25  O   LIG A   1      -8.967   3.970 125.238  0.00  0.00    -0.393 OA
ATOM     26  H   LIG A   1      -8.231   4.471 125.474  0.00  0.00    +0.209 HD
ENDBRANCH  24  25
ENDBRANCH  21  24
ENDBRANCH  20  21
ENDBRANCH  19  20
ENDBRANCH  18  19
ENDBRANCH  17  18
ENDBRANCH  16  17
ENDBRANCH  15  16
ENDBRANCH  14  15
ENDBRANCH   1  14
TORSDOF 15
ENDMDL
MODEL 8
REMARK VINA RESULT:      -5.3      2.874      5.856
REMARK  Name = NuBBE_453
REMARK  16 active torsions:
REMARK  status: ('A' for Active; 'I' for Inactive)
REMARK    1  A    between atoms: O_1  and  C_2
REMARK    2  A    between atoms: C_4  and  C_6
REMARK    3  A    between atoms: C_9  and  C_11
REMARK    4  A    between atoms: C_11  and  C_12
REMARK    5  A    between atoms: C_12  and  C_13
REMARK    6  A    between atoms: C_13  and  C_14
REMARK    7  A    between atoms: C_14  and  C_15
REMARK    8  A    between atoms: C_15  and  C_16
REMARK    9  A    between atoms: C_16  and  C_17
REMARK   10  A    between atoms: C_17  and  C_18
REMARK   11  A    between atoms: C_18  and  C_19
REMARK   12  A    between atoms: C_19  and  C_20
REMARK   13  A    between atoms: C_20  and  C_21
REMARK   14  A    between atoms: C_21  and  O_22
REMARK   15  A    between atoms: C_21  and  C_23
REMARK   16  A    between atoms: C_23  and  O_24
REMARK                            x       y       z     vdW  Elec       q    Type
REMARK                         _______ _______ _______ _____ _____    ______ ____
ROOT
ATOM      1  C   LIG A   1      -8.946  -3.874 127.444  0.00  0.00    +0.000 C 
ENDROOT
BRANCH   1   2
ATOM      2  C   LIG A   1      -8.519  -3.149 126.140  0.00  0.00    +0.002 C 
BRANCH   2   3
ATOM      3  C   LIG A   1      -9.064  -3.310 124.672  0.00  0.00    +0.019 C 
BRANCH   3   9
ATOM      4  C   LIG A   1      -7.414   0.476 123.333  0.00  0.00    +0.131 C 
ATOM      5  C   LIG A   1      -8.930   0.283 123.222  0.00  0.00    +0.079 C 
ATOM      6  C   LIG A   1      -9.603   1.602 123.612  0.00  0.00    +0.026 C 
ATOM      7  N   LIG A   1      -9.393  -0.876 124.040  0.00  0.00    -0.308 NA
ATOM      8  H   LIG A   1     -10.414  -0.880 124.081  0.00  0.00    +0.122 HD
ATOM      9  C   LIG A   1      -8.934  -2.219 123.516  0.00  0.00    +0.054 C 
ATOM     10  C   LIG A   1      -7.602  -2.058 122.727  0.00  0.00    +0.021 C 
ATOM     11  C   LIG A   1      -6.763  -0.892 123.253  0.00  0.00    +0.034 C 
BRANCH   4  12
ATOM     12  O   LIG A   1      -7.073   1.182 124.524  0.00  0.00    -0.390 OA
ATOM     13  H   LIG A   1      -7.803   1.821 124.717  0.00  0.00    +0.210 HD
ENDBRANCH   4  12
ENDBRANCH   3   9
ENDBRANCH   2   3
ENDBRANCH   1   2
BRANCH   1  14
ATOM     14  C   LIG A   1      -8.638  -3.342 128.864  0.00  0.00    -0.000 C 
BRANCH  14  15
ATOM     15  C   LIG A   1      -7.194  -2.934 129.180  0.00  0.00    -0.000 C 
BRANCH  15  16
ATOM     16  C   LIG A   1      -7.094  -1.615 129.922  0.00  0.00    -0.000 C 
BRANCH  16  17
ATOM     17  C   LIG A   1      -6.307  -0.498 129.242  0.00  0.00    -0.000 C 
BRANCH  17  18
ATOM     18  C   LIG A   1      -6.850  -0.203 127.816  0.00  0.00    +0.000 C 
BRANCH  18  19
ATOM     19  C   LIG A   1      -8.244   0.268 127.500  0.00  0.00    +0.003 C 
BRANCH  19  20
ATOM     20  C   LIG A   1      -8.631   1.619 128.048  0.00  0.00    +0.034 C 
BRANCH  20  21
ATOM     21  C   LIG A   1      -7.814   2.863 127.640  0.00  0.00    +0.140 C 
BRANCH  21  22
ATOM     22  O   LIG A   1      -8.262   3.239 126.326  0.00  0.00    -0.390 OA
ATOM     23  H   LIG A   1      -9.146   3.648 126.428  0.00  0.00    +0.210 HD
ENDBRANCH  21  22
BRANCH  21  24
ATOM     24  C   LIG A   1      -7.904   4.113 128.539  0.00  0.00    +0.187 C 
BRANCH  24  25
ATOM     25  O   LIG A   1      -8.637   5.179 127.884  0.00  0.00    -0.393 OA
ATOM     26  H   LIG A   1      -9.278   4.803 127.340  0.00  0.00    +0.209 HD
ENDBRANCH  24  25
ENDBRANCH  21  24
ENDBRANCH  20  21
ENDBRANCH  19  20
ENDBRANCH  18  19
ENDBRANCH  17  18
ENDBRANCH  16  17
ENDBRANCH  15  16
ENDBRANCH  14  15
ENDBRANCH   1  14
TORSDOF 15
ENDMDL
MODEL 9
REMARK VINA RESULT:      -5.2      3.735      7.325
REMARK  Name = NuBBE_453
REMARK  16 active torsions:
REMARK  status: ('A' for Active; 'I' for Inactive)
REMARK    1  A    between atoms: O_1  and  C_2
REMARK    2  A    between atoms: C_4  and  C_6
REMARK    3  A    between atoms: C_9  and  C_11
REMARK    4  A    between atoms: C_11  and  C_12
REMARK    5  A    between atoms: C_12  and  C_13
REMARK    6  A    between atoms: C_13  and  C_14
REMARK    7  A    between atoms: C_14  and  C_15
REMARK    8  A    between atoms: C_15  and  C_16
REMARK    9  A    between atoms: C_16  and  C_17
REMARK   10  A    between atoms: C_17  and  C_18
REMARK   11  A    between atoms: C_18  and  C_19
REMARK   12  A    between atoms: C_19  and  C_20
REMARK   13  A    between atoms: C_20  and  C_21
REMARK   14  A    between atoms: C_21  and  O_22
REMARK   15  A    between atoms: C_21  and  C_23
REMARK   16  A    between atoms: C_23  and  O_24
REMARK                            x       y       z     vdW  Elec       q    Type
REMARK                         _______ _______ _______ _____ _____    ______ ____
ROOT
ATOM      1  C   LIG A   1      -9.063  -3.920 127.490  0.00  0.00    +0.000 C 
ENDROOT
BRANCH   1   2
ATOM      2  C   LIG A   1      -8.526  -3.095 126.291  0.00  0.00    +0.002 C 
BRANCH   2   3
ATOM      3  C   LIG A   1      -8.677  -3.346 124.744  0.00  0.00    +0.019 C 
BRANCH   3   9
ATOM      4  C   LIG A   1      -7.655   0.667 123.442  0.00  0.00    +0.131 C 
ATOM      5  C   LIG A   1      -9.138   0.282 123.457  0.00  0.00    +0.079 C 
ATOM      6  C   LIG A   1      -9.933   1.487 123.966  0.00  0.00    +0.026 C 
ATOM      7  N   LIG A   1      -9.370  -0.956 124.257  0.00  0.00    -0.308 NA
ATOM      8  H   LIG A   1     -10.374  -1.094 124.389  0.00  0.00    +0.122 HD
ATOM      9  C   LIG A   1      -8.796  -2.208 123.633  0.00  0.00    +0.054 C 
ATOM     10  C   LIG A   1      -7.576  -1.847 122.737  0.00  0.00    +0.021 C 
ATOM     11  C   LIG A   1      -6.846  -0.600 123.240  0.00  0.00    +0.034 C 
BRANCH   4  12
ATOM     12  O   LIG A   1      -7.296   1.371 124.628  0.00  0.00    -0.390 OA
ATOM     13  H   LIG A   1      -8.122   1.748 125.019  0.00  0.00    +0.210 HD
ENDBRANCH   4  12
ENDBRANCH   3   9
ENDBRANCH   2   3
ENDBRANCH   1   2
BRANCH   1  14
ATOM     14  C   LIG A   1      -8.714  -3.619 128.966  0.00  0.00    -0.000 C 
BRANCH  14  15
ATOM     15  C   LIG A   1      -7.445  -2.808 129.254  0.00  0.00    -0.000 C 
BRANCH  15  16
ATOM     16  C   LIG A   1      -6.961  -2.943 130.685  0.00  0.00    -0.000 C 
BRANCH  16  17
ATOM     17  C   LIG A   1      -7.129  -1.724 131.588  0.00  0.00    -0.000 C 
BRANCH  17  18
ATOM     18  C   LIG A   1      -8.024  -0.640 130.925  0.00  0.00    +0.000 C 
BRANCH  18  19
ATOM     19  C   LIG A   1      -9.076   0.168 131.636  0.00  0.00    +0.003 C 
BRANCH  19  20
ATOM     20  C   LIG A   1      -8.593   1.397 132.364  0.00  0.00    +0.034 C 
BRANCH  20  21
ATOM     21  C   LIG A   1      -9.159   2.779 131.973  0.00  0.00    +0.140 C 
BRANCH  21  22
ATOM     22  O   LIG A   1     -10.570   2.601 131.757  0.00  0.00    -0.390 OA
ATOM     23  H   LIG A   1     -10.728   1.639 131.660  0.00  0.00    +0.210 HD
ENDBRANCH  21  22
BRANCH  21  24
ATOM     24  C   LIG A   1      -8.983   3.940 132.973  0.00  0.00    +0.187 C 
BRANCH  24  25
ATOM     25  O   LIG A   1     -10.013   3.916 133.993  0.00  0.00    -0.393 OA
ATOM     26  H   LIG A   1      -9.623   3.702 134.800  0.00  0.00    +0.209 HD
ENDBRANCH  24  25
ENDBRANCH  21  24
ENDBRANCH  20  21
ENDBRANCH  19  20
ENDBRANCH  18  19
ENDBRANCH  17  18
ENDBRANCH  16  17
ENDBRANCH  15  16
ENDBRANCH  14  15
ENDBRANCH   1  14
TORSDOF 15
ENDMDL
