MODEL 1
REMARK VINA RESULT:      -8.1      0.000      0.000
REMARK  Name = NuBBE_1695
REMARK  13 active torsions:
REMARK  status: ('A' for Active; 'I' for Inactive)
REMARK    1  A    between atoms: C_2  and  C_3
REMARK    2  A    between atoms: C_2  and  O_4
REMARK    3  A    between atoms: O_4  and  C_5
REMARK    4  A    between atoms: C_9  and  C_10
REMARK    5  A    between atoms: C_9  and  C_11
REMARK    6  A    between atoms: C_17  and  C_18
REMARK    7  A    between atoms: C_20  and  O_21
REMARK    8  A    between atoms: O_21  and  C_22
REMARK    9  A    between atoms: C_23  and  O_24
REMARK   10  A    between atoms: O_24  and  C_25
REMARK   11  A    between atoms: C_25  and  C_26
REMARK   12  A    between atoms: C_28  and  O_29
REMARK   13  A    between atoms: O_29  and  C_30
REMARK                            x       y       z     vdW  Elec       q    Type
REMARK                         _______ _______ _______ _____ _____    ______ ____
ROOT
ATOM      1  C   LIG A   1      -8.615   1.993 124.464  0.00  0.00    +0.157 A 
ATOM      2  C   LIG A   1      -8.981   0.671 124.160  0.00  0.00    +0.060 A 
ATOM      3  C   LIG A   1      -9.626   0.236 122.926  0.00  0.00    +0.015 C 
ATOM      4  C   LIG A   1      -9.581  -1.065 122.619  0.00  0.00    +0.020 C 
ATOM      5  C   LIG A   1      -8.942  -2.073 123.543  0.00  0.00    +0.123 C 
ATOM      6  C   LIG A   1      -9.729  -3.387 123.473  0.00  0.00    +0.060 C 
ATOM      7  C   LIG A   1      -7.478  -2.335 123.156  0.00  0.00    +0.060 C 
ATOM      8  O   LIG A   1      -9.005  -1.653 124.924  0.00  0.00    -0.481 OA
ATOM      9  C   LIG A   1      -8.805  -0.309 125.157  0.00  0.00    +0.136 A 
ATOM     10  C   LIG A   1      -8.482   0.034 126.465  0.00  0.00    +0.093 A 
ATOM     11  C   LIG A   1      -8.223   1.363 126.777  0.00  0.00    +0.146 A 
ATOM     12  O   LIG A   1      -8.048   1.662 128.112  0.00  0.00    -0.454 OA
ATOM     13  C   LIG A   1      -7.990   2.999 128.459  0.00  0.00    +0.140 A 
ATOM     14  C   LIG A   1      -7.798   4.001 127.594  0.00  0.00    +0.098 A 
ATOM     15  C   LIG A   1      -8.203   2.330 125.769  0.00  0.00    +0.107 A 
ATOM     16  C   LIG A   1      -7.748   3.680 126.153  0.00  0.00    +0.197 A 
ATOM     17  O   LIG A   1      -7.352   4.513 125.347  0.00  0.00    -0.287 OA
ENDROOT
BRANCH  13  18
ATOM     18  C   LIG A   1      -8.193   3.265 129.886  0.00  0.00    +0.025 A 
ATOM     19  C   LIG A   1      -8.002   2.229 130.804  0.00  0.00    +0.061 A 
ATOM     20  C   LIG A   1      -8.183   2.435 132.179  0.00  0.00    +0.167 A 
ATOM     21  C   LIG A   1      -8.575   3.704 132.626  0.00  0.00    +0.214 A 
ATOM     22  C   LIG A   1      -8.785   4.761 131.709  0.00  0.00    +0.167 A 
ATOM     23  C   LIG A   1      -8.571   4.528 130.338  0.00  0.00    +0.061 A 
BRANCH  20  24
ATOM     24  O   LIG A   1      -7.870   1.459 133.083  0.00  0.00    -0.491 OA
ATOM     25  C   LIG A   1      -6.546   0.938 132.965  0.00  0.00    +0.277 C 
ENDBRANCH  20  24
BRANCH  22  26
ATOM     26  O   LIG A   1      -9.186   5.970 132.217  0.00  0.00    -0.491 OA
ATOM     27  C   LIG A   1     -10.584   6.253 132.166  0.00  0.00    +0.277 C 
ENDBRANCH  22  26
BRANCH  21  28
ATOM     28  O   LIG A   1      -8.661   4.053 134.011  0.00  0.00    -0.418 OA
BRANCH  28  29
ATOM     29  C   LIG A   1      -7.625   4.423 134.880  0.00  0.00    +0.309 C 
ATOM     30  C   LIG A   1      -7.999   5.715 135.558  0.00  0.00    +0.136 C 
ATOM     31  O   LIG A   1      -6.581   3.826 135.096  0.00  0.00    -0.251 OA
ENDBRANCH  28  29
ENDBRANCH  21  28
ENDBRANCH  13  18
BRANCH   1  32
ATOM     32  O   LIG A   1      -8.756   3.094 123.562  0.00  0.00    -0.424 OA
BRANCH  32  34
ATOM     33  O   LIG A   1      -8.935   3.493 121.257  0.00  0.00    -0.251 OA
ATOM     34  C   LIG A   1      -8.273   3.264 122.258  0.00  0.00    +0.309 C 
ATOM     35  C   LIG A   1      -6.783   3.063 122.253  0.00  0.00    +0.136 C 
ENDBRANCH  32  34
ENDBRANCH   1  32
TORSDOF 7
ENDMDL
MODEL 2
REMARK VINA RESULT:      -8.0      3.638      4.428
REMARK  Name = NuBBE_1695
REMARK  13 active torsions:
REMARK  status: ('A' for Active; 'I' for Inactive)
REMARK    1  A    between atoms: C_2  and  C_3
REMARK    2  A    between atoms: C_2  and  O_4
REMARK    3  A    between atoms: O_4  and  C_5
REMARK    4  A    between atoms: C_9  and  C_10
REMARK    5  A    between atoms: C_9  and  C_11
REMARK    6  A    between atoms: C_17  and  C_18
REMARK    7  A    between atoms: C_20  and  O_21
REMARK    8  A    between atoms: O_21  and  C_22
REMARK    9  A    between atoms: C_23  and  O_24
REMARK   10  A    between atoms: O_24  and  C_25
REMARK   11  A    between atoms: C_25  and  C_26
REMARK   12  A    between atoms: C_28  and  O_29
REMARK   13  A    between atoms: O_29  and  C_30
REMARK                            x       y       z     vdW  Elec       q    Type
REMARK                         _______ _______ _______ _____ _____    ______ ____
ROOT
ATOM      1  C   LIG A   1      -7.362   2.359 123.471  0.00  0.00    +0.157 A 
ATOM      2  C   LIG A   1      -7.943   1.084 123.578  0.00  0.00    +0.060 A 
ATOM      3  C   LIG A   1      -9.129   0.632 122.858  0.00  0.00    +0.015 C 
ATOM      4  C   LIG A   1      -9.347  -0.684 122.772  0.00  0.00    +0.020 C 
ATOM      5  C   LIG A   1      -8.439  -1.682 123.447  0.00  0.00    +0.123 C 
ATOM      6  C   LIG A   1      -9.277  -2.863 123.949  0.00  0.00    +0.060 C 
ATOM      7  C   LIG A   1      -7.360  -2.197 122.482  0.00  0.00    +0.060 C 
ATOM      8  O   LIG A   1      -7.806  -1.125 124.620  0.00  0.00    -0.481 OA
ATOM      9  C   LIG A   1      -7.403   0.189 124.524  0.00  0.00    +0.136 A 
ATOM     10  C   LIG A   1      -6.472   0.606 125.469  0.00  0.00    +0.093 A 
ATOM     11  C   LIG A   1      -5.982   1.905 125.417  0.00  0.00    +0.146 A 
ATOM     12  O   LIG A   1      -5.173   2.302 126.460  0.00  0.00    -0.454 OA
ATOM     13  C   LIG A   1      -4.841   3.643 126.530  0.00  0.00    +0.140 A 
ATOM     14  C   LIG A   1      -4.993   4.516 125.529  0.00  0.00    +0.098 A 
ATOM     15  C   LIG A   1      -6.356   2.755 124.374  0.00  0.00    +0.107 A 
ATOM     16  C   LIG A   1      -5.658   4.052 124.293  0.00  0.00    +0.197 A 
ATOM     17  O   LIG A   1      -5.618   4.734 123.276  0.00  0.00    -0.287 OA
ENDROOT
BRANCH  13  18
ATOM     18  C   LIG A   1      -4.322   4.074 127.831  0.00  0.00    +0.025 A 
ATOM     19  C   LIG A   1      -3.755   5.346 127.948  0.00  0.00    +0.061 A 
ATOM     20  C   LIG A   1      -3.247   5.804 129.171  0.00  0.00    +0.167 A 
ATOM     21  C   LIG A   1      -3.301   4.956 130.286  0.00  0.00    +0.214 A 
ATOM     22  C   LIG A   1      -3.860   3.660 130.182  0.00  0.00    +0.167 A 
ATOM     23  C   LIG A   1      -4.385   3.240 128.946  0.00  0.00    +0.061 A 
BRANCH  20  24
ATOM     24  O   LIG A   1      -2.813   7.092 129.315  0.00  0.00    -0.491 OA
ATOM     25  C   LIG A   1      -3.851   8.053 129.508  0.00  0.00    +0.277 C 
ENDBRANCH  20  24
BRANCH  22  26
ATOM     26  O   LIG A   1      -3.862   2.879 131.310  0.00  0.00    -0.491 OA
ATOM     27  C   LIG A   1      -5.139   2.544 131.852  0.00  0.00    +0.277 C 
ENDBRANCH  22  26
BRANCH  21  28
ATOM     28  O   LIG A   1      -2.930   5.372 131.604  0.00  0.00    -0.418 OA
BRANCH  28  29
ATOM     29  C   LIG A   1      -1.684   5.254 132.234  0.00  0.00    +0.309 C 
ATOM     30  C   LIG A   1      -1.056   6.619 132.330  0.00  0.00    +0.136 C 
ATOM     31  O   LIG A   1      -1.157   4.238 132.664  0.00  0.00    -0.251 OA
ENDBRANCH  28  29
ENDBRANCH  21  28
ENDBRANCH  13  18
BRANCH   1  32
ATOM     32  O   LIG A   1      -7.816   3.376 122.573  0.00  0.00    -0.424 OA
BRANCH  32  34
ATOM     33  O   LIG A   1      -6.574   3.481 120.585  0.00  0.00    -0.251 OA
ATOM     34  C   LIG A   1      -7.635   3.510 121.191  0.00  0.00    +0.309 C 
ATOM     35  C   LIG A   1      -8.967   3.759 120.539  0.00  0.00    +0.136 C 
ENDBRANCH  32  34
ENDBRANCH   1  32
TORSDOF 7
ENDMDL
MODEL 3
REMARK VINA RESULT:      -7.9      3.583      3.947
REMARK  Name = NuBBE_1695
REMARK  13 active torsions:
REMARK  status: ('A' for Active; 'I' for Inactive)
REMARK    1  A    between atoms: C_2  and  C_3
REMARK    2  A    between atoms: C_2  and  O_4
REMARK    3  A    between atoms: O_4  and  C_5
REMARK    4  A    between atoms: C_9  and  C_10
REMARK    5  A    between atoms: C_9  and  C_11
REMARK    6  A    between atoms: C_17  and  C_18
REMARK    7  A    between atoms: C_20  and  O_21
REMARK    8  A    between atoms: O_21  and  C_22
REMARK    9  A    between atoms: C_23  and  O_24
REMARK   10  A    between atoms: O_24  and  C_25
REMARK   11  A    between atoms: C_25  and  C_26
REMARK   12  A    between atoms: C_28  and  O_29
REMARK   13  A    between atoms: O_29  and  C_30
REMARK                            x       y       z     vdW  Elec       q    Type
REMARK                         _______ _______ _______ _____ _____    ______ ____
ROOT
ATOM      1  C   LIG A   1      -7.350   2.384 123.533  0.00  0.00    +0.157 A 
ATOM      2  C   LIG A   1      -7.914   1.101 123.637  0.00  0.00    +0.060 A 
ATOM      3  C   LIG A   1      -9.072   0.624 122.888  0.00  0.00    +0.015 C 
ATOM      4  C   LIG A   1      -9.268  -0.696 122.809  0.00  0.00    +0.020 C 
ATOM      5  C   LIG A   1      -8.365  -1.673 123.520  0.00  0.00    +0.123 C 
ATOM      6  C   LIG A   1      -9.200  -2.862 124.011  0.00  0.00    +0.060 C 
ATOM      7  C   LIG A   1      -7.251  -2.181 122.592  0.00  0.00    +0.060 C 
ATOM      8  O   LIG A   1      -7.775  -1.095 124.705  0.00  0.00    -0.481 OA
ATOM      9  C   LIG A   1      -7.389   0.224 124.607  0.00  0.00    +0.136 A 
ATOM     10  C   LIG A   1      -6.493   0.665 125.574  0.00  0.00    +0.093 A 
ATOM     11  C   LIG A   1      -6.021   1.971 125.523  0.00  0.00    +0.146 A 
ATOM     12  O   LIG A   1      -5.248   2.390 126.585  0.00  0.00    -0.454 OA
ATOM     13  C   LIG A   1      -4.938   3.736 126.651  0.00  0.00    +0.140 A 
ATOM     14  C   LIG A   1      -5.075   4.597 125.636  0.00  0.00    +0.098 A 
ATOM     15  C   LIG A   1      -6.376   2.804 124.461  0.00  0.00    +0.107 A 
ATOM     16  C   LIG A   1      -5.696   4.111 124.386  0.00  0.00    +0.197 A 
ATOM     17  O   LIG A   1      -5.637   4.783 123.364  0.00  0.00    -0.287 OA
ENDROOT
BRANCH  13  18
ATOM     18  C   LIG A   1      -4.464   4.188 127.961  0.00  0.00    +0.025 A 
ATOM     19  C   LIG A   1      -4.521   3.307 129.045  0.00  0.00    +0.061 A 
ATOM     20  C   LIG A   1      -4.078   3.693 130.317  0.00  0.00    +0.167 A 
ATOM     21  C   LIG A   1      -3.585   4.992 130.497  0.00  0.00    +0.214 A 
ATOM     22  C   LIG A   1      -3.532   5.901 129.413  0.00  0.00    +0.167 A 
ATOM     23  C   LIG A   1      -3.960   5.475 128.143  0.00  0.00    +0.061 A 
BRANCH  20  24
ATOM     24  O   LIG A   1      -4.014   2.791 131.343  0.00  0.00    -0.491 OA
ATOM     25  C   LIG A   1      -5.244   2.592 132.040  0.00  0.00    +0.277 C 
ENDBRANCH  20  24
BRANCH  22  26
ATOM     26  O   LIG A   1      -3.055   7.161 129.667  0.00  0.00    -0.491 OA
ATOM     27  C   LIG A   1      -4.023   8.204 129.764  0.00  0.00    +0.277 C 
ENDBRANCH  22  26
BRANCH  21  28
ATOM     28  O   LIG A   1      -2.991   5.441 131.719  0.00  0.00    -0.418 OA
BRANCH  28  29
ATOM     29  C   LIG A   1      -1.734   5.114 132.246  0.00  0.00    +0.309 C 
ATOM     30  C   LIG A   1      -0.842   6.325 132.161  0.00  0.00    +0.136 C 
ATOM     31  O   LIG A   1      -1.378   4.046 132.720  0.00  0.00    -0.251 OA
ENDBRANCH  28  29
ENDBRANCH  21  28
ENDBRANCH  13  18
BRANCH   1  32
ATOM     32  O   LIG A   1      -7.793   3.385 122.612  0.00  0.00    -0.424 OA
BRANCH  32  34
ATOM     33  O   LIG A   1      -6.513   3.451 120.647  0.00  0.00    -0.251 OA
ATOM     34  C   LIG A   1      -7.585   3.501 121.232  0.00  0.00    +0.309 C 
ATOM     35  C   LIG A   1      -8.901   3.759 120.553  0.00  0.00    +0.136 C 
ENDBRANCH  32  34
ENDBRANCH   1  32
TORSDOF 7
ENDMDL
MODEL 4
REMARK VINA RESULT:      -7.9      0.541      2.236
REMARK  Name = NuBBE_1695
REMARK  13 active torsions:
REMARK  status: ('A' for Active; 'I' for Inactive)
REMARK    1  A    between atoms: C_2  and  C_3
REMARK    2  A    between atoms: C_2  and  O_4
REMARK    3  A    between atoms: O_4  and  C_5
REMARK    4  A    between atoms: C_9  and  C_10
REMARK    5  A    between atoms: C_9  and  C_11
REMARK    6  A    between atoms: C_17  and  C_18
REMARK    7  A    between atoms: C_20  and  O_21
REMARK    8  A    between atoms: O_21  and  C_22
REMARK    9  A    between atoms: C_23  and  O_24
REMARK   10  A    between atoms: O_24  and  C_25
REMARK   11  A    between atoms: C_25  and  C_26
REMARK   12  A    between atoms: C_28  and  O_29
REMARK   13  A    between atoms: O_29  and  C_30
REMARK                            x       y       z     vdW  Elec       q    Type
REMARK                         _______ _______ _______ _____ _____    ______ ____
ROOT
ATOM      1  C   LIG A   1      -8.540   1.972 124.445  0.00  0.00    +0.157 A 
ATOM      2  C   LIG A   1      -8.903   0.646 124.150  0.00  0.00    +0.060 A 
ATOM      3  C   LIG A   1      -9.588   0.207 122.939  0.00  0.00    +0.015 C 
ATOM      4  C   LIG A   1      -9.539  -1.092 122.627  0.00  0.00    +0.020 C 
ATOM      5  C   LIG A   1      -8.856  -2.095 123.523  0.00  0.00    +0.123 C 
ATOM      6  C   LIG A   1      -9.630  -3.417 123.478  0.00  0.00    +0.060 C 
ATOM      7  C   LIG A   1      -7.404  -2.339 123.082  0.00  0.00    +0.060 C 
ATOM      8  O   LIG A   1      -8.873  -1.679 124.907  0.00  0.00    -0.481 OA
ATOM      9  C   LIG A   1      -8.679  -0.335 125.137  0.00  0.00    +0.136 A 
ATOM     10  C   LIG A   1      -8.312   0.009 126.433  0.00  0.00    +0.093 A 
ATOM     11  C   LIG A   1      -8.057   1.340 126.740  0.00  0.00    +0.146 A 
ATOM     12  O   LIG A   1      -7.837   1.636 128.068  0.00  0.00    -0.454 OA
ATOM     13  C   LIG A   1      -7.781   2.973 128.418  0.00  0.00    +0.140 A 
ATOM     14  C   LIG A   1      -7.632   3.980 127.550  0.00  0.00    +0.098 A 
ATOM     15  C   LIG A   1      -8.085   2.309 125.735  0.00  0.00    +0.107 A 
ATOM     16  C   LIG A   1      -7.632   3.663 126.106  0.00  0.00    +0.197 A 
ATOM     17  O   LIG A   1      -7.274   4.503 125.289  0.00  0.00    -0.287 OA
ENDROOT
BRANCH  13  18
ATOM     18  C   LIG A   1      -7.934   3.233 129.852  0.00  0.00    +0.025 A 
ATOM     19  C   LIG A   1      -8.181   4.540 130.282  0.00  0.00    +0.061 A 
ATOM     20  C   LIG A   1      -8.336   4.838 131.643  0.00  0.00    +0.167 A 
ATOM     21  C   LIG A   1      -8.225   3.802 132.579  0.00  0.00    +0.214 A 
ATOM     22  C   LIG A   1      -7.962   2.475 132.162  0.00  0.00    +0.167 A 
ATOM     23  C   LIG A   1      -7.837   2.204 130.787  0.00  0.00    +0.061 A 
BRANCH  20  24
ATOM     24  O   LIG A   1      -8.707   6.089 132.051  0.00  0.00    -0.491 OA
ATOM     25  C   LIG A   1      -9.706   6.709 131.240  0.00  0.00    +0.277 C 
ENDBRANCH  20  24
BRANCH  22  26
ATOM     26  O   LIG A   1      -7.848   1.516 133.136  0.00  0.00    -0.491 OA
ATOM     27  C   LIG A   1      -6.651   0.739 133.130  0.00  0.00    +0.277 C 
ENDBRANCH  22  26
BRANCH  21  28
ATOM     28  O   LIG A   1      -8.494   3.976 133.974  0.00  0.00    -0.418 OA
BRANCH  28  29
ATOM     29  C   LIG A   1      -7.765   4.716 134.914  0.00  0.00    +0.309 C 
ATOM     30  C   LIG A   1      -6.467   4.005 135.193  0.00  0.00    +0.136 C 
ATOM     31  O   LIG A   1      -8.080   5.775 135.438  0.00  0.00    -0.251 OA
ENDBRANCH  28  29
ENDBRANCH  21  28
ENDBRANCH  13  18
BRANCH   1  32
ATOM     32  O   LIG A   1      -8.727   3.074 123.552  0.00  0.00    -0.424 OA
BRANCH  32  34
ATOM     33  O   LIG A   1      -8.949   3.481 121.252  0.00  0.00    -0.251 OA
ATOM     34  C   LIG A   1      -8.267   3.267 122.244  0.00  0.00    +0.309 C 
ATOM     35  C   LIG A   1      -6.772   3.112 122.217  0.00  0.00    +0.136 C 
ENDBRANCH  32  34
ENDBRANCH   1  32
TORSDOF 7
ENDMDL
MODEL 5
REMARK VINA RESULT:      -7.9      4.936     10.776
REMARK  Name = NuBBE_1695
REMARK  13 active torsions:
REMARK  status: ('A' for Active; 'I' for Inactive)
REMARK    1  A    between atoms: C_2  and  C_3
REMARK    2  A    between atoms: C_2  and  O_4
REMARK    3  A    between atoms: O_4  and  C_5
REMARK    4  A    between atoms: C_9  and  C_10
REMARK    5  A    between atoms: C_9  and  C_11
REMARK    6  A    between atoms: C_17  and  C_18
REMARK    7  A    between atoms: C_20  and  O_21
REMARK    8  A    between atoms: O_21  and  C_22
REMARK    9  A    between atoms: C_23  and  O_24
REMARK   10  A    between atoms: O_24  and  C_25
REMARK   11  A    between atoms: C_25  and  C_26
REMARK   12  A    between atoms: C_28  and  O_29
REMARK   13  A    between atoms: O_29  and  C_30
REMARK                            x       y       z     vdW  Elec       q    Type
REMARK                         _______ _______ _______ _____ _____    ______ ____
ROOT
ATOM      1  C   LIG A   1      -5.032  -4.391 132.538  0.00  0.00    +0.157 A 
ATOM      2  C   LIG A   1      -6.084  -4.521 133.461  0.00  0.00    +0.060 A 
ATOM      3  C   LIG A   1      -6.147  -5.504 134.536  0.00  0.00    +0.015 C 
ATOM      4  C   LIG A   1      -7.002  -5.281 135.541  0.00  0.00    +0.020 C 
ATOM      5  C   LIG A   1      -7.924  -4.087 135.544  0.00  0.00    +0.123 C 
ATOM      6  C   LIG A   1      -9.258  -4.486 136.184  0.00  0.00    +0.060 C 
ATOM      7  C   LIG A   1      -7.314  -2.913 136.325  0.00  0.00    +0.060 C 
ATOM      8  O   LIG A   1      -8.247  -3.655 134.204  0.00  0.00    -0.481 OA
ATOM      9  C   LIG A   1      -7.220  -3.705 133.287  0.00  0.00    +0.136 A 
ATOM     10  C   LIG A   1      -7.402  -2.949 132.134  0.00  0.00    +0.093 A 
ATOM     11  C   LIG A   1      -6.395  -2.911 131.177  0.00  0.00    +0.146 A 
ATOM     12  O   LIG A   1      -6.689  -2.261 129.997  0.00  0.00    -0.454 OA
ATOM     13  C   LIG A   1      -5.780  -2.385 128.962  0.00  0.00    +0.140 A 
ATOM     14  C   LIG A   1      -4.526  -2.829 129.102  0.00  0.00    +0.098 A 
ATOM     15  C   LIG A   1      -5.179  -3.557 131.412  0.00  0.00    +0.107 A 
ATOM     16  C   LIG A   1      -4.104  -3.323 130.430  0.00  0.00    +0.197 A 
ATOM     17  O   LIG A   1      -2.918  -3.522 130.667  0.00  0.00    -0.287 OA
ENDROOT
BRANCH  13  18
ATOM     18  C   LIG A   1      -6.305  -2.018 127.644  0.00  0.00    +0.025 A 
ATOM     19  C   LIG A   1      -5.532  -2.278 126.510  0.00  0.00    +0.061 A 
ATOM     20  C   LIG A   1      -5.992  -1.947 125.228  0.00  0.00    +0.167 A 
ATOM     21  C   LIG A   1      -7.244  -1.331 125.096  0.00  0.00    +0.214 A 
ATOM     22  C   LIG A   1      -8.033  -1.048 126.236  0.00  0.00    +0.167 A 
ATOM     23  C   LIG A   1      -7.555  -1.416 127.507  0.00  0.00    +0.061 A 
BRANCH  20  24
ATOM     24  O   LIG A   1      -5.295  -2.319 124.112  0.00  0.00    -0.491 OA
ATOM     25  C   LIG A   1      -5.106  -3.728 123.970  0.00  0.00    +0.277 C 
ENDBRANCH  20  24
BRANCH  22  26
ATOM     26  O   LIG A   1      -9.239  -0.426 126.033  0.00  0.00    -0.491 OA
ATOM     27  C   LIG A   1      -9.260   0.992 126.184  0.00  0.00    +0.277 C 
ENDBRANCH  22  26
BRANCH  21  28
ATOM     28  O   LIG A   1      -7.859  -1.070 123.831  0.00  0.00    -0.418 OA
BRANCH  28  29
ATOM     29  C   LIG A   1      -9.017  -1.646 123.292  0.00  0.00    +0.309 C 
ATOM     30  C   LIG A   1      -8.923  -3.143 123.427  0.00  0.00    +0.136 C 
ATOM     31  O   LIG A   1      -9.976  -1.073 122.797  0.00  0.00    -0.251 OA
ENDBRANCH  28  29
ENDBRANCH  21  28
ENDBRANCH  13  18
BRANCH   1  32
ATOM     32  O   LIG A   1      -3.830  -5.165 132.575  0.00  0.00    -0.424 OA
BRANCH  32  34
ATOM     33  O   LIG A   1      -2.073  -4.235 133.822  0.00  0.00    -0.251 OA
ATOM     34  C   LIG A   1      -2.789  -5.176 133.512  0.00  0.00    +0.309 C 
ATOM     35  C   LIG A   1      -2.633  -6.567 134.062  0.00  0.00    +0.136 C 
ENDBRANCH  32  34
ENDBRANCH   1  32
TORSDOF 7
ENDMDL
MODEL 6
REMARK VINA RESULT:      -7.6      3.234      9.369
REMARK  Name = NuBBE_1695
REMARK  13 active torsions:
REMARK  status: ('A' for Active; 'I' for Inactive)
REMARK    1  A    between atoms: C_2  and  C_3
REMARK    2  A    between atoms: C_2  and  O_4
REMARK    3  A    between atoms: O_4  and  C_5
REMARK    4  A    between atoms: C_9  and  C_10
REMARK    5  A    between atoms: C_9  and  C_11
REMARK    6  A    between atoms: C_17  and  C_18
REMARK    7  A    between atoms: C_20  and  O_21
REMARK    8  A    between atoms: O_21  and  C_22
REMARK    9  A    between atoms: C_23  and  O_24
REMARK   10  A    between atoms: O_24  and  C_25
REMARK   11  A    between atoms: C_25  and  C_26
REMARK   12  A    between atoms: C_28  and  O_29
REMARK   13  A    between atoms: O_29  and  C_30
REMARK                            x       y       z     vdW  Elec       q    Type
REMARK                         _______ _______ _______ _____ _____    ______ ____
ROOT
ATOM      1  C   LIG A   1      -6.400   4.780 131.250  0.00  0.00    +0.157 A 
ATOM      2  C   LIG A   1      -5.105   5.325 131.270  0.00  0.00    +0.060 A 
ATOM      3  C   LIG A   1      -4.762   6.673 131.712  0.00  0.00    +0.015 C 
ATOM      4  C   LIG A   1      -3.487   6.926 132.022  0.00  0.00    +0.020 C 
ATOM      5  C   LIG A   1      -2.412   5.879 131.866  0.00  0.00    +0.123 C 
ATOM      6  C   LIG A   1      -1.111   6.558 131.424  0.00  0.00    +0.060 C 
ATOM      7  C   LIG A   1      -2.172   5.125 133.183  0.00  0.00    +0.060 C 
ATOM      8  O   LIG A   1      -2.733   4.931 130.823  0.00  0.00    -0.481 OA
ATOM      9  C   LIG A   1      -4.055   4.553 130.735  0.00  0.00    +0.136 A 
ATOM     10  C   LIG A   1      -4.302   3.387 130.019  0.00  0.00    +0.093 A 
ATOM     11  C   LIG A   1      -5.604   2.913 129.917  0.00  0.00    +0.146 A 
ATOM     12  O   LIG A   1      -5.805   1.836 129.080  0.00  0.00    -0.454 OA
ATOM     13  C   LIG A   1      -7.114   1.478 128.811  0.00  0.00    +0.140 A 
ATOM     14  C   LIG A   1      -8.174   1.895 129.511  0.00  0.00    +0.098 A 
ATOM     15  C   LIG A   1      -6.640   3.554 130.599  0.00  0.00    +0.107 A 
ATOM     16  C   LIG A   1      -7.957   2.889 130.583  0.00  0.00    +0.197 A 
ATOM     17  O   LIG A   1      -8.844   3.128 131.394  0.00  0.00    -0.287 OA
ENDROOT
BRANCH  13  18
ATOM     18  C   LIG A   1      -7.278   0.606 127.644  0.00  0.00    +0.025 A 
ATOM     19  C   LIG A   1      -7.704  -0.711 127.836  0.00  0.00    +0.061 A 
ATOM     20  C   LIG A   1      -7.878  -1.582 126.752  0.00  0.00    +0.167 A 
ATOM     21  C   LIG A   1      -7.602  -1.116 125.459  0.00  0.00    +0.214 A 
ATOM     22  C   LIG A   1      -7.157   0.210 125.249  0.00  0.00    +0.167 A 
ATOM     23  C   LIG A   1      -7.018   1.067 126.355  0.00  0.00    +0.061 A 
BRANCH  20  24
ATOM     24  O   LIG A   1      -8.418  -2.826 126.928  0.00  0.00    -0.491 OA
ATOM     25  C   LIG A   1      -8.445  -3.278 128.283  0.00  0.00    +0.277 C 
ENDBRANCH  20  24
BRANCH  22  26
ATOM     26  O   LIG A   1      -6.889   0.591 123.958  0.00  0.00    -0.491 OA
ATOM     27  C   LIG A   1      -7.394   1.860 123.548  0.00  0.00    +0.277 C 
ENDBRANCH  22  26
BRANCH  21  28
ATOM     28  O   LIG A   1      -7.869  -1.881 124.279  0.00  0.00    -0.418 OA
BRANCH  28  29
ATOM     29  C   LIG A   1      -9.057  -1.950 123.539  0.00  0.00    +0.309 C 
ATOM     30  C   LIG A   1      -9.498  -3.388 123.462  0.00  0.00    +0.136 C 
ATOM     31  O   LIG A   1      -9.676  -1.027 123.031  0.00  0.00    -0.251 OA
ENDBRANCH  28  29
ENDBRANCH  21  28
ENDBRANCH  13  18
BRANCH   1  32
ATOM     32  O   LIG A   1      -7.564   5.455 131.737  0.00  0.00    -0.424 OA
BRANCH  32  34
ATOM     33  O   LIG A   1      -7.896   7.371 130.425  0.00  0.00    -0.251 OA
ATOM     34  C   LIG A   1      -8.309   6.497 131.172  0.00  0.00    +0.309 C 
ATOM     35  C   LIG A   1      -9.724   6.422 131.675  0.00  0.00    +0.136 C 
ENDBRANCH  32  34
ENDBRANCH   1  32
TORSDOF 7
ENDMDL
MODEL 7
REMARK VINA RESULT:      -7.5      3.535      3.849
REMARK  Name = NuBBE_1695
REMARK  13 active torsions:
REMARK  status: ('A' for Active; 'I' for Inactive)
REMARK    1  A    between atoms: C_2  and  C_3
REMARK    2  A    between atoms: C_2  and  O_4
REMARK    3  A    between atoms: O_4  and  C_5
REMARK    4  A    between atoms: C_9  and  C_10
REMARK    5  A    between atoms: C_9  and  C_11
REMARK    6  A    between atoms: C_17  and  C_18
REMARK    7  A    between atoms: C_20  and  O_21
REMARK    8  A    between atoms: O_21  and  C_22
REMARK    9  A    between atoms: C_23  and  O_24
REMARK   10  A    between atoms: O_24  and  C_25
REMARK   11  A    between atoms: C_25  and  C_26
REMARK   12  A    between atoms: C_28  and  O_29
REMARK   13  A    between atoms: O_29  and  C_30
REMARK                            x       y       z     vdW  Elec       q    Type
REMARK                         _______ _______ _______ _____ _____    ______ ____
ROOT
ATOM      1  C   LIG A   1      -6.633   1.896 124.382  0.00  0.00    +0.157 A 
ATOM      2  C   LIG A   1      -6.956   0.529 124.363  0.00  0.00    +0.060 A 
ATOM      3  C   LIG A   1      -8.041  -0.073 123.597  0.00  0.00    +0.015 C 
ATOM      4  C   LIG A   1      -8.004  -1.392 123.384  0.00  0.00    +0.020 C 
ATOM      5  C   LIG A   1      -6.912  -2.256 123.966  0.00  0.00    +0.123 C 
ATOM      6  C   LIG A   1      -7.501  -3.618 124.349  0.00  0.00    +0.060 C 
ATOM      7  C   LIG A   1      -5.767  -2.459 122.963  0.00  0.00    +0.060 C 
ATOM      8  O   LIG A   1      -6.383  -1.701 125.191  0.00  0.00    -0.481 OA
ATOM      9  C   LIG A   1      -6.242  -0.330 125.222  0.00  0.00    +0.136 A 
ATOM     10  C   LIG A   1      -5.397   0.167 126.209  0.00  0.00    +0.093 A 
ATOM     11  C   LIG A   1      -5.167   1.535 126.284  0.00  0.00    +0.146 A 
ATOM     12  O   LIG A   1      -4.436   1.979 127.365  0.00  0.00    -0.454 OA
ATOM     13  C   LIG A   1      -4.367   3.346 127.564  0.00  0.00    +0.140 A 
ATOM     14  C   LIG A   1      -4.698   4.265 126.650  0.00  0.00    +0.098 A 
ATOM     15  C   LIG A   1      -5.710   2.392 125.324  0.00  0.00    +0.107 A 
ATOM     16  C   LIG A   1      -5.276   3.801 125.371  0.00  0.00    +0.197 A 
ATOM     17  O   LIG A   1      -5.381   4.571 124.424  0.00  0.00    -0.287 OA
ENDROOT
BRANCH  13  18
ATOM     18  C   LIG A   1      -3.925   3.744 128.904  0.00  0.00    +0.025 A 
ATOM     19  C   LIG A   1      -4.104   2.857 129.969  0.00  0.00    +0.061 A 
ATOM     20  C   LIG A   1      -3.696   3.192 131.267  0.00  0.00    +0.167 A 
ATOM     21  C   LIG A   1      -3.113   4.446 131.491  0.00  0.00    +0.214 A 
ATOM     22  C   LIG A   1      -2.936   5.361 130.426  0.00  0.00    +0.167 A 
ATOM     23  C   LIG A   1      -3.332   4.985 129.130  0.00  0.00    +0.061 A 
BRANCH  20  24
ATOM     24  O   LIG A   1      -3.753   2.275 132.280  0.00  0.00    -0.491 OA
ATOM     25  C   LIG A   1      -4.127   0.959 131.873  0.00  0.00    +0.277 C 
ENDBRANCH  20  24
BRANCH  22  26
ATOM     26  O   LIG A   1      -2.375   6.577 130.723  0.00  0.00    -0.491 OA
ATOM     27  C   LIG A   1      -3.275   7.670 130.896  0.00  0.00    +0.277 C 
ENDBRANCH  22  26
BRANCH  21  28
ATOM     28  O   LIG A   1      -2.547   4.833 132.747  0.00  0.00    -0.418 OA
BRANCH  28  29
ATOM     29  C   LIG A   1      -3.201   5.353 133.872  0.00  0.00    +0.309 C 
ATOM     30  C   LIG A   1      -2.325   6.404 134.501  0.00  0.00    +0.136 C 
ATOM     31  O   LIG A   1      -4.304   5.049 134.302  0.00  0.00    -0.251 OA
ENDBRANCH  28  29
ENDBRANCH  21  28
ENDBRANCH  13  18
BRANCH   1  32
ATOM     32  O   LIG A   1      -7.285   2.887 123.582  0.00  0.00    -0.424 OA
BRANCH  32  34
ATOM     33  O   LIG A   1      -6.248   3.198 121.501  0.00  0.00    -0.251 OA
ATOM     34  C   LIG A   1      -7.246   3.104 122.199  0.00  0.00    +0.309 C 
ATOM     35  C   LIG A   1      -8.650   3.265 121.684  0.00  0.00    +0.136 C 
ENDBRANCH  32  34
ENDBRANCH   1  32
TORSDOF 7
ENDMDL
MODEL 8
REMARK VINA RESULT:      -7.5      3.067      9.178
REMARK  Name = NuBBE_1695
REMARK  13 active torsions:
REMARK  status: ('A' for Active; 'I' for Inactive)
REMARK    1  A    between atoms: C_2  and  C_3
REMARK    2  A    between atoms: C_2  and  O_4
REMARK    3  A    between atoms: O_4  and  C_5
REMARK    4  A    between atoms: C_9  and  C_10
REMARK    5  A    between atoms: C_9  and  C_11
REMARK    6  A    between atoms: C_17  and  C_18
REMARK    7  A    between atoms: C_20  and  O_21
REMARK    8  A    between atoms: O_21  and  C_22
REMARK    9  A    between atoms: C_23  and  O_24
REMARK   10  A    between atoms: O_24  and  C_25
REMARK   11  A    between atoms: C_25  and  C_26
REMARK   12  A    between atoms: C_28  and  O_29
REMARK   13  A    between atoms: O_29  and  C_30
REMARK                            x       y       z     vdW  Elec       q    Type
REMARK                         _______ _______ _______ _____ _____    ______ ____
ROOT
ATOM      1  C   LIG A   1      -4.793   4.741 129.675  0.00  0.00    +0.157 A 
ATOM      2  C   LIG A   1      -4.530   4.556 131.044  0.00  0.00    +0.060 A 
ATOM      3  C   LIG A   1      -3.389   5.108 131.766  0.00  0.00    +0.015 C 
ATOM      4  C   LIG A   1      -3.459   5.163 133.101  0.00  0.00    +0.020 C 
ATOM      5  C   LIG A   1      -4.648   4.619 133.853  0.00  0.00    +0.123 C 
ATOM      6  C   LIG A   1      -4.168   4.007 135.174  0.00  0.00    +0.060 C 
ATOM      7  C   LIG A   1      -5.676   5.722 134.147  0.00  0.00    +0.060 C 
ATOM      8  O   LIG A   1      -5.292   3.543 133.135  0.00  0.00    -0.481 OA
ATOM      9  C   LIG A   1      -5.376   3.693 131.768  0.00  0.00    +0.136 A 
ATOM     10  C   LIG A   1      -6.308   2.884 131.128  0.00  0.00    +0.093 A 
ATOM     11  C   LIG A   1      -6.486   3.002 129.755  0.00  0.00    +0.146 A 
ATOM     12  O   LIG A   1      -7.318   2.078 129.159  0.00  0.00    -0.454 OA
ATOM     13  C   LIG A   1      -7.350   2.054 127.776  0.00  0.00    +0.140 A 
ATOM     14  C   LIG A   1      -6.876   3.026 126.989  0.00  0.00    +0.098 A 
ATOM     15  C   LIG A   1      -5.798   3.984 129.040  0.00  0.00    +0.107 A 
ATOM     16  C   LIG A   1      -6.172   4.160 127.624  0.00  0.00    +0.197 A 
ATOM     17  O   LIG A   1      -5.924   5.172 126.981  0.00  0.00    -0.287 OA
ENDROOT
BRANCH  13  18
ATOM     18  C   LIG A   1      -7.929   0.836 127.203  0.00  0.00    +0.025 A 
ATOM     19  C   LIG A   1      -8.736   0.938 126.066  0.00  0.00    +0.061 A 
ATOM     20  C   LIG A   1      -9.310  -0.198 125.480  0.00  0.00    +0.167 A 
ATOM     21  C   LIG A   1      -9.074  -1.451 126.062  0.00  0.00    +0.214 A 
ATOM     22  C   LIG A   1      -8.270  -1.570 127.220  0.00  0.00    +0.167 A 
ATOM     23  C   LIG A   1      -7.688  -0.414 127.769  0.00  0.00    +0.061 A 
BRANCH  20  24
ATOM     24  O   LIG A   1      -9.989  -0.112 124.297  0.00  0.00    -0.491 OA
ATOM     25  C   LIG A   1      -9.236   0.439 123.215  0.00  0.00    +0.277 C 
ENDBRANCH  20  24
BRANCH  22  26
ATOM     26  O   LIG A   1      -8.099  -2.826 127.745  0.00  0.00    -0.491 OA
ATOM     27  C   LIG A   1      -8.189  -2.943 129.164  0.00  0.00    +0.277 C 
ENDBRANCH  22  26
BRANCH  21  28
ATOM     28  O   LIG A   1      -9.505  -2.681 125.471  0.00  0.00    -0.418 OA
BRANCH  28  29
ATOM     29  C   LIG A   1      -9.159  -3.213 124.221  0.00  0.00    +0.309 C 
ATOM     30  C   LIG A   1      -7.722  -3.661 124.265  0.00  0.00    +0.136 C 
ATOM     31  O   LIG A   1      -9.872  -3.329 123.235  0.00  0.00    -0.251 OA
ENDBRANCH  28  29
ENDBRANCH  21  28
ENDBRANCH  13  18
BRANCH   1  32
ATOM     32  O   LIG A   1      -4.009   5.569 128.811  0.00  0.00    -0.424 OA
BRANCH  32  34
ATOM     33  O   LIG A   1      -1.782   6.304 128.742  0.00  0.00    -0.251 OA
ATOM     34  C   LIG A   1      -2.653   5.492 128.469  0.00  0.00    +0.309 C 
ATOM     35  C   LIG A   1      -2.421   4.257 127.643  0.00  0.00    +0.136 C 
ENDBRANCH  32  34
ENDBRANCH   1  32
TORSDOF 7
ENDMDL
MODEL 9
REMARK VINA RESULT:      -7.4      3.011      9.618
REMARK  Name = NuBBE_1695
REMARK  13 active torsions:
REMARK  status: ('A' for Active; 'I' for Inactive)
REMARK    1  A    between atoms: C_2  and  C_3
REMARK    2  A    between atoms: C_2  and  O_4
REMARK    3  A    between atoms: O_4  and  C_5
REMARK    4  A    between atoms: C_9  and  C_10
REMARK    5  A    between atoms: C_9  and  C_11
REMARK    6  A    between atoms: C_17  and  C_18
REMARK    7  A    between atoms: C_20  and  O_21
REMARK    8  A    between atoms: O_21  and  C_22
REMARK    9  A    between atoms: C_23  and  O_24
REMARK   10  A    between atoms: O_24  and  C_25
REMARK   11  A    between atoms: C_25  and  C_26
REMARK   12  A    between atoms: C_28  and  O_29
REMARK   13  A    between atoms: O_29  and  C_30
REMARK                            x       y       z     vdW  Elec       q    Type
REMARK                         _______ _______ _______ _____ _____    ______ ____
ROOT
ATOM      1  C   LIG A   1      -6.588   4.385 131.722  0.00  0.00    +0.157 A 
ATOM      2  C   LIG A   1      -5.349   5.047 131.668  0.00  0.00    +0.060 A 
ATOM      3  C   LIG A   1      -5.068   6.361 132.236  0.00  0.00    +0.015 C 
ATOM      4  C   LIG A   1      -3.790   6.699 132.433  0.00  0.00    +0.020 C 
ATOM      5  C   LIG A   1      -2.660   5.785 132.028  0.00  0.00    +0.123 C 
ATOM      6  C   LIG A   1      -1.482   6.634 131.534  0.00  0.00    +0.060 C 
ATOM      7  C   LIG A   1      -2.199   4.911 133.205  0.00  0.00    +0.060 C 
ATOM      8  O   LIG A   1      -3.025   4.939 130.916  0.00  0.00    -0.481 OA
ATOM      9  C   LIG A   1      -4.312   4.447 130.927  0.00  0.00    +0.136 A 
ATOM     10  C   LIG A   1      -4.547   3.353 130.101  0.00  0.00    +0.093 A 
ATOM     11  C   LIG A   1      -5.808   2.770 130.084  0.00  0.00    +0.146 A 
ATOM     12  O   LIG A   1      -6.020   1.783 129.146  0.00  0.00    -0.454 OA
ATOM     13  C   LIG A   1      -7.317   1.333 128.979  0.00  0.00    +0.140 A 
ATOM     14  C   LIG A   1      -8.316   1.562 129.840  0.00  0.00    +0.098 A 
ATOM     15  C   LIG A   1      -6.803   3.224 130.953  0.00  0.00    +0.107 A 
ATOM     16  C   LIG A   1      -8.053   2.442 130.998  0.00  0.00    +0.197 A 
ATOM     17  O   LIG A   1      -8.851   2.498 131.925  0.00  0.00    -0.287 OA
ENDROOT
BRANCH  13  18
ATOM     18  C   LIG A   1      -7.549   0.591 127.738  0.00  0.00    +0.025 A 
ATOM     19  C   LIG A   1      -7.734   1.300 126.548  0.00  0.00    +0.061 A 
ATOM     20  C   LIG A   1      -7.957   0.634 125.334  0.00  0.00    +0.167 A 
ATOM     21  C   LIG A   1      -8.009  -0.767 125.331  0.00  0.00    +0.214 A 
ATOM     22  C   LIG A   1      -7.837  -1.499 126.529  0.00  0.00    +0.167 A 
ATOM     23  C   LIG A   1      -7.588  -0.802 127.726  0.00  0.00    +0.061 A 
BRANCH  20  24
ATOM     24  O   LIG A   1      -8.007   1.322 124.154  0.00  0.00    -0.491 OA
ATOM     25  C   LIG A   1      -6.960   2.276 123.975  0.00  0.00    +0.277 C 
ENDBRANCH  20  24
BRANCH  22  26
ATOM     26  O   LIG A   1      -7.918  -2.866 126.453  0.00  0.00    -0.491 OA
ATOM     27  C   LIG A   1      -8.821  -3.504 127.355  0.00  0.00    +0.277 C 
ENDBRANCH  22  26
BRANCH  21  28
ATOM     28  O   LIG A   1      -8.102  -1.543 124.132  0.00  0.00    -0.418 OA
BRANCH  28  29
ATOM     29  C   LIG A   1      -9.238  -1.810 123.356  0.00  0.00    +0.309 C 
ATOM     30  C   LIG A   1      -9.541  -3.283 123.429  0.00  0.00    +0.136 C 
ATOM     31  O   LIG A   1      -9.912  -1.013 122.719  0.00  0.00    -0.251 OA
ENDBRANCH  28  29
ENDBRANCH  21  28
ENDBRANCH  13  18
BRANCH   1  32
ATOM     32  O   LIG A   1      -7.736   4.882 132.416  0.00  0.00    -0.424 OA
BRANCH  32  34
ATOM     33  O   LIG A   1      -9.483   6.400 132.800  0.00  0.00    -0.251 OA
ATOM     34  C   LIG A   1      -8.608   5.928 132.090  0.00  0.00    +0.309 C 
ATOM     35  C   LIG A   1      -8.346   6.368 130.676  0.00  0.00    +0.136 C 
ENDBRANCH  32  34
ENDBRANCH   1  32
TORSDOF 7
ENDMDL
