MODEL 1
REMARK VINA RESULT:      -5.9      0.000      0.000
REMARK  Name = NuBBE_307
REMARK  16 active torsions:
REMARK  status: ('A' for Active; 'I' for Inactive)
REMARK    1  A    between atoms: C_3  and  C_4
REMARK    2  A    between atoms: C_5  and  O_6
REMARK    3  A    between atoms: O_6  and  C_7
REMARK    4  A    between atoms: C_7  and  C_8
REMARK    5  A    between atoms: C_12  and  C_13
REMARK    6  A    between atoms: C_13  and  C_14
REMARK    7  A    between atoms: C_14  and  C_15
REMARK    8  A    between atoms: C_15  and  C_16
REMARK    9  A    between atoms: C_16  and  C_17
REMARK   10  A    between atoms: C_17  and  C_18
REMARK   11  A    between atoms: C_18  and  C_19
REMARK   12  A    between atoms: C_19  and  C_20
REMARK   13  A    between atoms: C_20  and  C_21
REMARK   14  A    between atoms: C_21  and  C_22
REMARK   15  A    between atoms: C_22  and  C_23
REMARK   16  A    between atoms: C_23  and  C_24
REMARK                            x       y       z     vdW  Elec       q    Type
REMARK                         _______ _______ _______ _____ _____    ______ ____
ROOT
ATOM      1  C   LIG A   1      -8.815  -0.925 123.190  0.00  0.00    +0.019 C 
ENDROOT
BRANCH   1   9
ATOM      2  H   LIG A   1     -10.233   2.138 123.401  0.00  0.00    +0.123 HD
ATOM      3  N   LIG A   1      -9.581   1.450 123.011  0.00  0.00    -0.307 NA
ATOM      4  C   LIG A   1      -8.247   2.062 122.901  0.00  0.00    +0.092 C 
ATOM      5  C   LIG A   1      -8.377   3.219 121.912  0.00  0.00    +0.028 C 
ATOM      6  C   LIG A   1      -7.675   2.485 124.285  0.00  0.00    +0.193 C 
ATOM      7  C   LIG A   1      -7.747   1.309 125.273  0.00  0.00    +0.048 C 
ATOM      8  C   LIG A   1      -9.098   0.595 125.258  0.00  0.00    +0.022 C 
ATOM      9  C   LIG A   1      -9.592   0.246 123.840  0.00  0.00    +0.054 C 
BRANCH   6  10
ATOM     10  O   LIG A   1      -6.275   2.838 124.182  0.00  0.00    -0.460 OA
BRANCH  10  11
ATOM     11  C   LIG A   1      -5.959   4.161 124.189  0.00  0.00    +0.304 C 
ATOM     12  C   LIG A   1      -6.280   4.769 125.517  0.00  0.00    +0.136 C 
ATOM     13  O   LIG A   1      -5.510   4.793 123.247  0.00  0.00    -0.251 OA
ENDBRANCH  10  11
ENDBRANCH   6  10
ENDBRANCH   1   9
BRANCH   1  14
ATOM     14  C   LIG A   1      -9.521  -2.293 123.279  0.00  0.00    +0.002 C 
BRANCH  14  15
ATOM     15  C   LIG A   1      -8.928  -3.253 124.318  0.00  0.00    +0.000 C 
BRANCH  15  16
ATOM     16  C   LIG A   1      -9.489  -2.963 125.719  0.00  0.00    -0.000 C 
BRANCH  16  17
ATOM     17  C   LIG A   1      -8.713  -3.699 126.819  0.00  0.00    -0.000 C 
BRANCH  17  18
ATOM     18  C   LIG A   1      -8.344  -2.761 127.975  0.00  0.00    -0.000 C 
BRANCH  18  19
ATOM     19  C   LIG A   1      -6.839  -2.486 128.105  0.00  0.00    +0.000 C 
BRANCH  19  20
ATOM     20  C   LIG A   1      -6.217  -1.570 127.042  0.00  0.00    +0.000 C 
BRANCH  20  21
ATOM     21  C   LIG A   1      -5.429  -2.307 125.954  0.00  0.00    +0.007 C 
BRANCH  21  22
ATOM     22  C   LIG A   1      -5.614  -1.646 124.589  0.00  0.00    +0.074 C 
BRANCH  22  23
ATOM     23  C   LIG A   1      -5.407  -2.643 123.468  0.00  0.00    +0.130 C 
ATOM     24  C   LIG A   1      -4.826  -3.986 123.823  0.00  0.00    +0.086 C 
ATOM     25  O   LIG A   1      -5.690  -2.363 122.302  0.00  0.00    -0.298 OA
ENDBRANCH  22  23
ENDBRANCH  21  22
ENDBRANCH  20  21
ENDBRANCH  19  20
ENDBRANCH  18  19
ENDBRANCH  17  18
ENDBRANCH  16  17
ENDBRANCH  15  16
ENDBRANCH  14  15
ENDBRANCH   1  14
TORSDOF 13
ENDMDL
MODEL 2
REMARK VINA RESULT:      -5.7      8.737     10.104
REMARK  Name = NuBBE_307
REMARK  16 active torsions:
REMARK  status: ('A' for Active; 'I' for Inactive)
REMARK    1  A    between atoms: C_3  and  C_4
REMARK    2  A    between atoms: C_5  and  O_6
REMARK    3  A    between atoms: O_6  and  C_7
REMARK    4  A    between atoms: C_7  and  C_8
REMARK    5  A    between atoms: C_12  and  C_13
REMARK    6  A    between atoms: C_13  and  C_14
REMARK    7  A    between atoms: C_14  and  C_15
REMARK    8  A    between atoms: C_15  and  C_16
REMARK    9  A    between atoms: C_16  and  C_17
REMARK   10  A    between atoms: C_17  and  C_18
REMARK   11  A    between atoms: C_18  and  C_19
REMARK   12  A    between atoms: C_19  and  C_20
REMARK   13  A    between atoms: C_20  and  C_21
REMARK   14  A    between atoms: C_21  and  C_22
REMARK   15  A    between atoms: C_22  and  C_23
REMARK   16  A    between atoms: C_23  and  C_24
REMARK                            x       y       z     vdW  Elec       q    Type
REMARK                         _______ _______ _______ _____ _____    ______ ____
ROOT
ATOM      1  C   LIG A   1      -9.502   4.257 132.398  0.00  0.00    +0.019 C 
ENDROOT
BRANCH   1   9
ATOM      2  H   LIG A   1     -10.263   7.552 132.399  0.00  0.00    +0.123 HD
ATOM      3  N   LIG A   1     -10.487   6.556 132.313  0.00  0.00    -0.307 NA
ATOM      4  C   LIG A   1     -11.317   6.352 131.114  0.00  0.00    +0.092 C 
ATOM      5  C   LIG A   1     -12.617   7.119 131.348  0.00  0.00    +0.028 C 
ATOM      6  C   LIG A   1     -10.577   6.759 129.807  0.00  0.00    +0.193 C 
ATOM      7  C   LIG A   1      -9.201   6.078 129.740  0.00  0.00    +0.048 C 
ATOM      8  C   LIG A   1      -8.420   6.175 131.050  0.00  0.00    +0.022 C 
ATOM      9  C   LIG A   1      -9.247   5.780 132.289  0.00  0.00    +0.054 C 
BRANCH   6  10
ATOM     10  O   LIG A   1     -11.305   6.310 128.639  0.00  0.00    -0.460 OA
BRANCH  10  11
ATOM     11  C   LIG A   1     -11.507   7.212 127.641  0.00  0.00    +0.304 C 
ATOM     12  C   LIG A   1     -11.271   8.603 128.135  0.00  0.00    +0.136 C 
ATOM     13  O   LIG A   1     -11.864   6.949 126.503  0.00  0.00    -0.251 OA
ENDBRANCH  10  11
ENDBRANCH   6  10
ENDBRANCH   1   9
BRANCH   1  14
ATOM     14  C   LIG A   1      -9.191   3.650 133.780  0.00  0.00    +0.002 C 
BRANCH  14  15
ATOM     15  C   LIG A   1      -8.306   4.523 134.679  0.00  0.00    +0.000 C 
BRANCH  15  16
ATOM     16  C   LIG A   1      -6.830   4.109 134.568  0.00  0.00    -0.000 C 
BRANCH  16  17
ATOM     17  C   LIG A   1      -5.885   5.317 134.585  0.00  0.00    -0.000 C 
BRANCH  17  18
ATOM     18  C   LIG A   1      -5.504   5.758 133.166  0.00  0.00    -0.000 C 
BRANCH  18  19
ATOM     19  C   LIG A   1      -3.999   5.987 132.963  0.00  0.00    +0.000 C 
BRANCH  19  20
ATOM     20  C   LIG A   1      -3.603   7.121 132.008  0.00  0.00    +0.000 C 
BRANCH  20  21
ATOM     21  C   LIG A   1      -4.658   7.453 130.948  0.00  0.00    +0.007 C 
BRANCH  21  22
ATOM     22  C   LIG A   1      -4.012   7.964 129.661  0.00  0.00    +0.074 C 
BRANCH  22  23
ATOM     23  C   LIG A   1      -3.687   6.820 128.723  0.00  0.00    +0.130 C 
ATOM     24  C   LIG A   1      -2.256   6.661 128.280  0.00  0.00    +0.086 C 
ATOM     25  O   LIG A   1      -4.563   6.052 128.324  0.00  0.00    -0.298 OA
ENDBRANCH  22  23
ENDBRANCH  21  22
ENDBRANCH  20  21
ENDBRANCH  19  20
ENDBRANCH  18  19
ENDBRANCH  17  18
ENDBRANCH  16  17
ENDBRANCH  15  16
ENDBRANCH  14  15
ENDBRANCH   1  14
TORSDOF 13
ENDMDL
MODEL 3
REMARK VINA RESULT:      -5.7      2.370      4.269
REMARK  Name = NuBBE_307
REMARK  16 active torsions:
REMARK  status: ('A' for Active; 'I' for Inactive)
REMARK    1  A    between atoms: C_3  and  C_4
REMARK    2  A    between atoms: C_5  and  O_6
REMARK    3  A    between atoms: O_6  and  C_7
REMARK    4  A    between atoms: C_7  and  C_8
REMARK    5  A    between atoms: C_12  and  C_13
REMARK    6  A    between atoms: C_13  and  C_14
REMARK    7  A    between atoms: C_14  and  C_15
REMARK    8  A    between atoms: C_15  and  C_16
REMARK    9  A    between atoms: C_16  and  C_17
REMARK   10  A    between atoms: C_17  and  C_18
REMARK   11  A    between atoms: C_18  and  C_19
REMARK   12  A    between atoms: C_19  and  C_20
REMARK   13  A    between atoms: C_20  and  C_21
REMARK   14  A    between atoms: C_21  and  C_22
REMARK   15  A    between atoms: C_22  and  C_23
REMARK   16  A    between atoms: C_23  and  C_24
REMARK                            x       y       z     vdW  Elec       q    Type
REMARK                         _______ _______ _______ _____ _____    ______ ____
ROOT
ATOM      1  C   LIG A   1      -5.605   1.639 125.667  0.00  0.00    +0.019 C 
ENDROOT
BRANCH   1   9
ATOM      2  H   LIG A   1      -7.902   3.945 124.748  0.00  0.00    +0.123 HD
ATOM      3  N   LIG A   1      -7.373   3.075 124.630  0.00  0.00    -0.307 NA
ATOM      4  C   LIG A   1      -6.880   2.995 123.245  0.00  0.00    +0.092 C 
ATOM      5  C   LIG A   1      -8.113   2.934 122.346  0.00  0.00    +0.028 C 
ATOM      6  C   LIG A   1      -5.908   4.160 122.896  0.00  0.00    +0.193 C 
ATOM      7  C   LIG A   1      -4.797   4.261 123.953  0.00  0.00    +0.048 C 
ATOM      8  C   LIG A   1      -5.324   4.190 125.386  0.00  0.00    +0.022 C 
ATOM      9  C   LIG A   1      -6.300   3.021 125.623  0.00  0.00    +0.054 C 
BRANCH   6  10
ATOM     10  O   LIG A   1      -5.243   3.919 121.634  0.00  0.00    -0.460 OA
BRANCH  10  11
ATOM     11  C   LIG A   1      -5.252   4.924 120.717  0.00  0.00    +0.304 C 
ATOM     12  C   LIG A   1      -6.215   4.618 119.615  0.00  0.00    +0.136 C 
ATOM     13  O   LIG A   1      -4.557   5.926 120.750  0.00  0.00    -0.251 OA
ENDBRANCH  10  11
ENDBRANCH   6  10
ENDBRANCH   1   9
BRANCH   1  14
ATOM     14  C   LIG A   1      -6.560   0.445 125.872  0.00  0.00    +0.002 C 
BRANCH  14  15
ATOM     15  C   LIG A   1      -6.655  -0.512 124.678  0.00  0.00    +0.000 C 
BRANCH  15  16
ATOM     16  C   LIG A   1      -5.575  -1.602 124.759  0.00  0.00    -0.000 C 
BRANCH  16  17
ATOM     17  C   LIG A   1      -6.058  -2.942 124.189  0.00  0.00    -0.000 C 
BRANCH  17  18
ATOM     18  C   LIG A   1      -7.565  -2.924 123.901  0.00  0.00    -0.000 C 
BRANCH  18  19
ATOM     19  C   LIG A   1      -8.392  -3.832 124.822  0.00  0.00    +0.000 C 
BRANCH  19  20
ATOM     20  C   LIG A   1      -9.158  -3.139 125.958  0.00  0.00    +0.000 C 
BRANCH  20  21
ATOM     21  C   LIG A   1      -8.677  -3.511 127.364  0.00  0.00    +0.007 C 
BRANCH  21  22
ATOM     22  C   LIG A   1      -7.972  -2.335 128.039  0.00  0.00    +0.074 C 
BRANCH  22  23
ATOM     23  C   LIG A   1      -6.796  -2.808 128.869  0.00  0.00    +0.130 C 
ATOM     24  C   LIG A   1      -5.412  -2.474 128.377  0.00  0.00    +0.086 C 
ATOM     25  O   LIG A   1      -6.962  -3.457 129.902  0.00  0.00    -0.298 OA
ENDBRANCH  22  23
ENDBRANCH  21  22
ENDBRANCH  20  21
ENDBRANCH  19  20
ENDBRANCH  18  19
ENDBRANCH  17  18
ENDBRANCH  16  17
ENDBRANCH  15  16
ENDBRANCH  14  15
ENDBRANCH   1  14
TORSDOF 13
ENDMDL
MODEL 4
REMARK VINA RESULT:      -5.6      9.458     11.969
REMARK  Name = NuBBE_307
REMARK  16 active torsions:
REMARK  status: ('A' for Active; 'I' for Inactive)
REMARK    1  A    between atoms: C_3  and  C_4
REMARK    2  A    between atoms: C_5  and  O_6
REMARK    3  A    between atoms: O_6  and  C_7
REMARK    4  A    between atoms: C_7  and  C_8
REMARK    5  A    between atoms: C_12  and  C_13
REMARK    6  A    between atoms: C_13  and  C_14
REMARK    7  A    between atoms: C_14  and  C_15
REMARK    8  A    between atoms: C_15  and  C_16
REMARK    9  A    between atoms: C_16  and  C_17
REMARK   10  A    between atoms: C_17  and  C_18
REMARK   11  A    between atoms: C_18  and  C_19
REMARK   12  A    between atoms: C_19  and  C_20
REMARK   13  A    between atoms: C_20  and  C_21
REMARK   14  A    between atoms: C_21  and  C_22
REMARK   15  A    between atoms: C_22  and  C_23
REMARK   16  A    between atoms: C_23  and  C_24
REMARK                            x       y       z     vdW  Elec       q    Type
REMARK                         _______ _______ _______ _____ _____    ______ ____
ROOT
ATOM      1  C   LIG A   1      -9.531   4.315 132.636  0.00  0.00    +0.019 C 
ENDROOT
BRANCH   1   9
ATOM      2  H   LIG A   1     -10.520   7.545 132.800  0.00  0.00    +0.123 HD
ATOM      3  N   LIG A   1     -10.661   6.547 132.610  0.00  0.00    -0.307 NA
ATOM      4  C   LIG A   1     -11.329   6.396 131.307  0.00  0.00    +0.092 C 
ATOM      5  C   LIG A   1     -12.698   7.059 131.439  0.00  0.00    +0.028 C 
ATOM      6  C   LIG A   1     -10.472   6.958 130.136  0.00  0.00    +0.193 C 
ATOM      7  C   LIG A   1      -9.052   6.372 130.185  0.00  0.00    +0.048 C 
ATOM      8  C   LIG A   1      -8.438   6.404 131.584  0.00  0.00    +0.022 C 
ATOM      9  C   LIG A   1      -9.374   5.854 132.678  0.00  0.00    +0.054 C 
BRANCH   6  10
ATOM     10  O   LIG A   1     -11.024   6.568 128.856  0.00  0.00    -0.460 OA
BRANCH  10  11
ATOM     11  C   LIG A   1     -11.388   7.560 128.000  0.00  0.00    +0.304 C 
ATOM     12  C   LIG A   1     -12.853   7.493 127.712  0.00  0.00    +0.136 C 
ATOM     13  O   LIG A   1     -10.636   8.380 127.498  0.00  0.00    -0.251 OA
ENDBRANCH  10  11
ENDBRANCH   6  10
ENDBRANCH   1   9
BRANCH   1  14
ATOM     14  C   LIG A   1      -8.904   3.572 133.833  0.00  0.00    +0.002 C 
BRANCH  14  15
ATOM     15  C   LIG A   1      -7.555   2.906 133.538  0.00  0.00    +0.000 C 
BRANCH  15  16
ATOM     16  C   LIG A   1      -6.528   3.234 134.633  0.00  0.00    -0.000 C 
BRANCH  16  17
ATOM     17  C   LIG A   1      -5.441   4.197 134.138  0.00  0.00    -0.000 C 
BRANCH  17  18
ATOM     18  C   LIG A   1      -5.895   5.659 134.232  0.00  0.00    -0.000 C 
BRANCH  18  19
ATOM     19  C   LIG A   1      -5.379   6.399 135.474  0.00  0.00    +0.000 C 
BRANCH  19  20
ATOM     20  C   LIG A   1      -6.199   6.231 136.760  0.00  0.00    +0.000 C 
BRANCH  20  21
ATOM     21  C   LIG A   1      -7.714   6.351 136.566  0.00  0.00    +0.007 C 
BRANCH  21  22
ATOM     22  C   LIG A   1      -8.382   6.984 137.786  0.00  0.00    +0.074 C 
BRANCH  22  23
ATOM     23  C   LIG A   1      -8.865   8.386 137.476  0.00  0.00    +0.130 C 
ATOM     24  C   LIG A   1      -8.394   9.503 138.369  0.00  0.00    +0.086 C 
ATOM     25  O   LIG A   1      -9.627   8.605 136.534  0.00  0.00    -0.298 OA
ENDBRANCH  22  23
ENDBRANCH  21  22
ENDBRANCH  20  21
ENDBRANCH  19  20
ENDBRANCH  18  19
ENDBRANCH  17  18
ENDBRANCH  16  17
ENDBRANCH  15  16
ENDBRANCH  14  15
ENDBRANCH   1  14
TORSDOF 13
ENDMDL
MODEL 5
REMARK VINA RESULT:      -5.5      4.235      7.328
REMARK  Name = NuBBE_307
REMARK  16 active torsions:
REMARK  status: ('A' for Active; 'I' for Inactive)
REMARK    1  A    between atoms: C_3  and  C_4
REMARK    2  A    between atoms: C_5  and  O_6
REMARK    3  A    between atoms: O_6  and  C_7
REMARK    4  A    between atoms: C_7  and  C_8
REMARK    5  A    between atoms: C_12  and  C_13
REMARK    6  A    between atoms: C_13  and  C_14
REMARK    7  A    between atoms: C_14  and  C_15
REMARK    8  A    between atoms: C_15  and  C_16
REMARK    9  A    between atoms: C_16  and  C_17
REMARK   10  A    between atoms: C_17  and  C_18
REMARK   11  A    between atoms: C_18  and  C_19
REMARK   12  A    between atoms: C_19  and  C_20
REMARK   13  A    between atoms: C_20  and  C_21
REMARK   14  A    between atoms: C_21  and  C_22
REMARK   15  A    between atoms: C_22  and  C_23
REMARK   16  A    between atoms: C_23  and  C_24
REMARK                            x       y       z     vdW  Elec       q    Type
REMARK                         _______ _______ _______ _____ _____    ______ ____
ROOT
ATOM      1  C   LIG A   1      -8.330  -3.379 127.852  0.00  0.00    +0.019 C 
ENDROOT
BRANCH   1   9
ATOM      2  H   LIG A   1      -5.297  -2.693 129.180  0.00  0.00    +0.123 HD
ATOM      3  N   LIG A   1      -6.135  -3.267 129.048  0.00  0.00    -0.307 NA
ATOM      4  C   LIG A   1      -6.623  -3.716 130.362  0.00  0.00    +0.092 C 
ATOM      5  C   LIG A   1      -5.526  -4.595 130.958  0.00  0.00    +0.028 C 
ATOM      6  C   LIG A   1      -7.037  -2.526 131.276  0.00  0.00    +0.193 C 
ATOM      7  C   LIG A   1      -8.006  -1.594 130.531  0.00  0.00    +0.048 C 
ATOM      8  C   LIG A   1      -7.548  -1.265 129.111  0.00  0.00    +0.022 C 
ATOM      9  C   LIG A   1      -7.133  -2.505 128.297  0.00  0.00    +0.054 C 
BRANCH   6  10
ATOM     10  O   LIG A   1      -7.749  -2.995 132.446  0.00  0.00    -0.460 OA
BRANCH  10  11
ATOM     11  C   LIG A   1      -7.295  -2.586 133.662  0.00  0.00    +0.304 C 
ATOM     12  C   LIG A   1      -7.029  -3.763 134.544  0.00  0.00    +0.136 C 
ATOM     13  O   LIG A   1      -7.152  -1.427 134.017  0.00  0.00    -0.251 OA
ENDBRANCH  10  11
ENDBRANCH   6  10
ENDBRANCH   1   9
BRANCH   1  14
ATOM     14  C   LIG A   1      -8.991  -2.939 126.530  0.00  0.00    +0.002 C 
BRANCH  14  15
ATOM     15  C   LIG A   1      -8.456  -3.648 125.279  0.00  0.00    +0.000 C 
BRANCH  15  16
ATOM     16  C   LIG A   1      -9.331  -3.339 124.055  0.00  0.00    -0.000 C 
BRANCH  16  17
ATOM     17  C   LIG A   1      -8.617  -2.430 123.046  0.00  0.00    -0.000 C 
BRANCH  17  18
ATOM     18  C   LIG A   1      -7.098  -2.432 123.259  0.00  0.00    -0.000 C 
BRANCH  18  19
ATOM     19  C   LIG A   1      -6.503  -1.048 123.554  0.00  0.00    +0.000 C 
BRANCH  19  20
ATOM     20  C   LIG A   1      -5.997  -0.812 124.984  0.00  0.00    +0.000 C 
BRANCH  20  21
ATOM     21  C   LIG A   1      -6.804   0.220 125.779  0.00  0.00    +0.007 C 
BRANCH  21  22
ATOM     22  C   LIG A   1      -7.300   1.351 124.879  0.00  0.00    +0.074 C 
BRANCH  22  23
ATOM     23  C   LIG A   1      -8.756   1.667 125.153  0.00  0.00    +0.130 C 
ATOM     24  C   LIG A   1      -9.629   0.553 125.670  0.00  0.00    +0.086 C 
ATOM     25  O   LIG A   1      -9.216   2.790 124.948  0.00  0.00    -0.298 OA
ENDBRANCH  22  23
ENDBRANCH  21  22
ENDBRANCH  20  21
ENDBRANCH  19  20
ENDBRANCH  18  19
ENDBRANCH  17  18
ENDBRANCH  16  17
ENDBRANCH  15  16
ENDBRANCH  14  15
ENDBRANCH   1  14
TORSDOF 13
ENDMDL
MODEL 6
REMARK VINA RESULT:      -5.5      7.957      9.609
REMARK  Name = NuBBE_307
REMARK  16 active torsions:
REMARK  status: ('A' for Active; 'I' for Inactive)
REMARK    1  A    between atoms: C_3  and  C_4
REMARK    2  A    between atoms: C_5  and  O_6
REMARK    3  A    between atoms: O_6  and  C_7
REMARK    4  A    between atoms: C_7  and  C_8
REMARK    5  A    between atoms: C_12  and  C_13
REMARK    6  A    between atoms: C_13  and  C_14
REMARK    7  A    between atoms: C_14  and  C_15
REMARK    8  A    between atoms: C_15  and  C_16
REMARK    9  A    between atoms: C_16  and  C_17
REMARK   10  A    between atoms: C_17  and  C_18
REMARK   11  A    between atoms: C_18  and  C_19
REMARK   12  A    between atoms: C_19  and  C_20
REMARK   13  A    between atoms: C_20  and  C_21
REMARK   14  A    between atoms: C_21  and  C_22
REMARK   15  A    between atoms: C_22  and  C_23
REMARK   16  A    between atoms: C_23  and  C_24
REMARK                            x       y       z     vdW  Elec       q    Type
REMARK                         _______ _______ _______ _____ _____    ______ ____
ROOT
ATOM      1  C   LIG A   1      -9.960   4.105 130.500  0.00  0.00    +0.019 C 
ENDROOT
BRANCH   1   9
ATOM      2  H   LIG A   1     -11.973   6.482 131.819  0.00  0.00    +0.123 HD
ATOM      3  N   LIG A   1     -11.686   5.817 131.093  0.00  0.00    -0.307 NA
ATOM      4  C   LIG A   1     -11.734   6.486 129.782  0.00  0.00    +0.092 C 
ATOM      5  C   LIG A   1     -13.193   6.866 129.539  0.00  0.00    +0.028 C 
ATOM      6  C   LIG A   1     -10.752   7.691 129.699  0.00  0.00    +0.193 C 
ATOM      7  C   LIG A   1      -9.342   7.260 130.133  0.00  0.00    +0.048 C 
ATOM      8  C   LIG A   1      -9.336   6.436 131.420  0.00  0.00    +0.022 C 
ATOM      9  C   LIG A   1     -10.362   5.286 131.417  0.00  0.00    +0.054 C 
BRANCH   6  10
ATOM     10  O   LIG A   1     -10.626   8.163 128.337  0.00  0.00    -0.460 OA
BRANCH  10  11
ATOM     11  C   LIG A   1     -10.514   7.228 127.356  0.00  0.00    +0.304 C 
ATOM     12  C   LIG A   1     -11.602   7.396 126.344  0.00  0.00    +0.136 C 
ATOM     13  O   LIG A   1      -9.673   6.344 127.306  0.00  0.00    -0.251 OA
ENDBRANCH  10  11
ENDBRANCH   6  10
ENDBRANCH   1   9
BRANCH   1  14
ATOM     14  C   LIG A   1      -9.217   2.960 131.216  0.00  0.00    +0.002 C 
BRANCH  14  15
ATOM     15  C   LIG A   1      -9.442   2.898 132.732  0.00  0.00    +0.000 C 
BRANCH  15  16
ATOM     16  C   LIG A   1      -8.157   3.255 133.494  0.00  0.00    -0.000 C 
BRANCH  16  17
ATOM     17  C   LIG A   1      -8.415   4.253 134.630  0.00  0.00    -0.000 C 
BRANCH  17  18
ATOM     18  C   LIG A   1      -7.588   5.533 134.458  0.00  0.00    -0.000 C 
BRANCH  18  19
ATOM     19  C   LIG A   1      -6.075   5.331 134.616  0.00  0.00    +0.000 C 
BRANCH  19  20
ATOM     20  C   LIG A   1      -5.184   5.945 133.528  0.00  0.00    +0.000 C 
BRANCH  20  21
ATOM     21  C   LIG A   1      -5.613   5.610 132.096  0.00  0.00    +0.007 C 
BRANCH  21  22
ATOM     22  C   LIG A   1      -5.819   6.877 131.266  0.00  0.00    +0.074 C 
BRANCH  22  23
ATOM     23  C   LIG A   1      -4.723   7.034 130.232  0.00  0.00    +0.130 C 
ATOM     24  C   LIG A   1      -3.700   8.118 130.454  0.00  0.00    +0.086 C 
ATOM     25  O   LIG A   1      -4.675   6.312 129.236  0.00  0.00    -0.298 OA
ENDBRANCH  22  23
ENDBRANCH  21  22
ENDBRANCH  20  21
ENDBRANCH  19  20
ENDBRANCH  18  19
ENDBRANCH  17  18
ENDBRANCH  16  17
ENDBRANCH  15  16
ENDBRANCH  14  15
ENDBRANCH   1  14
TORSDOF 13
ENDMDL
MODEL 7
REMARK VINA RESULT:      -5.4      3.204      5.002
REMARK  Name = NuBBE_307
REMARK  16 active torsions:
REMARK  status: ('A' for Active; 'I' for Inactive)
REMARK    1  A    between atoms: C_3  and  C_4
REMARK    2  A    between atoms: C_5  and  O_6
REMARK    3  A    between atoms: O_6  and  C_7
REMARK    4  A    between atoms: C_7  and  C_8
REMARK    5  A    between atoms: C_12  and  C_13
REMARK    6  A    between atoms: C_13  and  C_14
REMARK    7  A    between atoms: C_14  and  C_15
REMARK    8  A    between atoms: C_15  and  C_16
REMARK    9  A    between atoms: C_16  and  C_17
REMARK   10  A    between atoms: C_17  and  C_18
REMARK   11  A    between atoms: C_18  and  C_19
REMARK   12  A    between atoms: C_19  and  C_20
REMARK   13  A    between atoms: C_20  and  C_21
REMARK   14  A    between atoms: C_21  and  C_22
REMARK   15  A    between atoms: C_22  and  C_23
REMARK   16  A    between atoms: C_23  and  C_24
REMARK                            x       y       z     vdW  Elec       q    Type
REMARK                         _______ _______ _______ _____ _____    ______ ____
ROOT
ATOM      1  C   LIG A   1      -9.374  -3.089 126.283  0.00  0.00    +0.019 C 
ENDROOT
BRANCH   1   9
ATOM      2  H   LIG A   1      -6.556  -3.244 124.420  0.00  0.00    +0.123 HD
ATOM      3  N   LIG A   1      -7.188  -2.807 125.099  0.00  0.00    -0.307 NA
ATOM      4  C   LIG A   1      -7.349  -1.384 124.760  0.00  0.00    +0.092 C 
ATOM      5  C   LIG A   1      -5.970  -0.742 124.904  0.00  0.00    +0.028 C 
ATOM      6  C   LIG A   1      -7.990  -1.180 123.357  0.00  0.00    +0.193 C 
ATOM      7  C   LIG A   1      -9.282  -2.004 123.237  0.00  0.00    +0.048 C 
ATOM      8  C   LIG A   1      -9.127  -3.439 123.737  0.00  0.00    +0.022 C 
ATOM      9  C   LIG A   1      -8.456  -3.537 125.121  0.00  0.00    +0.054 C 
BRANCH   6  10
ATOM     10  O   LIG A   1      -8.374   0.201 123.158  0.00  0.00    -0.460 OA
BRANCH  10  11
ATOM     11  C   LIG A   1      -9.692   0.511 123.286  0.00  0.00    +0.304 C 
ATOM     12  C   LIG A   1      -9.959   1.126 124.622  0.00  0.00    +0.136 C 
ATOM     13  O   LIG A   1     -10.560   0.295 122.455  0.00  0.00    -0.251 OA
ENDBRANCH  10  11
ENDBRANCH   6  10
ENDBRANCH   1   9
BRANCH   1  14
ATOM     14  C   LIG A   1      -9.160  -3.854 127.604  0.00  0.00    +0.002 C 
BRANCH  14  15
ATOM     15  C   LIG A   1      -7.876  -3.486 128.357  0.00  0.00    +0.000 C 
BRANCH  15  16
ATOM     16  C   LIG A   1      -8.199  -2.859 129.722  0.00  0.00    -0.000 C 
BRANCH  16  17
ATOM     17  C   LIG A   1      -7.837  -1.369 129.776  0.00  0.00    -0.000 C 
BRANCH  17  18
ATOM     18  C   LIG A   1      -7.156  -0.905 128.482  0.00  0.00    -0.000 C 
BRANCH  18  19
ATOM     19  C   LIG A   1      -5.723  -0.390 128.676  0.00  0.00    +0.000 C 
BRANCH  19  20
ATOM     20  C   LIG A   1      -4.731  -1.359 129.334  0.00  0.00    +0.000 C 
BRANCH  20  21
ATOM     21  C   LIG A   1      -4.533  -2.675 128.575  0.00  0.00    +0.007 C 
BRANCH  21  22
ATOM     22  C   LIG A   1      -3.550  -3.593 129.300  0.00  0.00    +0.074 C 
BRANCH  22  23
ATOM     23  C   LIG A   1      -4.022  -3.890 130.709  0.00  0.00    +0.130 C 
ATOM     24  C   LIG A   1      -5.282  -4.698 130.871  0.00  0.00    +0.086 C 
ATOM     25  O   LIG A   1      -3.404  -3.474 131.690  0.00  0.00    -0.298 OA
ENDBRANCH  22  23
ENDBRANCH  21  22
ENDBRANCH  20  21
ENDBRANCH  19  20
ENDBRANCH  18  19
ENDBRANCH  17  18
ENDBRANCH  16  17
ENDBRANCH  15  16
ENDBRANCH  14  15
ENDBRANCH   1  14
TORSDOF 13
ENDMDL
MODEL 8
REMARK VINA RESULT:      -5.3      7.432      9.025
REMARK  Name = NuBBE_307
REMARK  16 active torsions:
REMARK  status: ('A' for Active; 'I' for Inactive)
REMARK    1  A    between atoms: C_3  and  C_4
REMARK    2  A    between atoms: C_5  and  O_6
REMARK    3  A    between atoms: O_6  and  C_7
REMARK    4  A    between atoms: C_7  and  C_8
REMARK    5  A    between atoms: C_12  and  C_13
REMARK    6  A    between atoms: C_13  and  C_14
REMARK    7  A    between atoms: C_14  and  C_15
REMARK    8  A    between atoms: C_15  and  C_16
REMARK    9  A    between atoms: C_16  and  C_17
REMARK   10  A    between atoms: C_17  and  C_18
REMARK   11  A    between atoms: C_18  and  C_19
REMARK   12  A    between atoms: C_19  and  C_20
REMARK   13  A    between atoms: C_20  and  C_21
REMARK   14  A    between atoms: C_21  and  C_22
REMARK   15  A    between atoms: C_22  and  C_23
REMARK   16  A    between atoms: C_23  and  C_24
REMARK                            x       y       z     vdW  Elec       q    Type
REMARK                         _______ _______ _______ _____ _____    ______ ____
ROOT
ATOM      1  C   LIG A   1      -9.347   4.240 132.744  0.00  0.00    +0.019 C 
ENDROOT
BRANCH   1   9
ATOM      2  H   LIG A   1     -10.411   7.439 133.016  0.00  0.00    +0.123 HD
ATOM      3  N   LIG A   1     -10.517   6.452 132.760  0.00  0.00    -0.307 NA
ATOM      4  C   LIG A   1     -11.086   6.364 131.405  0.00  0.00    +0.092 C 
ATOM      5  C   LIG A   1     -12.475   6.997 131.473  0.00  0.00    +0.028 C 
ATOM      6  C   LIG A   1     -10.158   7.007 130.333  0.00  0.00    +0.193 C 
ATOM      7  C   LIG A   1      -8.734   6.442 130.454  0.00  0.00    +0.048 C 
ATOM      8  C   LIG A   1      -8.224   6.404 131.894  0.00  0.00    +0.022 C 
ATOM      9  C   LIG A   1      -9.225   5.777 132.883  0.00  0.00    +0.054 C 
BRANCH   6  10
ATOM     10  O   LIG A   1     -10.608   6.681 128.997  0.00  0.00    -0.460 OA
BRANCH  10  11
ATOM     11  C   LIG A   1     -11.004   7.710 128.200  0.00  0.00    +0.304 C 
ATOM     12  C   LIG A   1     -12.331   7.410 127.578  0.00  0.00    +0.136 C 
ATOM     13  O   LIG A   1     -10.368   8.728 127.980  0.00  0.00    -0.251 OA
ENDBRANCH  10  11
ENDBRANCH   6  10
ENDBRANCH   1   9
BRANCH   1  14
ATOM     14  C   LIG A   1      -8.622   3.436 133.842  0.00  0.00    +0.002 C 
BRANCH  14  15
ATOM     15  C   LIG A   1      -7.638   2.382 133.320  0.00  0.00    +0.000 C 
BRANCH  15  16
ATOM     16  C   LIG A   1      -6.698   2.983 132.263  0.00  0.00    -0.000 C 
BRANCH  16  17
ATOM     17  C   LIG A   1      -5.505   3.712 132.895  0.00  0.00    -0.000 C 
BRANCH  17  18
ATOM     18  C   LIG A   1      -4.485   4.150 131.837  0.00  0.00    -0.000 C 
BRANCH  18  19
ATOM     19  C   LIG A   1      -4.926   5.358 131.000  0.00  0.00    +0.000 C 
BRANCH  19  20
ATOM     20  C   LIG A   1      -4.377   5.436 129.569  0.00  0.00    +0.000 C 
BRANCH  20  21
ATOM     21  C   LIG A   1      -3.044   4.711 129.362  0.00  0.00    +0.007 C 
BRANCH  21  22
ATOM     22  C   LIG A   1      -2.588   4.790 127.905  0.00  0.00    +0.074 C 
BRANCH  22  23
ATOM     23  C   LIG A   1      -2.685   3.437 127.230  0.00  0.00    +0.130 C 
ATOM     24  C   LIG A   1      -1.468   2.928 126.504  0.00  0.00    +0.086 C 
ATOM     25  O   LIG A   1      -3.726   2.781 127.260  0.00  0.00    -0.298 OA
ENDBRANCH  22  23
ENDBRANCH  21  22
ENDBRANCH  20  21
ENDBRANCH  19  20
ENDBRANCH  18  19
ENDBRANCH  17  18
ENDBRANCH  16  17
ENDBRANCH  15  16
ENDBRANCH  14  15
ENDBRANCH   1  14
TORSDOF 13
ENDMDL
MODEL 9
REMARK VINA RESULT:      -5.3      2.464      3.348
REMARK  Name = NuBBE_307
REMARK  16 active torsions:
REMARK  status: ('A' for Active; 'I' for Inactive)
REMARK    1  A    between atoms: C_3  and  C_4
REMARK    2  A    between atoms: C_5  and  O_6
REMARK    3  A    between atoms: O_6  and  C_7
REMARK    4  A    between atoms: C_7  and  C_8
REMARK    5  A    between atoms: C_12  and  C_13
REMARK    6  A    between atoms: C_13  and  C_14
REMARK    7  A    between atoms: C_14  and  C_15
REMARK    8  A    between atoms: C_15  and  C_16
REMARK    9  A    between atoms: C_16  and  C_17
REMARK   10  A    between atoms: C_17  and  C_18
REMARK   11  A    between atoms: C_18  and  C_19
REMARK   12  A    between atoms: C_19  and  C_20
REMARK   13  A    between atoms: C_20  and  C_21
REMARK   14  A    between atoms: C_21  and  C_22
REMARK   15  A    between atoms: C_22  and  C_23
REMARK   16  A    between atoms: C_23  and  C_24
REMARK                            x       y       z     vdW  Elec       q    Type
REMARK                         _______ _______ _______ _____ _____    ______ ____
ROOT
ATOM      1  C   LIG A   1      -6.799  -0.792 123.339  0.00  0.00    +0.019 C 
ENDROOT
BRANCH   1   9
ATOM      2  H   LIG A   1      -8.946   1.818 123.447  0.00  0.00    +0.123 HD
ATOM      3  N   LIG A   1      -8.111   1.326 123.113  0.00  0.00    -0.307 NA
ATOM      4  C   LIG A   1      -6.966   2.251 123.139  0.00  0.00    +0.092 C 
ATOM      5  C   LIG A   1      -7.289   3.373 122.155  0.00  0.00    +0.028 C 
ATOM      6  C   LIG A   1      -6.645   2.753 124.577  0.00  0.00    +0.193 C 
ATOM      7  C   LIG A   1      -6.513   1.562 125.540  0.00  0.00    +0.048 C 
ATOM      8  C   LIG A   1      -7.637   0.539 125.387  0.00  0.00    +0.022 C 
ATOM      9  C   LIG A   1      -7.897   0.128 123.925  0.00  0.00    +0.054 C 
BRANCH   6  10
ATOM     10  O   LIG A   1      -5.373   3.443 124.613  0.00  0.00    -0.460 OA
BRANCH  10  11
ATOM     11  C   LIG A   1      -5.132   4.259 125.675  0.00  0.00    +0.304 C 
ATOM     12  C   LIG A   1      -3.789   3.967 126.265  0.00  0.00    +0.136 C 
ATOM     13  O   LIG A   1      -5.901   5.094 126.122  0.00  0.00    -0.251 OA
ENDBRANCH  10  11
ENDBRANCH   6  10
ENDBRANCH   1   9
BRANCH   1  14
ATOM     14  C   LIG A   1      -7.246  -2.246 123.085  0.00  0.00    +0.002 C 
BRANCH  14  15
ATOM     15  C   LIG A   1      -8.760  -2.475 123.167  0.00  0.00    +0.000 C 
BRANCH  15  16
ATOM     16  C   LIG A   1      -9.103  -3.505 124.254  0.00  0.00    -0.000 C 
BRANCH  16  17
ATOM     17  C   LIG A   1      -9.534  -2.840 125.568  0.00  0.00    -0.000 C 
BRANCH  17  18
ATOM     18  C   LIG A   1      -8.815  -3.453 126.775  0.00  0.00    -0.000 C 
BRANCH  18  19
ATOM     19  C   LIG A   1      -7.573  -2.674 127.230  0.00  0.00    +0.000 C 
BRANCH  19  20
ATOM     20  C   LIG A   1      -7.697  -1.895 128.546  0.00  0.00    +0.000 C 
BRANCH  20  21
ATOM     21  C   LIG A   1      -7.826  -2.776 129.793  0.00  0.00    +0.007 C 
BRANCH  21  22
ATOM     22  C   LIG A   1      -6.727  -3.837 129.841  0.00  0.00    +0.074 C 
BRANCH  22  23
ATOM     23  C   LIG A   1      -5.392  -3.221 130.204  0.00  0.00    +0.130 C 
ATOM     24  C   LIG A   1      -4.277  -3.319 129.196  0.00  0.00    +0.086 C 
ATOM     25  O   LIG A   1      -5.216  -2.669 131.291  0.00  0.00    -0.298 OA
ENDBRANCH  22  23
ENDBRANCH  21  22
ENDBRANCH  20  21
ENDBRANCH  19  20
ENDBRANCH  18  19
ENDBRANCH  17  18
ENDBRANCH  16  17
ENDBRANCH  15  16
ENDBRANCH  14  15
ENDBRANCH   1  14
TORSDOF 13
ENDMDL
