MODEL 1
REMARK VINA RESULT:      -5.4      0.000      0.000
REMARK  Name = NuBBE_1921
REMARK  6 active torsions:
REMARK  status: ('A' for Active; 'I' for Inactive)
REMARK    1  A    between atoms: C_1  and  C_8
REMARK    2  A    between atoms: C_1  and  C_10
REMARK    3  A    between atoms: C_2  and  C_3
REMARK    4  A    between atoms: C_3  and  C_4
REMARK    5  A    between atoms: C_5  and  C_6
REMARK    6  A    between atoms: C_5  and  C_7
REMARK                            x       y       z     vdW  Elec       q    Type
REMARK                         _______ _______ _______ _____ _____    ______ ____
ROOT
ATOM      1  C   LIG A   1      -5.592  -2.621 123.902  0.00  0.00    -0.055 C 
ATOM      2  C   LIG A   1      -5.655  -2.509 125.246  0.00  0.00    -0.020 C 
ATOM      3  C   LIG A   1      -6.544  -1.950 122.945  0.00  0.00    +0.043 C 
ENDROOT
BRANCH   1   4
ATOM      4  C   LIG A   1      -4.525  -3.431 123.308  0.00  0.00    -0.005 C 
ATOM      5  C   LIG A   1      -4.276  -4.719 123.569  0.00  0.00    +0.008 C 
ENDBRANCH   1   4
BRANCH   2   6
ATOM      6  C   LIG A   1      -6.585  -1.669 126.077  0.00  0.00    +0.054 C 
BRANCH   6   7
ATOM      7  C   LIG A   1      -7.345  -2.473 127.096  0.00  0.00    -0.024 C 
ATOM      8  C   LIG A   1      -8.527  -3.102 126.932  0.00  0.00    -0.079 C 
ATOM      9  C   LIG A   1      -9.378  -3.008 125.695  0.00  0.00    +0.038 C 
ATOM     10  C   LIG A   1      -9.100  -3.970 128.022  0.00  0.00    +0.038 C 
ENDBRANCH   6   7
ENDBRANCH   2   6
TORSDOF 3
ENDMDL
MODEL 2
REMARK VINA RESULT:      -5.2     11.734     13.271
REMARK  Name = NuBBE_1921
REMARK  6 active torsions:
REMARK  status: ('A' for Active; 'I' for Inactive)
REMARK    1  A    between atoms: C_1  and  C_8
REMARK    2  A    between atoms: C_1  and  C_10
REMARK    3  A    between atoms: C_2  and  C_3
REMARK    4  A    between atoms: C_3  and  C_4
REMARK    5  A    between atoms: C_5  and  C_6
REMARK    6  A    between atoms: C_5  and  C_7
REMARK                            x       y       z     vdW  Elec       q    Type
REMARK                         _______ _______ _______ _____ _____    ______ ____
ROOT
ATOM      1  C   LIG A   1     -12.852   8.714 128.498  0.00  0.00    -0.055 C 
ATOM      2  C   LIG A   1     -11.514   8.699 128.670  0.00  0.00    -0.020 C 
ATOM      3  C   LIG A   1     -13.667   7.531 128.039  0.00  0.00    +0.043 C 
ENDROOT
BRANCH   1   4
ATOM      4  C   LIG A   1     -13.589   9.949 128.785  0.00  0.00    -0.005 C 
ATOM      5  C   LIG A   1     -13.421  10.734 129.853  0.00  0.00    +0.008 C 
ENDBRANCH   1   4
BRANCH   2   6
ATOM      6  C   LIG A   1     -10.562   7.542 128.536  0.00  0.00    +0.054 C 
BRANCH   6   7
ATOM      7  C   LIG A   1      -9.824   7.243 129.813  0.00  0.00    -0.024 C 
ATOM      8  C   LIG A   1     -10.294   6.600 130.903  0.00  0.00    -0.079 C 
ATOM      9  C   LIG A   1     -11.720   6.160 131.085  0.00  0.00    +0.038 C 
ATOM     10  C   LIG A   1      -9.384   6.274 132.059  0.00  0.00    +0.038 C 
ENDBRANCH   6   7
ENDBRANCH   2   6
TORSDOF 3
ENDMDL
MODEL 3
REMARK VINA RESULT:      -4.9      1.284      4.904
REMARK  Name = NuBBE_1921
REMARK  6 active torsions:
REMARK  status: ('A' for Active; 'I' for Inactive)
REMARK    1  A    between atoms: C_1  and  C_8
REMARK    2  A    between atoms: C_1  and  C_10
REMARK    3  A    between atoms: C_2  and  C_3
REMARK    4  A    between atoms: C_3  and  C_4
REMARK    5  A    between atoms: C_5  and  C_6
REMARK    6  A    between atoms: C_5  and  C_7
REMARK                            x       y       z     vdW  Elec       q    Type
REMARK                         _______ _______ _______ _____ _____    ______ ____
ROOT
ATOM      1  C   LIG A   1      -8.235  -2.902 127.492  0.00  0.00    -0.055 C 
ATOM      2  C   LIG A   1      -8.606  -3.618 126.409  0.00  0.00    -0.020 C 
ATOM      3  C   LIG A   1      -7.503  -1.585 127.435  0.00  0.00    +0.043 C 
ENDROOT
BRANCH   1   4
ATOM      4  C   LIG A   1      -8.569  -3.411 128.826  0.00  0.00    -0.005 C 
ATOM      5  C   LIG A   1      -7.886  -3.177 129.951  0.00  0.00    +0.008 C 
ENDBRANCH   1   4
BRANCH   2   6
ATOM      6  C   LIG A   1      -8.465  -3.263 124.955  0.00  0.00    +0.054 C 
BRANCH   6   7
ATOM      7  C   LIG A   1      -7.175  -3.754 124.356  0.00  0.00    -0.024 C 
ATOM      8  C   LIG A   1      -6.079  -3.026 124.055  0.00  0.00    -0.079 C 
ATOM      9  C   LIG A   1      -5.995  -1.528 124.159  0.00  0.00    +0.038 C 
ATOM     10  C   LIG A   1      -4.819  -3.693 123.568  0.00  0.00    +0.038 C 
ENDBRANCH   6   7
ENDBRANCH   2   6
TORSDOF 3
ENDMDL
MODEL 4
REMARK VINA RESULT:      -4.7      2.286      4.854
REMARK  Name = NuBBE_1921
REMARK  6 active torsions:
REMARK  status: ('A' for Active; 'I' for Inactive)
REMARK    1  A    between atoms: C_1  and  C_8
REMARK    2  A    between atoms: C_1  and  C_10
REMARK    3  A    between atoms: C_2  and  C_3
REMARK    4  A    between atoms: C_3  and  C_4
REMARK    5  A    between atoms: C_5  and  C_6
REMARK    6  A    between atoms: C_5  and  C_7
REMARK                            x       y       z     vdW  Elec       q    Type
REMARK                         _______ _______ _______ _____ _____    ______ ____
ROOT
ATOM      1  C   LIG A   1      -8.224  -3.245 126.487  0.00  0.00    -0.055 C 
ATOM      2  C   LIG A   1      -8.678  -3.682 125.293  0.00  0.00    -0.020 C 
ATOM      3  C   LIG A   1      -7.097  -2.259 126.662  0.00  0.00    +0.043 C 
ENDROOT
BRANCH   1   4
ATOM      4  C   LIG A   1      -8.863  -3.738 127.710  0.00  0.00    -0.005 C 
ATOM      5  C   LIG A   1      -8.509  -3.428 128.962  0.00  0.00    +0.008 C 
ENDBRANCH   1   4
BRANCH   2   6
ATOM      6  C   LIG A   1      -8.257  -3.255 123.913  0.00  0.00    +0.054 C 
BRANCH   6   7
ATOM      7  C   LIG A   1      -9.209  -2.271 123.290  0.00  0.00    -0.024 C 
ATOM      8  C   LIG A   1      -9.021  -0.946 123.111  0.00  0.00    -0.079 C 
ATOM      9  C   LIG A   1      -7.838  -0.175 123.627  0.00  0.00    +0.038 C 
ATOM     10  C   LIG A   1     -10.030  -0.117 122.358  0.00  0.00    +0.038 C 
ENDBRANCH   6   7
ENDBRANCH   2   6
TORSDOF 3
ENDMDL
MODEL 5
REMARK VINA RESULT:      -4.6     11.519     12.663
REMARK  Name = NuBBE_1921
REMARK  6 active torsions:
REMARK  status: ('A' for Active; 'I' for Inactive)
REMARK    1  A    between atoms: C_1  and  C_8
REMARK    2  A    between atoms: C_1  and  C_10
REMARK    3  A    between atoms: C_2  and  C_3
REMARK    4  A    between atoms: C_3  and  C_4
REMARK    5  A    between atoms: C_5  and  C_6
REMARK    6  A    between atoms: C_5  and  C_7
REMARK                            x       y       z     vdW  Elec       q    Type
REMARK                         _______ _______ _______ _____ _____    ______ ____
ROOT
ATOM      1  C   LIG A   1     -12.217   7.578 130.050  0.00  0.00    -0.055 C 
ATOM      2  C   LIG A   1     -10.946   7.142 129.925  0.00  0.00    -0.020 C 
ATOM      3  C   LIG A   1     -13.003   7.556 131.337  0.00  0.00    +0.043 C 
ENDROOT
BRANCH   1   4
ATOM      4  C   LIG A   1     -12.897   8.128 128.874  0.00  0.00    -0.005 C 
ATOM      5  C   LIG A   1     -13.177   7.467 127.746  0.00  0.00    +0.008 C 
ENDBRANCH   1   4
BRANCH   2   6
ATOM      6  C   LIG A   1     -10.017   6.633 130.992  0.00  0.00    +0.054 C 
BRANCH   6   7
ATOM      7  C   LIG A   1      -8.582   7.014 130.748  0.00  0.00    -0.024 C 
ATOM      8  C   LIG A   1      -7.494   6.607 131.437  0.00  0.00    -0.079 C 
ATOM      9  C   LIG A   1      -7.540   5.769 132.684  0.00  0.00    +0.038 C 
ATOM     10  C   LIG A   1      -6.108   6.989 130.987  0.00  0.00    +0.038 C 
ENDBRANCH   6   7
ENDBRANCH   2   6
TORSDOF 3
ENDMDL
MODEL 6
REMARK VINA RESULT:      -4.6      2.926      4.117
REMARK  Name = NuBBE_1921
REMARK  6 active torsions:
REMARK  status: ('A' for Active; 'I' for Inactive)
REMARK    1  A    between atoms: C_1  and  C_8
REMARK    2  A    between atoms: C_1  and  C_10
REMARK    3  A    between atoms: C_2  and  C_3
REMARK    4  A    between atoms: C_3  and  C_4
REMARK    5  A    between atoms: C_5  and  C_6
REMARK    6  A    between atoms: C_5  and  C_7
REMARK                            x       y       z     vdW  Elec       q    Type
REMARK                         _______ _______ _______ _____ _____    ______ ____
ROOT
ATOM      1  C   LIG A   1      -8.715  -2.742 125.982  0.00  0.00    -0.055 C 
ATOM      2  C   LIG A   1      -8.409  -3.331 127.158  0.00  0.00    -0.020 C 
ATOM      3  C   LIG A   1      -8.975  -1.267 125.808  0.00  0.00    +0.043 C 
ENDROOT
BRANCH   1   4
ATOM      4  C   LIG A   1      -8.791  -3.570 124.775  0.00  0.00    -0.005 C 
ATOM      5  C   LIG A   1      -9.402  -3.240 123.632  0.00  0.00    +0.008 C 
ENDBRANCH   1   4
BRANCH   2   6
ATOM      6  C   LIG A   1      -8.179  -2.689 128.499  0.00  0.00    +0.054 C 
BRANCH   6   7
ATOM      7  C   LIG A   1      -7.490  -3.604 129.474  0.00  0.00    -0.024 C 
ATOM      8  C   LIG A   1      -6.173  -3.654 129.766  0.00  0.00    -0.079 C 
ATOM      9  C   LIG A   1      -5.112  -2.858 129.057  0.00  0.00    +0.038 C 
ATOM     10  C   LIG A   1      -5.658  -4.552 130.861  0.00  0.00    +0.038 C 
ENDBRANCH   6   7
ENDBRANCH   2   6
TORSDOF 3
ENDMDL
MODEL 7
REMARK VINA RESULT:      -4.4      2.800      4.690
REMARK  Name = NuBBE_1921
REMARK  6 active torsions:
REMARK  status: ('A' for Active; 'I' for Inactive)
REMARK    1  A    between atoms: C_1  and  C_8
REMARK    2  A    between atoms: C_1  and  C_10
REMARK    3  A    between atoms: C_2  and  C_3
REMARK    4  A    between atoms: C_3  and  C_4
REMARK    5  A    between atoms: C_5  and  C_6
REMARK    6  A    between atoms: C_5  and  C_7
REMARK                            x       y       z     vdW  Elec       q    Type
REMARK                         _______ _______ _______ _____ _____    ______ ____
ROOT
ATOM      1  C   LIG A   1      -8.426  -2.902 124.393  0.00  0.00    -0.055 C 
ATOM      2  C   LIG A   1      -7.490  -1.936 124.284  0.00  0.00    -0.020 C 
ATOM      3  C   LIG A   1      -9.487  -3.184 123.360  0.00  0.00    +0.043 C 
ENDROOT
BRANCH   1   4
ATOM      4  C   LIG A   1      -8.422  -3.760 125.582  0.00  0.00    -0.005 C 
ATOM      5  C   LIG A   1      -8.937  -3.451 126.777  0.00  0.00    +0.008 C 
ENDBRANCH   1   4
BRANCH   2   6
ATOM      6  C   LIG A   1      -7.231  -1.004 123.131  0.00  0.00    +0.054 C 
BRANCH   6   7
ATOM      7  C   LIG A   1      -7.548   0.430 123.457  0.00  0.00    -0.024 C 
ATOM      8  C   LIG A   1      -8.732   1.063 123.318  0.00  0.00    -0.079 C 
ATOM      9  C   LIG A   1      -9.952   0.458 122.682  0.00  0.00    +0.038 C 
ATOM     10  C   LIG A   1      -8.914   2.477 123.805  0.00  0.00    +0.038 C 
ENDBRANCH   6   7
ENDBRANCH   2   6
TORSDOF 3
ENDMDL
MODEL 8
REMARK VINA RESULT:      -4.4      2.346      2.715
REMARK  Name = NuBBE_1921
REMARK  6 active torsions:
REMARK  status: ('A' for Active; 'I' for Inactive)
REMARK    1  A    between atoms: C_1  and  C_8
REMARK    2  A    between atoms: C_1  and  C_10
REMARK    3  A    between atoms: C_2  and  C_3
REMARK    4  A    between atoms: C_3  and  C_4
REMARK    5  A    between atoms: C_5  and  C_6
REMARK    6  A    between atoms: C_5  and  C_7
REMARK                            x       y       z     vdW  Elec       q    Type
REMARK                         _______ _______ _______ _____ _____    ______ ____
ROOT
ATOM      1  C   LIG A   1      -5.598  -2.705 123.999  0.00  0.00    -0.055 C 
ATOM      2  C   LIG A   1      -5.497  -2.047 125.174  0.00  0.00    -0.020 C 
ATOM      3  C   LIG A   1      -6.080  -2.084 122.712  0.00  0.00    +0.043 C 
ENDROOT
BRANCH   1   4
ATOM      4  C   LIG A   1      -5.203  -4.115 123.941  0.00  0.00    -0.005 C 
ATOM      5  C   LIG A   1      -4.029  -4.586 123.509  0.00  0.00    +0.008 C 
ENDBRANCH   1   4
BRANCH   2   6
ATOM      6  C   LIG A   1      -5.746  -0.592 125.461  0.00  0.00    +0.054 C 
BRANCH   6   7
ATOM      7  C   LIG A   1      -7.173  -0.308 125.843  0.00  0.00    -0.024 C 
ATOM      8  C   LIG A   1      -8.104   0.349 125.119  0.00  0.00    -0.079 C 
ATOM      9  C   LIG A   1      -7.835   1.038 123.810  0.00  0.00    +0.038 C 
ATOM     10  C   LIG A   1      -9.529   0.446 125.598  0.00  0.00    +0.038 C 
ENDBRANCH   6   7
ENDBRANCH   2   6
TORSDOF 3
ENDMDL
MODEL 9
REMARK VINA RESULT:      -4.3      2.637      5.151
REMARK  Name = NuBBE_1921
REMARK  6 active torsions:
REMARK  status: ('A' for Active; 'I' for Inactive)
REMARK    1  A    between atoms: C_1  and  C_8
REMARK    2  A    between atoms: C_1  and  C_10
REMARK    3  A    between atoms: C_2  and  C_3
REMARK    4  A    between atoms: C_3  and  C_4
REMARK    5  A    between atoms: C_5  and  C_6
REMARK    6  A    between atoms: C_5  and  C_7
REMARK                            x       y       z     vdW  Elec       q    Type
REMARK                         _______ _______ _______ _____ _____    ______ ____
ROOT
ATOM      1  C   LIG A   1      -7.086  -3.094 130.004  0.00  0.00    -0.055 C 
ATOM      2  C   LIG A   1      -7.682  -3.862 129.067  0.00  0.00    -0.020 C 
ATOM      3  C   LIG A   1      -7.620  -1.771 130.490  0.00  0.00    +0.043 C 
ENDROOT
BRANCH   1   4
ATOM      4  C   LIG A   1      -5.840  -3.565 130.616  0.00  0.00    -0.005 C 
ATOM      5  C   LIG A   1      -5.498  -4.842 130.822  0.00  0.00    +0.008 C 
ENDBRANCH   1   4
BRANCH   2   6
ATOM      6  C   LIG A   1      -8.999  -3.644 128.373  0.00  0.00    +0.054 C 
BRANCH   6   7
ATOM      7  C   LIG A   1      -8.899  -3.774 126.877  0.00  0.00    -0.024 C 
ATOM      8  C   LIG A   1      -8.584  -2.810 125.987  0.00  0.00    -0.079 C 
ATOM      9  C   LIG A   1      -8.388  -1.360 126.334  0.00  0.00    +0.038 C 
ATOM     10  C   LIG A   1      -8.410  -3.134 124.526  0.00  0.00    +0.038 C 
ENDBRANCH   6   7
ENDBRANCH   2   6
TORSDOF 3
ENDMDL
