MODEL 1
REMARK VINA RESULT:      -6.1      0.000      0.000
REMARK  Name = NuBBE_1019
REMARK  11 active torsions:
REMARK  status: ('A' for Active; 'I' for Inactive)
REMARK    1  A    between atoms: C_1  and  O_2
REMARK    2  A    between atoms: O_2  and  C_3
REMARK    3  A    between atoms: C_7  and  C_8
REMARK    4  A    between atoms: C_7  and  C_9
REMARK    5  A    between atoms: C_13  and  O_14
REMARK    6  A    between atoms: O_14  and  C_15
REMARK    7  A    between atoms: C_16  and  C_17
REMARK    8  A    between atoms: C_17  and  C_18
REMARK    9  A    between atoms: C_18  and  C_19
REMARK   10  A    between atoms: C_19  and  O_20
REMARK   11  A    between atoms: O_20  and  C_21
REMARK                            x       y       z     vdW  Elec       q    Type
REMARK                         _______ _______ _______ _____ _____    ______ ____
ROOT
ATOM      1  C   LIG A   1      -7.387   1.862 123.759  0.00  0.00    +0.130 A 
ATOM      2  C   LIG A   1      -7.382   0.527 123.367  0.00  0.00    +0.092 A 
ATOM      3  C   LIG A   1      -7.968  -0.455 124.153  0.00  0.00    +0.136 A 
ATOM      4  O   LIG A   1      -7.836  -1.712 123.643  0.00  0.00    -0.481 OA
ATOM      5  C   LIG A   1      -8.532  -2.792 124.277  0.00  0.00    +0.123 C 
ATOM      6  C   LIG A   1      -9.584  -3.267 123.269  0.00  0.00    +0.060 C 
ATOM      7  C   LIG A   1      -7.484  -3.889 124.494  0.00  0.00    +0.060 C 
ATOM      8  C   LIG A   1      -9.170  -2.454 125.604  0.00  0.00    +0.020 C 
ATOM      9  C   LIG A   1      -9.171  -1.224 126.131  0.00  0.00    +0.015 C 
ATOM     10  C   LIG A   1      -8.589  -0.133 125.357  0.00  0.00    +0.059 A 
ATOM     11  C   LIG A   1      -8.619   1.220 125.755  0.00  0.00    +0.137 A 
ATOM     12  C   LIG A   1      -8.020   2.230 124.964  0.00  0.00    +0.037 A 
ENDROOT
BRANCH   1  14
ATOM     13  C   LIG A   1      -7.469   3.245 121.830  0.00  0.00    +0.277 C 
ATOM     14  O   LIG A   1      -6.789   2.857 123.024  0.00  0.00    -0.495 OA
ENDBRANCH   1  14
BRANCH  11  15
ATOM     15  O   LIG A   1      -9.130   1.578 126.981  0.00  0.00    -0.494 OA
ATOM     16  C   LIG A   1      -8.233   1.292 128.053  0.00  0.00    +0.277 C 
ENDBRANCH  11  15
BRANCH  12  17
ATOM     17  C   LIG A   1      -8.114   3.693 125.356  0.00  0.00    +0.054 C 
BRANCH  17  18
ATOM     18  C   LIG A   1      -6.930   4.087 126.232  0.00  0.00    +0.125 C 
BRANCH  18  19
ATOM     19  C   LIG A   1      -5.937   4.944 125.486  0.00  0.00    +0.307 C 
ATOM     20  O   LIG A   1      -6.141   6.045 125.024  0.00  0.00    -0.251 OA
BRANCH  19  21
ATOM     21  O   LIG A   1      -4.808   4.197 125.299  0.00  0.00    -0.468 OA
ATOM     22  C   LIG A   1      -4.602   3.184 126.281  0.00  0.00    +0.280 C 
ENDBRANCH  19  21
ENDBRANCH  18  19
ENDBRANCH  17  18
ENDBRANCH  12  17
TORSDOF 6
ENDMDL
MODEL 2
REMARK VINA RESULT:      -6.0      2.723      4.602
REMARK  Name = NuBBE_1019
REMARK  11 active torsions:
REMARK  status: ('A' for Active; 'I' for Inactive)
REMARK    1  A    between atoms: C_1  and  O_2
REMARK    2  A    between atoms: O_2  and  C_3
REMARK    3  A    between atoms: C_7  and  C_8
REMARK    4  A    between atoms: C_7  and  C_9
REMARK    5  A    between atoms: C_13  and  O_14
REMARK    6  A    between atoms: O_14  and  C_15
REMARK    7  A    between atoms: C_16  and  C_17
REMARK    8  A    between atoms: C_17  and  C_18
REMARK    9  A    between atoms: C_18  and  C_19
REMARK   10  A    between atoms: C_19  and  O_20
REMARK   11  A    between atoms: O_20  and  C_21
REMARK                            x       y       z     vdW  Elec       q    Type
REMARK                         _______ _______ _______ _____ _____    ______ ____
ROOT
ATOM      1  C   LIG A   1      -6.870   0.060 125.645  0.00  0.00    +0.130 A 
ATOM      2  C   LIG A   1      -6.491  -0.340 126.923  0.00  0.00    +0.092 A 
ATOM      3  C   LIG A   1      -7.101  -1.417 127.549  0.00  0.00    +0.136 A 
ATOM      4  O   LIG A   1      -6.641  -1.648 128.811  0.00  0.00    -0.481 OA
ATOM      5  C   LIG A   1      -7.077  -2.825 129.503  0.00  0.00    +0.123 C 
ATOM      6  C   LIG A   1      -5.834  -3.708 129.659  0.00  0.00    +0.060 C 
ATOM      7  C   LIG A   1      -7.552  -2.344 130.878  0.00  0.00    +0.060 C 
ATOM      8  C   LIG A   1      -8.198  -3.584 128.834  0.00  0.00    +0.020 C 
ATOM      9  C   LIG A   1      -8.708  -3.251 127.642  0.00  0.00    +0.015 C 
ATOM     10  C   LIG A   1      -8.108  -2.140 126.913  0.00  0.00    +0.059 A 
ATOM     11  C   LIG A   1      -8.486  -1.757 125.609  0.00  0.00    +0.137 A 
ATOM     12  C   LIG A   1      -7.874  -0.656 124.962  0.00  0.00    +0.037 A 
ENDROOT
BRANCH   1  14
ATOM     13  C   LIG A   1      -6.015   2.267 125.833  0.00  0.00    +0.277 C 
ATOM     14  O   LIG A   1      -6.312   1.141 125.007  0.00  0.00    -0.495 OA
ENDBRANCH   1  14
BRANCH  11  15
ATOM     15  O   LIG A   1      -9.542  -2.372 124.977  0.00  0.00    -0.494 OA
ATOM     16  C   LIG A   1      -9.128  -3.453 124.144  0.00  0.00    +0.277 C 
ENDBRANCH  11  15
BRANCH  12  17
ATOM     17  C   LIG A   1      -8.230  -0.288 123.534  0.00  0.00    +0.054 C 
BRANCH  17  18
ATOM     18  C   LIG A   1      -9.534   0.502 123.496  0.00  0.00    +0.125 C 
BRANCH  18  19
ATOM     19  C   LIG A   1      -9.305   1.979 123.705  0.00  0.00    +0.307 C 
ATOM     20  O   LIG A   1      -9.397   2.581 124.752  0.00  0.00    -0.251 OA
BRANCH  19  21
ATOM     21  O   LIG A   1      -9.114   2.542 122.475  0.00  0.00    -0.468 OA
ATOM     22  C   LIG A   1      -7.838   3.153 122.298  0.00  0.00    +0.280 C 
ENDBRANCH  19  21
ENDBRANCH  18  19
ENDBRANCH  17  18
ENDBRANCH  12  17
TORSDOF 6
ENDMDL
MODEL 3
REMARK VINA RESULT:      -6.0      3.344      5.475
REMARK  Name = NuBBE_1019
REMARK  11 active torsions:
REMARK  status: ('A' for Active; 'I' for Inactive)
REMARK    1  A    between atoms: C_1  and  O_2
REMARK    2  A    between atoms: O_2  and  C_3
REMARK    3  A    between atoms: C_7  and  C_8
REMARK    4  A    between atoms: C_7  and  C_9
REMARK    5  A    between atoms: C_13  and  O_14
REMARK    6  A    between atoms: O_14  and  C_15
REMARK    7  A    between atoms: C_16  and  C_17
REMARK    8  A    between atoms: C_17  and  C_18
REMARK    9  A    between atoms: C_18  and  C_19
REMARK   10  A    between atoms: C_19  and  O_20
REMARK   11  A    between atoms: O_20  and  C_21
REMARK                            x       y       z     vdW  Elec       q    Type
REMARK                         _______ _______ _______ _____ _____    ______ ____
ROOT
ATOM      1  C   LIG A   1      -8.574  -2.324 125.755  0.00  0.00    +0.130 A 
ATOM      2  C   LIG A   1      -8.497  -2.928 127.007  0.00  0.00    +0.092 A 
ATOM      3  C   LIG A   1      -7.387  -2.756 127.820  0.00  0.00    +0.136 A 
ATOM      4  O   LIG A   1      -7.456  -3.450 128.991  0.00  0.00    -0.481 OA
ATOM      5  C   LIG A   1      -6.447  -3.234 129.985  0.00  0.00    +0.123 C 
ATOM      6  C   LIG A   1      -7.156  -2.567 131.169  0.00  0.00    +0.060 C 
ATOM      7  C   LIG A   1      -5.956  -4.628 130.388  0.00  0.00    +0.060 C 
ATOM      8  C   LIG A   1      -5.265  -2.411 129.531  0.00  0.00    +0.020 C 
ATOM      9  C   LIG A   1      -5.180  -1.844 128.321  0.00  0.00    +0.015 C 
ATOM     10  C   LIG A   1      -6.316  -1.964 127.414  0.00  0.00    +0.059 A 
ATOM     11  C   LIG A   1      -6.391  -1.329 126.156  0.00  0.00    +0.137 A 
ATOM     12  C   LIG A   1      -7.517  -1.502 125.315  0.00  0.00    +0.037 A 
ENDROOT
BRANCH   1  14
ATOM     13  C   LIG A   1      -9.475  -3.482 123.888  0.00  0.00    +0.277 C 
ATOM     14  O   LIG A   1      -9.642  -2.497 124.908  0.00  0.00    -0.495 OA
ENDBRANCH   1  14
BRANCH  11  15
ATOM     15  O   LIG A   1      -5.319  -0.620 125.665  0.00  0.00    -0.494 OA
ATOM     16  C   LIG A   1      -5.264   0.711 126.175  0.00  0.00    +0.277 C 
ENDBRANCH  11  15
BRANCH  12  17
ATOM     17  C   LIG A   1      -7.629  -0.763 123.994  0.00  0.00    +0.054 C 
BRANCH  17  18
ATOM     18  C   LIG A   1      -8.368   0.558 124.184  0.00  0.00    +0.125 C 
BRANCH  18  19
ATOM     19  C   LIG A   1      -9.506   0.712 123.205  0.00  0.00    +0.307 C 
ATOM     20  O   LIG A   1     -10.086  -0.180 122.628  0.00  0.00    -0.251 OA
BRANCH  19  21
ATOM     21  O   LIG A   1      -9.672   2.050 122.977  0.00  0.00    -0.468 OA
ATOM     22  C   LIG A   1      -8.460   2.764 122.750  0.00  0.00    +0.280 C 
ENDBRANCH  19  21
ENDBRANCH  18  19
ENDBRANCH  17  18
ENDBRANCH  12  17
TORSDOF 6
ENDMDL
MODEL 4
REMARK VINA RESULT:      -5.9      1.720      5.959
REMARK  Name = NuBBE_1019
REMARK  11 active torsions:
REMARK  status: ('A' for Active; 'I' for Inactive)
REMARK    1  A    between atoms: C_1  and  O_2
REMARK    2  A    between atoms: O_2  and  C_3
REMARK    3  A    between atoms: C_7  and  C_8
REMARK    4  A    between atoms: C_7  and  C_9
REMARK    5  A    between atoms: C_13  and  O_14
REMARK    6  A    between atoms: O_14  and  C_15
REMARK    7  A    between atoms: C_16  and  C_17
REMARK    8  A    between atoms: C_17  and  C_18
REMARK    9  A    between atoms: C_18  and  C_19
REMARK   10  A    between atoms: C_19  and  O_20
REMARK   11  A    between atoms: O_20  and  C_21
REMARK                            x       y       z     vdW  Elec       q    Type
REMARK                         _______ _______ _______ _____ _____    ______ ____
ROOT
ATOM      1  C   LIG A   1      -6.597   3.218 124.016  0.00  0.00    +0.130 A 
ATOM      2  C   LIG A   1      -5.404   3.760 124.485  0.00  0.00    +0.092 A 
ATOM      3  C   LIG A   1      -4.874   3.379 125.708  0.00  0.00    +0.136 A 
ATOM      4  O   LIG A   1      -3.725   4.037 126.033  0.00  0.00    -0.481 OA
ATOM      5  C   LIG A   1      -2.996   3.623 127.196  0.00  0.00    +0.123 C 
ATOM      6  C   LIG A   1      -1.673   3.045 126.680  0.00  0.00    +0.060 C 
ATOM      7  C   LIG A   1      -2.731   4.903 127.995  0.00  0.00    +0.060 C 
ATOM      8  C   LIG A   1      -3.710   2.630 128.081  0.00  0.00    +0.020 C 
ATOM      9  C   LIG A   1      -4.901   2.097 127.783  0.00  0.00    +0.015 C 
ATOM     10  C   LIG A   1      -5.515   2.434 126.504  0.00  0.00    +0.059 A 
ATOM     11  C   LIG A   1      -6.715   1.861 126.031  0.00  0.00    +0.137 A 
ATOM     12  C   LIG A   1      -7.268   2.246 124.786  0.00  0.00    +0.037 A 
ENDROOT
BRANCH   1  14
ATOM     13  C   LIG A   1      -6.324   3.521 121.677  0.00  0.00    +0.277 C 
ATOM     14  O   LIG A   1      -7.169   3.594 122.825  0.00  0.00    -0.495 OA
ENDBRANCH   1  14
BRANCH  11  15
ATOM     15  O   LIG A   1      -7.439   1.000 126.822  0.00  0.00    -0.494 OA
ATOM     16  C   LIG A   1      -8.382   1.678 127.650  0.00  0.00    +0.277 C 
ENDBRANCH  11  15
BRANCH  12  17
ATOM     17  C   LIG A   1      -8.519   1.579 124.244  0.00  0.00    +0.054 C 
BRANCH  17  18
ATOM     18  C   LIG A   1      -8.155   0.331 123.447  0.00  0.00    +0.125 C 
BRANCH  18  19
ATOM     19  C   LIG A   1      -9.366  -0.517 123.144  0.00  0.00    +0.307 C 
ATOM     20  O   LIG A   1     -10.252  -0.254 122.362  0.00  0.00    -0.251 OA
BRANCH  19  21
ATOM     21  O   LIG A   1      -9.359  -1.570 124.016  0.00  0.00    -0.468 OA
ATOM     22  C   LIG A   1      -8.553  -2.671 123.604  0.00  0.00    +0.280 C 
ENDBRANCH  19  21
ENDBRANCH  18  19
ENDBRANCH  17  18
ENDBRANCH  12  17
TORSDOF 6
ENDMDL
MODEL 5
REMARK VINA RESULT:      -5.9      1.205      3.158
REMARK  Name = NuBBE_1019
REMARK  11 active torsions:
REMARK  status: ('A' for Active; 'I' for Inactive)
REMARK    1  A    between atoms: C_1  and  O_2
REMARK    2  A    between atoms: O_2  and  C_3
REMARK    3  A    between atoms: C_7  and  C_8
REMARK    4  A    between atoms: C_7  and  C_9
REMARK    5  A    between atoms: C_13  and  O_14
REMARK    6  A    between atoms: O_14  and  C_15
REMARK    7  A    between atoms: C_16  and  C_17
REMARK    8  A    between atoms: C_17  and  C_18
REMARK    9  A    between atoms: C_18  and  C_19
REMARK   10  A    between atoms: C_19  and  O_20
REMARK   11  A    between atoms: O_20  and  C_21
REMARK                            x       y       z     vdW  Elec       q    Type
REMARK                         _______ _______ _______ _____ _____    ______ ____
ROOT
ATOM      1  C   LIG A   1      -8.487   1.502 126.727  0.00  0.00    +0.130 A 
ATOM      2  C   LIG A   1      -8.793   0.186 126.392  0.00  0.00    +0.092 A 
ATOM      3  C   LIG A   1      -8.297  -0.394 125.234  0.00  0.00    +0.136 A 
ATOM      4  O   LIG A   1      -8.727  -1.672 125.037  0.00  0.00    -0.481 OA
ATOM      5  C   LIG A   1      -8.163  -2.434 123.962  0.00  0.00    +0.123 C 
ATOM      6  C   LIG A   1      -7.365  -3.565 124.619  0.00  0.00    +0.060 C 
ATOM      7  C   LIG A   1      -9.357  -3.014 123.196  0.00  0.00    +0.060 C 
ATOM      8  C   LIG A   1      -7.299  -1.650 123.003  0.00  0.00    +0.020 C 
ATOM      9  C   LIG A   1      -6.999  -0.356 123.169  0.00  0.00    +0.015 C 
ATOM     10  C   LIG A   1      -7.468   0.320 124.372  0.00  0.00    +0.059 A 
ATOM     11  C   LIG A   1      -7.134   1.648 124.711  0.00  0.00    +0.137 A 
ATOM     12  C   LIG A   1      -7.638   2.253 125.888  0.00  0.00    +0.037 A 
ENDROOT
BRANCH   1  14
ATOM     13  C   LIG A   1      -8.488   1.641 129.097  0.00  0.00    +0.277 C 
ATOM     14  O   LIG A   1      -8.985   2.121 127.848  0.00  0.00    -0.495 OA
ENDBRANCH   1  14
BRANCH  11  15
ATOM     15  O   LIG A   1      -6.403   2.429 123.846  0.00  0.00    -0.494 OA
ATOM     16  C   LIG A   1      -7.221   3.100 122.889  0.00  0.00    +0.277 C 
ENDBRANCH  11  15
BRANCH  12  17
ATOM     17  C   LIG A   1      -7.222   3.656 126.289  0.00  0.00    +0.054 C 
BRANCH  17  18
ATOM     18  C   LIG A   1      -5.990   3.611 127.186  0.00  0.00    +0.125 C 
BRANCH  18  19
ATOM     19  C   LIG A   1      -4.916   4.562 126.717  0.00  0.00    +0.307 C 
ATOM     20  O   LIG A   1      -4.859   5.750 126.943  0.00  0.00    -0.251 OA
BRANCH  19  21
ATOM     21  O   LIG A   1      -4.096   3.870 125.871  0.00  0.00    -0.468 OA
ATOM     22  C   LIG A   1      -3.221   2.949 126.520  0.00  0.00    +0.280 C 
ENDBRANCH  19  21
ENDBRANCH  18  19
ENDBRANCH  17  18
ENDBRANCH  12  17
TORSDOF 6
ENDMDL
MODEL 6
REMARK VINA RESULT:      -5.8      2.297      3.628
REMARK  Name = NuBBE_1019
REMARK  11 active torsions:
REMARK  status: ('A' for Active; 'I' for Inactive)
REMARK    1  A    between atoms: C_1  and  O_2
REMARK    2  A    between atoms: O_2  and  C_3
REMARK    3  A    between atoms: C_7  and  C_8
REMARK    4  A    between atoms: C_7  and  C_9
REMARK    5  A    between atoms: C_13  and  O_14
REMARK    6  A    between atoms: O_14  and  C_15
REMARK    7  A    between atoms: C_16  and  C_17
REMARK    8  A    between atoms: C_17  and  C_18
REMARK    9  A    between atoms: C_18  and  C_19
REMARK   10  A    between atoms: C_19  and  O_20
REMARK   11  A    between atoms: O_20  and  C_21
REMARK                            x       y       z     vdW  Elec       q    Type
REMARK                         _______ _______ _______ _____ _____    ______ ____
ROOT
ATOM      1  C   LIG A   1      -5.439   1.107 127.077  0.00  0.00    +0.130 A 
ATOM      2  C   LIG A   1      -5.449  -0.241 126.728  0.00  0.00    +0.092 A 
ATOM      3  C   LIG A   1      -5.960  -0.663 125.510  0.00  0.00    +0.136 A 
ATOM      4  O   LIG A   1      -5.931  -2.016 125.346  0.00  0.00    -0.481 OA
ATOM      5  C   LIG A   1      -6.284  -2.566 124.070  0.00  0.00    +0.123 C 
ATOM      6  C   LIG A   1      -5.001  -3.191 123.511  0.00  0.00    +0.060 C 
ATOM      7  C   LIG A   1      -7.314  -3.662 124.363  0.00  0.00    +0.060 C 
ATOM      8  C   LIG A   1      -6.878  -1.583 123.089  0.00  0.00    +0.020 C 
ATOM      9  C   LIG A   1      -7.001  -0.274 123.338  0.00  0.00    +0.015 C 
ATOM     10  C   LIG A   1      -6.471   0.251 124.591  0.00  0.00    +0.059 A 
ATOM     11  C   LIG A   1      -6.447   1.621 124.924  0.00  0.00    +0.137 A 
ATOM     12  C   LIG A   1      -5.933   2.063 126.167  0.00  0.00    +0.037 A 
ENDROOT
BRANCH   1  14
ATOM     13  C   LIG A   1      -4.887   0.584 129.327  0.00  0.00    +0.277 C 
ATOM     14  O   LIG A   1      -4.971   1.559 128.287  0.00  0.00    -0.495 OA
ENDBRANCH   1  14
BRANCH  11  15
ATOM     15  O   LIG A   1      -7.031   2.553 124.098  0.00  0.00    -0.494 OA
ATOM     16  C   LIG A   1      -8.416   2.746 124.381  0.00  0.00    +0.277 C 
ENDBRANCH  11  15
BRANCH  12  17
ATOM     17  C   LIG A   1      -5.842   3.542 126.497  0.00  0.00    +0.054 C 
BRANCH  17  18
ATOM     18  C   LIG A   1      -4.471   4.090 126.114  0.00  0.00    +0.125 C 
BRANCH  18  19
ATOM     19  C   LIG A   1      -3.891   4.965 127.197  0.00  0.00    +0.307 C 
ATOM     20  O   LIG A   1      -4.293   6.056 127.534  0.00  0.00    -0.251 OA
BRANCH  19  21
ATOM     21  O   LIG A   1      -2.742   4.369 127.634  0.00  0.00    -0.468 OA
ATOM     22  C   LIG A   1      -2.154   3.465 126.701  0.00  0.00    +0.280 C 
ENDBRANCH  19  21
ENDBRANCH  18  19
ENDBRANCH  17  18
ENDBRANCH  12  17
TORSDOF 6
ENDMDL
MODEL 7
REMARK VINA RESULT:      -5.6      2.907      4.667
REMARK  Name = NuBBE_1019
REMARK  11 active torsions:
REMARK  status: ('A' for Active; 'I' for Inactive)
REMARK    1  A    between atoms: C_1  and  O_2
REMARK    2  A    between atoms: O_2  and  C_3
REMARK    3  A    between atoms: C_7  and  C_8
REMARK    4  A    between atoms: C_7  and  C_9
REMARK    5  A    between atoms: C_13  and  O_14
REMARK    6  A    between atoms: O_14  and  C_15
REMARK    7  A    between atoms: C_16  and  C_17
REMARK    8  A    between atoms: C_17  and  C_18
REMARK    9  A    between atoms: C_18  and  C_19
REMARK   10  A    between atoms: C_19  and  O_20
REMARK   11  A    between atoms: O_20  and  C_21
REMARK                            x       y       z     vdW  Elec       q    Type
REMARK                         _______ _______ _______ _____ _____    ______ ____
ROOT
ATOM      1  C   LIG A   1      -8.854  -1.502 126.051  0.00  0.00    +0.130 A 
ATOM      2  C   LIG A   1      -8.217  -2.439 126.859  0.00  0.00    +0.092 A 
ATOM      3  C   LIG A   1      -7.416  -2.046 127.921  0.00  0.00    +0.136 A 
ATOM      4  O   LIG A   1      -6.836  -3.088 128.582  0.00  0.00    -0.481 OA
ATOM      5  C   LIG A   1      -6.114  -2.824 129.791  0.00  0.00    +0.123 C 
ATOM      6  C   LIG A   1      -6.914  -3.491 130.915  0.00  0.00    +0.060 C 
ATOM      7  C   LIG A   1      -4.761  -3.525 129.626  0.00  0.00    +0.060 C 
ATOM      8  C   LIG A   1      -5.876  -1.363 130.091  0.00  0.00    +0.020 C 
ATOM      9  C   LIG A   1      -6.364  -0.366 129.343  0.00  0.00    +0.015 C 
ATOM     10  C   LIG A   1      -7.231  -0.698 128.219  0.00  0.00    +0.059 A 
ATOM     11  C   LIG A   1      -7.888   0.261 127.420  0.00  0.00    +0.137 A 
ATOM     12  C   LIG A   1      -8.703  -0.128 126.330  0.00  0.00    +0.037 A 
ENDROOT
BRANCH   1  14
ATOM     13  C   LIG A   1      -9.030  -2.759 124.044  0.00  0.00    +0.277 C 
ATOM     14  O   LIG A   1      -9.628  -1.852 124.971  0.00  0.00    -0.495 OA
ENDBRANCH   1  14
BRANCH  11  15
ATOM     15  O   LIG A   1      -7.658   1.604 127.608  0.00  0.00    -0.494 OA
ATOM     16  C   LIG A   1      -8.515   2.173 128.596  0.00  0.00    +0.277 C 
ENDBRANCH  11  15
BRANCH  12  17
ATOM     17  C   LIG A   1      -9.466   0.899 125.514  0.00  0.00    +0.054 C 
BRANCH  17  18
ATOM     18  C   LIG A   1      -8.575   1.483 124.424  0.00  0.00    +0.125 C 
BRANCH  18  19
ATOM     19  C   LIG A   1      -8.635   2.991 124.393  0.00  0.00    +0.307 C 
ATOM     20  O   LIG A   1      -8.956   3.717 125.307  0.00  0.00    -0.251 OA
BRANCH  19  21
ATOM     21  O   LIG A   1      -8.400   3.384 123.106  0.00  0.00    -0.468 OA
ATOM     22  C   LIG A   1      -9.042   2.582 122.117  0.00  0.00    +0.280 C 
ENDBRANCH  19  21
ENDBRANCH  18  19
ENDBRANCH  17  18
ENDBRANCH  12  17
TORSDOF 6
ENDMDL
MODEL 8
REMARK VINA RESULT:      -5.6      1.965      2.266
REMARK  Name = NuBBE_1019
REMARK  11 active torsions:
REMARK  status: ('A' for Active; 'I' for Inactive)
REMARK    1  A    between atoms: C_1  and  O_2
REMARK    2  A    between atoms: O_2  and  C_3
REMARK    3  A    between atoms: C_7  and  C_8
REMARK    4  A    between atoms: C_7  and  C_9
REMARK    5  A    between atoms: C_13  and  O_14
REMARK    6  A    between atoms: O_14  and  C_15
REMARK    7  A    between atoms: C_16  and  C_17
REMARK    8  A    between atoms: C_17  and  C_18
REMARK    9  A    between atoms: C_18  and  C_19
REMARK   10  A    between atoms: C_19  and  O_20
REMARK   11  A    between atoms: O_20  and  C_21
REMARK                            x       y       z     vdW  Elec       q    Type
REMARK                         _______ _______ _______ _____ _____    ______ ____
ROOT
ATOM      1  C   LIG A   1      -7.172   2.061 123.891  0.00  0.00    +0.130 A 
ATOM      2  C   LIG A   1      -7.093   0.758 123.409  0.00  0.00    +0.092 A 
ATOM      3  C   LIG A   1      -6.581  -0.267 124.190  0.00  0.00    +0.136 A 
ATOM      4  O   LIG A   1      -6.536  -1.470 123.551  0.00  0.00    -0.481 OA
ATOM      5  C   LIG A   1      -6.176  -2.638 124.299  0.00  0.00    +0.123 C 
ATOM      6  C   LIG A   1      -7.431  -3.516 124.341  0.00  0.00    +0.060 C 
ATOM      7  C   LIG A   1      -5.081  -3.331 123.481  0.00  0.00    +0.060 C 
ATOM      8  C   LIG A   1      -5.655  -2.373 125.691  0.00  0.00    +0.020 C 
ATOM      9  C   LIG A   1      -5.601  -1.154 126.240  0.00  0.00    +0.015 C 
ATOM     10  C   LIG A   1      -6.138  -0.026 125.488  0.00  0.00    +0.059 A 
ATOM     11  C   LIG A   1      -6.232   1.287 125.996  0.00  0.00    +0.137 A 
ATOM     12  C   LIG A   1      -6.748   2.342 125.206  0.00  0.00    +0.037 A 
ENDROOT
BRANCH   1  14
ATOM     13  C   LIG A   1      -6.963   3.341 121.901  0.00  0.00    +0.277 C 
ATOM     14  O   LIG A   1      -7.643   3.108 123.135  0.00  0.00    -0.495 OA
ENDBRANCH   1  14
BRANCH  11  15
ATOM     15  O   LIG A   1      -5.716   1.598 127.233  0.00  0.00    -0.494 OA
ATOM     16  C   LIG A   1      -6.656   1.392 128.286  0.00  0.00    +0.277 C 
ENDBRANCH  11  15
BRANCH  12  17
ATOM     17  C   LIG A   1      -6.916   3.739 125.775  0.00  0.00    +0.054 C 
BRANCH  17  18
ATOM     18  C   LIG A   1      -5.673   4.578 125.503  0.00  0.00    +0.125 C 
BRANCH  18  19
ATOM     19  C   LIG A   1      -4.866   4.814 126.756  0.00  0.00    +0.307 C 
ATOM     20  O   LIG A   1      -3.664   4.720 126.867  0.00  0.00    -0.251 OA
BRANCH  19  21
ATOM     21  O   LIG A   1      -5.749   5.013 127.781  0.00  0.00    -0.468 OA
ATOM     22  C   LIG A   1      -5.209   4.775 129.079  0.00  0.00    +0.280 C 
ENDBRANCH  19  21
ENDBRANCH  18  19
ENDBRANCH  17  18
ENDBRANCH  12  17
TORSDOF 6
ENDMDL
MODEL 9
REMARK VINA RESULT:      -5.5      2.226      3.750
REMARK  Name = NuBBE_1019
REMARK  11 active torsions:
REMARK  status: ('A' for Active; 'I' for Inactive)
REMARK    1  A    between atoms: C_1  and  O_2
REMARK    2  A    between atoms: O_2  and  C_3
REMARK    3  A    between atoms: C_7  and  C_8
REMARK    4  A    between atoms: C_7  and  C_9
REMARK    5  A    between atoms: C_13  and  O_14
REMARK    6  A    between atoms: O_14  and  C_15
REMARK    7  A    between atoms: C_16  and  C_17
REMARK    8  A    between atoms: C_17  and  C_18
REMARK    9  A    between atoms: C_18  and  C_19
REMARK   10  A    between atoms: C_19  and  O_20
REMARK   11  A    between atoms: O_20  and  C_21
REMARK                            x       y       z     vdW  Elec       q    Type
REMARK                         _______ _______ _______ _____ _____    ______ ____
ROOT
ATOM      1  C   LIG A   1      -5.488   1.352 126.591  0.00  0.00    +0.130 A 
ATOM      2  C   LIG A   1      -5.411  -0.018 126.356  0.00  0.00    +0.092 A 
ATOM      3  C   LIG A   1      -5.975  -0.585 125.223  0.00  0.00    +0.136 A 
ATOM      4  O   LIG A   1      -5.846  -1.941 125.169  0.00  0.00    -0.481 OA
ATOM      5  C   LIG A   1      -6.246  -2.628 123.977  0.00  0.00    +0.123 C 
ATOM      6  C   LIG A   1      -4.962  -3.198 123.366  0.00  0.00    +0.060 C 
ATOM      7  C   LIG A   1      -7.155  -3.770 124.443  0.00  0.00    +0.060 C 
ATOM      8  C   LIG A   1      -6.994  -1.785 122.971  0.00  0.00    +0.020 C 
ATOM      9  C   LIG A   1      -7.207  -0.472 123.120  0.00  0.00    +0.015 C 
ATOM     10  C   LIG A   1      -6.630   0.201 124.278  0.00  0.00    +0.059 A 
ATOM     11  C   LIG A   1      -6.697   1.594 124.494  0.00  0.00    +0.137 A 
ATOM     12  C   LIG A   1      -6.129   2.183 125.649  0.00  0.00    +0.037 A 
ENDROOT
BRANCH   1  14
ATOM     13  C   LIG A   1      -5.297   1.319 128.957  0.00  0.00    +0.277 C 
ATOM     14  O   LIG A   1      -4.970   1.945 127.717  0.00  0.00    -0.495 OA
ENDBRANCH   1  14
BRANCH  11  15
ATOM     15  O   LIG A   1      -7.418   2.400 123.644  0.00  0.00    -0.494 OA
ATOM     16  C   LIG A   1      -6.637   2.881 122.551  0.00  0.00    +0.277 C 
ENDBRANCH  11  15
BRANCH  12  17
ATOM     17  C   LIG A   1      -6.138   3.688 125.847  0.00  0.00    +0.054 C 
BRANCH  17  18
ATOM     18  C   LIG A   1      -7.517   4.158 126.297  0.00  0.00    +0.125 C 
BRANCH  18  19
ATOM     19  C   LIG A   1      -7.700   4.024 127.789  0.00  0.00    +0.307 C 
ATOM     20  O   LIG A   1      -8.605   3.453 128.355  0.00  0.00    -0.251 OA
BRANCH  19  21
ATOM     21  O   LIG A   1      -6.736   4.784 128.390  0.00  0.00    -0.468 OA
ATOM     22  C   LIG A   1      -6.707   4.683 129.812  0.00  0.00    +0.280 C 
ENDBRANCH  19  21
ENDBRANCH  18  19
ENDBRANCH  17  18
ENDBRANCH  12  17
TORSDOF 6
ENDMDL
