MODEL 1
REMARK VINA RESULT:      -6.3      0.000      0.000
REMARK  Name = NuBBE_276
REMARK  5 active torsions:
REMARK  status: ('A' for Active; 'I' for Inactive)
REMARK    1  A    between atoms: O_1  and  C_2
REMARK    2  A    between atoms: C_5  and  C_6
REMARK    3  A    between atoms: C_12  and  C_13
REMARK    4  A    between atoms: C_15  and  O_16
REMARK    5  A    between atoms: C_17  and  C_18
REMARK                            x       y       z     vdW  Elec       q    Type
REMARK                         _______ _______ _______ _____ _____    ______ ____
ROOT
ATOM      1  C   LIG A   1      -9.287  -0.853 123.948  0.00  0.00    +0.138 A 
ATOM      2  C   LIG A   1      -8.755  -1.515 125.072  0.00  0.00    +0.106 A 
ATOM      3  C   LIG A   1      -8.426  -0.795 126.238  0.00  0.00    -0.006 A 
ATOM      4  C   LIG A   1      -7.829  -1.558 127.400  0.00  0.00    +0.083 C 
ATOM      5  C   LIG A   1      -6.298  -1.534 127.342  0.00  0.00    +0.021 C 
ATOM      6  C   LIG A   1      -8.331  -2.978 127.412  0.00  0.00    +0.109 C 
ATOM      7  O   LIG A   1      -8.355  -3.657 126.177  0.00  0.00    -0.427 OA
ATOM      8  C   LIG A   1      -8.526  -2.985 125.003  0.00  0.00    +0.348 C 
ATOM      9  O   LIG A   1      -8.542  -3.561 123.920  0.00  0.00    -0.244 OA
ATOM     10  C   LIG A   1      -8.752  -3.623 128.507  0.00  0.00    +0.054 C 
ATOM     11  C   LIG A   1      -8.631   0.604 126.250  0.00  0.00    +0.061 A 
ATOM     12  C   LIG A   1      -9.187   1.245 125.123  0.00  0.00    +0.134 A 
ATOM     13  C   LIG A   1      -9.537   0.526 123.972  0.00  0.00    +0.034 A 
ATOM     14  C   LIG A   1     -10.092   1.228 122.761  0.00  0.00    +0.051 C 
ENDROOT
BRANCH   1  15
ATOM     15  O   LIG A   1      -9.583  -1.515 122.781  0.00  0.00    -0.506 OA
ATOM     16  H   LIG A   1      -9.457  -0.911 122.015  0.00  0.00    +0.292 HD
ENDBRANCH   1  15
BRANCH  11  17
ATOM     17  C   LIG A   1      -8.256   1.428 127.427  0.00  0.00    +0.262 C 
ATOM     18  O   LIG A   1      -9.089   2.113 128.016  0.00  0.00    -0.296 OA
ENDBRANCH  11  17
BRANCH  12  19
ATOM     19  O   LIG A   1      -9.398   2.602 125.090  0.00  0.00    -0.506 OA
ATOM     20  H   LIG A   1      -9.872   2.838 124.261  0.00  0.00    +0.292 HD
ENDBRANCH  12  19
TORSDOF 3
ENDMDL
MODEL 2
REMARK VINA RESULT:      -6.3      6.919      8.287
REMARK  Name = NuBBE_276
REMARK  5 active torsions:
REMARK  status: ('A' for Active; 'I' for Inactive)
REMARK    1  A    between atoms: O_1  and  C_2
REMARK    2  A    between atoms: C_5  and  C_6
REMARK    3  A    between atoms: C_12  and  C_13
REMARK    4  A    between atoms: C_15  and  O_16
REMARK    5  A    between atoms: C_17  and  C_18
REMARK                            x       y       z     vdW  Elec       q    Type
REMARK                         _______ _______ _______ _____ _____    ______ ____
ROOT
ATOM      1  C   LIG A   1      -9.952   6.309 128.136  0.00  0.00    +0.138 A 
ATOM      2  C   LIG A   1      -9.634   5.633 129.330  0.00  0.00    +0.106 A 
ATOM      3  C   LIG A   1     -10.361   5.885 130.511  0.00  0.00    -0.006 A 
ATOM      4  C   LIG A   1      -9.950   5.151 131.769  0.00  0.00    +0.083 C 
ATOM      5  C   LIG A   1      -8.957   5.982 132.587  0.00  0.00    +0.021 C 
ATOM      6  C   LIG A   1      -9.355   3.811 131.426  0.00  0.00    +0.109 C 
ATOM      7  O   LIG A   1      -8.430   3.775 130.363  0.00  0.00    -0.427 OA
ATOM      8  C   LIG A   1      -8.504   4.664 129.332  0.00  0.00    +0.348 C 
ATOM      9  O   LIG A   1      -7.701   4.650 128.403  0.00  0.00    -0.244 OA
ATOM     10  C   LIG A   1      -9.649   2.667 132.059  0.00  0.00    +0.054 C 
ATOM     11  C   LIG A   1     -11.407   6.835 130.472  0.00  0.00    +0.061 A 
ATOM     12  C   LIG A   1     -11.726   7.484 129.261  0.00  0.00    +0.134 A 
ATOM     13  C   LIG A   1     -11.019   7.216 128.081  0.00  0.00    +0.034 A 
ATOM     14  C   LIG A   1     -11.344   7.945 126.804  0.00  0.00    +0.051 C 
ENDROOT
BRANCH   1  15
ATOM     15  O   LIG A   1      -9.242   6.119 126.976  0.00  0.00    -0.506 OA
ATOM     16  H   LIG A   1      -8.842   5.220 126.975  0.00  0.00    +0.292 HD
ENDBRANCH   1  15
BRANCH  11  17
ATOM     17  C   LIG A   1     -12.177   7.185 131.694  0.00  0.00    +0.262 C 
ATOM     18  O   LIG A   1     -13.405   7.197 131.690  0.00  0.00    -0.296 OA
ENDBRANCH  11  17
BRANCH  12  19
ATOM     19  O   LIG A   1     -12.731   8.417 129.180  0.00  0.00    -0.506 OA
ATOM     20  H   LIG A   1     -13.287   8.229 128.392  0.00  0.00    +0.292 HD
ENDBRANCH  12  19
TORSDOF 3
ENDMDL
MODEL 3
REMARK VINA RESULT:      -6.3      2.332      4.834
REMARK  Name = NuBBE_276
REMARK  5 active torsions:
REMARK  status: ('A' for Active; 'I' for Inactive)
REMARK    1  A    between atoms: O_1  and  C_2
REMARK    2  A    between atoms: C_5  and  C_6
REMARK    3  A    between atoms: C_12  and  C_13
REMARK    4  A    between atoms: C_15  and  O_16
REMARK    5  A    between atoms: C_17  and  C_18
REMARK                            x       y       z     vdW  Elec       q    Type
REMARK                         _______ _______ _______ _____ _____    ______ ____
ROOT
ATOM      1  C   LIG A   1      -8.873  -1.506 123.747  0.00  0.00    +0.138 A 
ATOM      2  C   LIG A   1      -8.697  -0.112 123.640  0.00  0.00    +0.106 A 
ATOM      3  C   LIG A   1      -7.608   0.523 124.271  0.00  0.00    -0.006 A 
ATOM      4  C   LIG A   1      -7.492   2.026 124.145  0.00  0.00    +0.083 C 
ATOM      5  C   LIG A   1      -8.169   2.728 125.326  0.00  0.00    +0.021 C 
ATOM      6  C   LIG A   1      -8.089   2.494 122.845  0.00  0.00    +0.109 C 
ATOM      7  O   LIG A   1      -9.333   1.940 122.477  0.00  0.00    -0.427 OA
ATOM      8  C   LIG A   1      -9.690   0.684 122.868  0.00  0.00    +0.348 C 
ATOM      9  O   LIG A   1     -10.772   0.191 122.562  0.00  0.00    -0.244 OA
ATOM     10  C   LIG A   1      -7.519   3.389 122.027  0.00  0.00    +0.054 C 
ATOM     11  C   LIG A   1      -6.706  -0.267 125.019  0.00  0.00    +0.061 A 
ATOM     12  C   LIG A   1      -6.886  -1.664 125.095  0.00  0.00    +0.134 A 
ATOM     13  C   LIG A   1      -7.954  -2.298 124.448  0.00  0.00    +0.034 A 
ATOM     14  C   LIG A   1      -8.157  -3.786 124.569  0.00  0.00    +0.051 C 
ENDROOT
BRANCH   1  15
ATOM     15  O   LIG A   1      -9.943  -2.154 123.179  0.00  0.00    -0.506 OA
ATOM     16  H   LIG A   1      -9.650  -3.018 122.811  0.00  0.00    +0.292 HD
ENDBRANCH   1  15
BRANCH  11  17
ATOM     17  C   LIG A   1      -5.568   0.347 125.751  0.00  0.00    +0.262 C 
ATOM     18  O   LIG A   1      -5.406   0.154 126.954  0.00  0.00    -0.296 OA
ENDBRANCH  11  17
BRANCH  12  19
ATOM     19  O   LIG A   1      -6.035  -2.468 125.815  0.00  0.00    -0.506 OA
ATOM     20  H   LIG A   1      -5.106  -2.254 125.578  0.00  0.00    +0.292 HD
ENDBRANCH  12  19
TORSDOF 3
ENDMDL
MODEL 4
REMARK VINA RESULT:      -6.2      2.589      3.860
REMARK  Name = NuBBE_276
REMARK  5 active torsions:
REMARK  status: ('A' for Active; 'I' for Inactive)
REMARK    1  A    between atoms: O_1  and  C_2
REMARK    2  A    between atoms: C_5  and  C_6
REMARK    3  A    between atoms: C_12  and  C_13
REMARK    4  A    between atoms: C_15  and  O_16
REMARK    5  A    between atoms: C_17  and  C_18
REMARK                            x       y       z     vdW  Elec       q    Type
REMARK                         _______ _______ _______ _____ _____    ______ ____
ROOT
ATOM      1  C   LIG A   1      -8.626   1.866 124.183  0.00  0.00    +0.138 A 
ATOM      2  C   LIG A   1      -8.578   0.516 123.784  0.00  0.00    +0.106 A 
ATOM      3  C   LIG A   1      -7.552  -0.332 124.249  0.00  0.00    -0.006 A 
ATOM      4  C   LIG A   1      -7.537  -1.764 123.760  0.00  0.00    +0.083 C 
ATOM      5  C   LIG A   1      -6.652  -1.908 122.519  0.00  0.00    +0.021 C 
ATOM      6  C   LIG A   1      -8.936  -2.234 123.464  0.00  0.00    +0.109 C 
ATOM      7  O   LIG A   1      -9.771  -1.349 122.751  0.00  0.00    -0.427 OA
ATOM      8  C   LIG A   1      -9.615   0.002 122.848  0.00  0.00    +0.348 C 
ATOM      9  O   LIG A   1     -10.329   0.784 122.228  0.00  0.00    -0.244 OA
ATOM     10  C   LIG A   1      -9.430  -3.423 123.834  0.00  0.00    +0.054 C 
ATOM     11  C   LIG A   1      -6.571   0.205 125.113  0.00  0.00    +0.061 A 
ATOM     12  C   LIG A   1      -6.649   1.553 125.519  0.00  0.00    +0.134 A 
ATOM     13  C   LIG A   1      -7.682   2.390 125.077  0.00  0.00    +0.034 A 
ATOM     14  C   LIG A   1      -7.732   3.838 125.487  0.00  0.00    +0.051 C 
ENDROOT
BRANCH   1  15
ATOM     15  O   LIG A   1      -9.587   2.732 123.720  0.00  0.00    -0.506 OA
ATOM     16  H   LIG A   1      -9.338   3.656 123.946  0.00  0.00    +0.292 HD
ENDBRANCH   1  15
BRANCH  11  17
ATOM     17  C   LIG A   1      -5.434  -0.621 125.597  0.00  0.00    +0.262 C 
ATOM     18  O   LIG A   1      -5.306  -0.893 126.788  0.00  0.00    -0.296 OA
ENDBRANCH  11  17
BRANCH  12  19
ATOM     19  O   LIG A   1      -5.714   2.116 126.353  0.00  0.00    -0.506 OA
ATOM     20  H   LIG A   1      -5.358   2.934 125.939  0.00  0.00    +0.292 HD
ENDBRANCH  12  19
TORSDOF 3
ENDMDL
MODEL 5
REMARK VINA RESULT:      -6.0      1.682      1.685
REMARK  Name = NuBBE_276
REMARK  5 active torsions:
REMARK  status: ('A' for Active; 'I' for Inactive)
REMARK    1  A    between atoms: O_1  and  C_2
REMARK    2  A    between atoms: C_5  and  C_6
REMARK    3  A    between atoms: C_12  and  C_13
REMARK    4  A    between atoms: C_15  and  O_16
REMARK    5  A    between atoms: C_17  and  C_18
REMARK                            x       y       z     vdW  Elec       q    Type
REMARK                         _______ _______ _______ _____ _____    ______ ____
ROOT
ATOM      1  C   LIG A   1      -9.221  -0.258 123.506  0.00  0.00    +0.138 A 
ATOM      2  C   LIG A   1      -8.723  -1.207 124.420  0.00  0.00    +0.106 A 
ATOM      3  C   LIG A   1      -7.763  -0.838 125.385  0.00  0.00    -0.006 A 
ATOM      4  C   LIG A   1      -7.244  -1.910 126.317  0.00  0.00    +0.083 C 
ATOM      5  C   LIG A   1      -5.966  -2.546 125.761  0.00  0.00    +0.021 C 
ATOM      6  C   LIG A   1      -8.296  -2.962 126.549  0.00  0.00    +0.109 C 
ATOM      7  O   LIG A   1      -9.002  -3.419 125.418  0.00  0.00    -0.427 OA
ATOM      8  C   LIG A   1      -9.208  -2.612 124.339  0.00  0.00    +0.348 C 
ATOM      9  O   LIG A   1      -9.814  -2.999 123.344  0.00  0.00    -0.244 OA
ATOM     10  C   LIG A   1      -8.599  -3.479 127.747  0.00  0.00    +0.054 C 
ATOM     11  C   LIG A   1      -7.307   0.500 125.407  0.00  0.00    +0.061 A 
ATOM     12  C   LIG A   1      -7.836   1.441 124.499  0.00  0.00    +0.134 A 
ATOM     13  C   LIG A   1      -8.807   1.080 123.555  0.00  0.00    +0.034 A 
ATOM     14  C   LIG A   1      -9.334   2.085 122.566  0.00  0.00    +0.051 C 
ENDROOT
BRANCH   1  15
ATOM     15  O   LIG A   1     -10.126  -0.590 122.528  0.00  0.00    -0.506 OA
ATOM     16  H   LIG A   1     -10.465  -1.501 122.683  0.00  0.00    +0.292 HD
ENDBRANCH   1  15
BRANCH  11  17
ATOM     17  C   LIG A   1      -6.259   0.942 126.363  0.00  0.00    +0.262 C 
ATOM     18  O   LIG A   1      -5.190   1.399 125.969  0.00  0.00    -0.296 OA
ENDBRANCH  11  17
BRANCH  12  19
ATOM     19  O   LIG A   1      -7.417   2.750 124.482  0.00  0.00    -0.506 OA
ATOM     20  H   LIG A   1      -8.053   3.289 123.961  0.00  0.00    +0.292 HD
ENDBRANCH  12  19
TORSDOF 3
ENDMDL
MODEL 6
REMARK VINA RESULT:      -5.9      2.354      5.003
REMARK  Name = NuBBE_276
REMARK  5 active torsions:
REMARK  status: ('A' for Active; 'I' for Inactive)
REMARK    1  A    between atoms: O_1  and  C_2
REMARK    2  A    between atoms: C_5  and  C_6
REMARK    3  A    between atoms: C_12  and  C_13
REMARK    4  A    between atoms: C_15  and  O_16
REMARK    5  A    between atoms: C_17  and  C_18
REMARK                            x       y       z     vdW  Elec       q    Type
REMARK                         _______ _______ _______ _____ _____    ______ ____
ROOT
ATOM      1  C   LIG A   1      -7.114  -1.414 125.123  0.00  0.00    +0.138 A 
ATOM      2  C   LIG A   1      -7.062  -0.018 124.938  0.00  0.00    +0.106 A 
ATOM      3  C   LIG A   1      -7.994   0.628 124.099  0.00  0.00    -0.006 A 
ATOM      4  C   LIG A   1      -7.866   2.124 123.916  0.00  0.00    +0.083 C 
ATOM      5  C   LIG A   1      -7.017   2.453 122.684  0.00  0.00    +0.021 C 
ATOM      6  C   LIG A   1      -7.273   2.758 125.146  0.00  0.00    +0.109 C 
ATOM      7  O   LIG A   1      -6.161   2.111 125.725  0.00  0.00    -0.427 OA
ATOM      8  C   LIG A   1      -5.996   0.762 125.622  0.00  0.00    +0.348 C 
ATOM      9  O   LIG A   1      -5.029   0.187 126.114  0.00  0.00    -0.244 OA
ATOM     10  C   LIG A   1      -7.732   3.879 125.718  0.00  0.00    +0.054 C 
ATOM     11  C   LIG A   1      -8.972  -0.155 123.445  0.00  0.00    +0.061 A 
ATOM     12  C   LIG A   1      -9.022  -1.548 123.662  0.00  0.00    +0.134 A 
ATOM     13  C   LIG A   1      -8.111  -2.188 124.514  0.00  0.00    +0.034 A 
ATOM     14  C   LIG A   1      -8.152  -3.681 124.706  0.00  0.00    +0.051 C 
ENDROOT
BRANCH   1  15
ATOM     15  O   LIG A   1      -6.200  -2.083 125.900  0.00  0.00    -0.506 OA
ATOM     16  H   LIG A   1      -5.295  -1.750 125.708  0.00  0.00    +0.292 HD
ENDBRANCH   1  15
BRANCH  11  17
ATOM     17  C   LIG A   1      -9.949   0.457 122.508  0.00  0.00    +0.262 C 
ATOM     18  O   LIG A   1     -11.159   0.380 122.710  0.00  0.00    -0.296 OA
ENDBRANCH  11  17
BRANCH  12  19
ATOM     19  O   LIG A   1      -9.952  -2.347 123.042  0.00  0.00    -0.506 OA
ATOM     20  H   LIG A   1      -9.841  -2.279 122.067  0.00  0.00    +0.292 HD
ENDBRANCH  12  19
TORSDOF 3
ENDMDL
MODEL 7
REMARK VINA RESULT:      -5.8      1.487      4.006
REMARK  Name = NuBBE_276
REMARK  5 active torsions:
REMARK  status: ('A' for Active; 'I' for Inactive)
REMARK    1  A    between atoms: O_1  and  C_2
REMARK    2  A    between atoms: C_5  and  C_6
REMARK    3  A    between atoms: C_12  and  C_13
REMARK    4  A    between atoms: C_15  and  O_16
REMARK    5  A    between atoms: C_17  and  C_18
REMARK                            x       y       z     vdW  Elec       q    Type
REMARK                         _______ _______ _______ _____ _____    ______ ____
ROOT
ATOM      1  C   LIG A   1      -8.702   0.636 126.552  0.00  0.00    +0.138 A 
ATOM      2  C   LIG A   1      -8.102  -0.344 127.368  0.00  0.00    +0.106 A 
ATOM      3  C   LIG A   1      -7.985  -1.676 126.919  0.00  0.00    -0.006 A 
ATOM      4  C   LIG A   1      -7.360  -2.688 127.854  0.00  0.00    +0.083 C 
ATOM      5  C   LIG A   1      -8.433  -3.402 128.682  0.00  0.00    +0.021 C 
ATOM      6  C   LIG A   1      -6.357  -2.022 128.758  0.00  0.00    +0.109 C 
ATOM      7  O   LIG A   1      -6.738  -0.797 129.343  0.00  0.00    -0.427 OA
ATOM      8  C   LIG A   1      -7.613   0.042 128.719  0.00  0.00    +0.348 C 
ATOM      9  O   LIG A   1      -7.960   1.108 129.220  0.00  0.00    -0.244 OA
ATOM     10  C   LIG A   1      -5.141  -2.514 129.033  0.00  0.00    +0.054 C 
ATOM     11  C   LIG A   1      -8.490  -2.006 125.641  0.00  0.00    +0.061 A 
ATOM     12  C   LIG A   1      -9.065  -1.005 124.830  0.00  0.00    +0.134 A 
ATOM     13  C   LIG A   1      -9.160   0.323 125.265  0.00  0.00    +0.034 A 
ATOM     14  C   LIG A   1      -9.813   1.373 124.405  0.00  0.00    +0.051 C 
ENDROOT
BRANCH   1  15
ATOM     15  O   LIG A   1      -8.869   1.933 126.970  0.00  0.00    -0.506 OA
ATOM     16  H   LIG A   1      -8.371   2.540 126.377  0.00  0.00    +0.292 HD
ENDBRANCH   1  15
BRANCH  11  17
ATOM     17  C   LIG A   1      -8.445  -3.401 125.130  0.00  0.00    +0.262 C 
ATOM     18  O   LIG A   1      -7.761  -3.700 124.155  0.00  0.00    -0.296 OA
ENDBRANCH  11  17
BRANCH  12  19
ATOM     19  O   LIG A   1      -9.573  -1.284 123.583  0.00  0.00    -0.506 OA
ATOM     20  H   LIG A   1     -10.525  -1.040 123.558  0.00  0.00    +0.292 HD
ENDBRANCH  12  19
TORSDOF 3
ENDMDL
MODEL 8
REMARK VINA RESULT:      -5.8      3.648      5.859
REMARK  Name = NuBBE_276
REMARK  5 active torsions:
REMARK  status: ('A' for Active; 'I' for Inactive)
REMARK    1  A    between atoms: O_1  and  C_2
REMARK    2  A    between atoms: C_5  and  C_6
REMARK    3  A    between atoms: C_12  and  C_13
REMARK    4  A    between atoms: C_15  and  O_16
REMARK    5  A    between atoms: C_17  and  C_18
REMARK                            x       y       z     vdW  Elec       q    Type
REMARK                         _______ _______ _______ _____ _____    ______ ____
ROOT
ATOM      1  C   LIG A   1      -7.300   3.136 124.515  0.00  0.00    +0.138 A 
ATOM      2  C   LIG A   1      -6.172   3.149 125.359  0.00  0.00    +0.106 A 
ATOM      3  C   LIG A   1      -5.579   1.942 125.782  0.00  0.00    -0.006 A 
ATOM      4  C   LIG A   1      -4.389   2.022 126.713  0.00  0.00    +0.083 C 
ATOM      5  C   LIG A   1      -4.834   1.939 128.176  0.00  0.00    +0.021 C 
ATOM      6  C   LIG A   1      -3.615   3.291 126.471  0.00  0.00    +0.109 C 
ATOM      7  O   LIG A   1      -4.362   4.477 126.323  0.00  0.00    -0.427 OA
ATOM      8  C   LIG A   1      -5.627   4.457 125.816  0.00  0.00    +0.348 C 
ATOM      9  O   LIG A   1      -6.293   5.481 125.689  0.00  0.00    -0.244 OA
ATOM     10  C   LIG A   1      -2.280   3.359 126.386  0.00  0.00    +0.054 C 
ATOM     11  C   LIG A   1      -6.146   0.722 125.348  0.00  0.00    +0.061 A 
ATOM     12  C   LIG A   1      -7.261   0.730 124.484  0.00  0.00    +0.134 A 
ATOM     13  C   LIG A   1      -7.836   1.930 124.045  0.00  0.00    +0.034 A 
ATOM     14  C   LIG A   1      -9.051   1.923 123.154  0.00  0.00    +0.051 C 
ENDROOT
BRANCH   1  15
ATOM     15  O   LIG A   1      -7.928   4.290 124.115  0.00  0.00    -0.506 OA
ATOM     16  H   LIG A   1      -8.374   4.709 124.885  0.00  0.00    +0.292 HD
ENDBRANCH   1  15
BRANCH  11  17
ATOM     17  C   LIG A   1      -5.601  -0.585 125.799  0.00  0.00    +0.262 C 
ATOM     18  O   LIG A   1      -5.240  -1.437 124.991  0.00  0.00    -0.296 OA
ENDBRANCH  11  17
BRANCH  12  19
ATOM     19  O   LIG A   1      -7.847  -0.433 124.043  0.00  0.00    -0.506 OA
ATOM     20  H   LIG A   1      -8.229  -0.286 123.150  0.00  0.00    +0.292 HD
ENDBRANCH  12  19
TORSDOF 3
ENDMDL
MODEL 9
REMARK VINA RESULT:      -5.8      3.446      5.078
REMARK  Name = NuBBE_276
REMARK  5 active torsions:
REMARK  status: ('A' for Active; 'I' for Inactive)
REMARK    1  A    between atoms: O_1  and  C_2
REMARK    2  A    between atoms: C_5  and  C_6
REMARK    3  A    between atoms: C_12  and  C_13
REMARK    4  A    between atoms: C_15  and  O_16
REMARK    5  A    between atoms: C_17  and  C_18
REMARK                            x       y       z     vdW  Elec       q    Type
REMARK                         _______ _______ _______ _____ _____    ______ ____
ROOT
ATOM      1  C   LIG A   1      -5.218   1.958 125.985  0.00  0.00    +0.138 A 
ATOM      2  C   LIG A   1      -5.886   0.945 125.269  0.00  0.00    +0.106 A 
ATOM      3  C   LIG A   1      -6.696   1.267 124.160  0.00  0.00    -0.006 A 
ATOM      4  C   LIG A   1      -7.412   0.138 123.453  0.00  0.00    +0.083 C 
ATOM      5  C   LIG A   1      -8.823  -0.054 124.018  0.00  0.00    +0.021 C 
ATOM      6  C   LIG A   1      -6.624  -1.140 123.565  0.00  0.00    +0.109 C 
ATOM      7  O   LIG A   1      -6.087  -1.450 124.832  0.00  0.00    -0.427 OA
ATOM      8  C   LIG A   1      -5.742  -0.468 125.713  0.00  0.00    +0.348 C 
ATOM      9  O   LIG A   1      -5.280  -0.723 126.821  0.00  0.00    -0.244 OA
ATOM     10  C   LIG A   1      -6.402  -1.986 122.551  0.00  0.00    +0.054 C 
ATOM     11  C   LIG A   1      -6.829   2.625 123.791  0.00  0.00    +0.061 A 
ATOM     12  C   LIG A   1      -6.133   3.622 124.506  0.00  0.00    +0.134 A 
ATOM     13  C   LIG A   1      -5.309   3.300 125.593  0.00  0.00    +0.034 A 
ATOM     14  C   LIG A   1      -4.602   4.379 126.372  0.00  0.00    +0.051 C 
ENDROOT
BRANCH   1  15
ATOM     15  O   LIG A   1      -4.452   1.688 127.093  0.00  0.00    -0.506 OA
ATOM     16  H   LIG A   1      -4.037   2.517 127.420  0.00  0.00    +0.292 HD
ENDBRANCH   1  15
BRANCH  11  17
ATOM     17  C   LIG A   1      -7.708   3.035 122.666  0.00  0.00    +0.262 C 
ATOM     18  O   LIG A   1      -7.245   3.552 121.652  0.00  0.00    -0.296 OA
ENDBRANCH  11  17
BRANCH  12  19
ATOM     19  O   LIG A   1      -6.238   4.954 124.184  0.00  0.00    -0.506 OA
ATOM     20  H   LIG A   1      -5.470   5.217 123.630  0.00  0.00    +0.292 HD
ENDBRANCH  12  19
TORSDOF 3
ENDMDL
