MODEL 1
REMARK VINA RESULT:      -7.8      0.000      0.000
REMARK  Name = NuBBE_2184
REMARK  10 active torsions:
REMARK  status: ('A' for Active; 'I' for Inactive)
REMARK    1  A    between atoms: C_1  and  C_3
REMARK    2  A    between atoms: C_1  and  C_13
REMARK    3  A    between atoms: C_1  and  C_14
REMARK    4  A    between atoms: C_3  and  C_4
REMARK    5  A    between atoms: C_15  and  O_16
REMARK    6  A    between atoms: C_17  and  O_18
REMARK    7  A    between atoms: O_18  and  C_19
REMARK    8  A    between atoms: C_21  and  C_23
REMARK    9  A    between atoms: C_23  and  C_24
REMARK   10  A    between atoms: C_24  and  C_25
REMARK                            x       y       z     vdW  Elec       q    Type
REMARK                         _______ _______ _______ _____ _____    ______ ____
ROOT
ATOM      1  C   LIG A   1      -7.790  -2.762 125.757  0.00  0.00    +0.001 A 
ATOM      2  C   LIG A   1      -8.936  -2.600 124.964  0.00  0.00    +0.162 A 
ATOM      3  C   LIG A   1      -8.921  -2.100 123.656  0.00  0.00    +0.162 A 
ATOM      4  C   LIG A   1      -7.711  -2.118 122.982  0.00  0.00    +0.053 A 
ATOM      5  C   LIG A   1      -6.552  -2.543 123.640  0.00  0.00    -0.043 A 
ATOM      6  C   LIG A   1      -6.592  -2.791 125.034  0.00  0.00    +0.011 A 
ENDROOT
BRANCH   1   7
ATOM      7  C   LIG A   1      -7.803  -2.790 127.308  0.00  0.00    +0.024 C 
ATOM      8  C   LIG A   1      -8.901  -3.746 127.820  0.00  0.00    +0.013 C 
BRANCH   7   9
ATOM      9  C   LIG A   1      -7.870  -1.441 128.131  0.00  0.00    +0.043 C 
BRANCH   9  10
ATOM     10  C   LIG A   1      -7.627  -0.082 127.424  0.00  0.00    -0.043 A 
ATOM     11  C   LIG A   1      -8.705   0.598 126.809  0.00  0.00    +0.053 A 
ATOM     12  C   LIG A   1      -8.404   1.581 125.882  0.00  0.00    +0.167 A 
ATOM     13  C   LIG A   1      -7.130   1.813 125.451  0.00  0.00    +0.166 A 
ATOM     14  C   LIG A   1      -6.043   1.204 126.064  0.00  0.00    +0.050 A 
ATOM     15  C   LIG A   1      -6.319   0.369 127.146  0.00  0.00    +0.007 A 
ATOM     16  O   LIG A   1      -7.043   2.686 124.426  0.00  0.00    -0.453 OA
ATOM     17  C   LIG A   1      -8.377   3.239 124.492  0.00  0.00    +0.466 C 
ATOM     18  O   LIG A   1      -9.288   2.402 125.234  0.00  0.00    -0.453 OA
ENDBRANCH   9  10
ENDBRANCH   7   9
ENDBRANCH   1   7
BRANCH   2  19
ATOM     19  O   LIG A   1     -10.138  -2.776 125.557  0.00  0.00    -0.503 OA
ATOM     20  H   LIG A   1     -10.101  -3.726 125.766  0.00  0.00    +0.292 HD
ENDBRANCH   2  19
BRANCH   3  21
ATOM     21  O   LIG A   1     -10.002  -1.533 123.015  0.00  0.00    -0.491 OA
ATOM     22  C   LIG A   1      -9.955  -0.168 122.593  0.00  0.00    +0.277 C 
ENDBRANCH   3  21
BRANCH   5  23
ATOM     23  C   LIG A   1      -5.289  -2.795 122.853  0.00  0.00    +0.035 C 
BRANCH  23  24
ATOM     24  C   LIG A   1      -4.239  -3.578 123.644  0.00  0.00    +0.001 C 
ATOM     25  C   LIG A   1      -4.299  -5.063 123.378  0.00  0.00    +0.004 C 
ENDBRANCH  23  24
ENDBRANCH   5  23
TORSDOF 7
ENDMDL
MODEL 2
REMARK VINA RESULT:      -7.4      3.788      5.447
REMARK  Name = NuBBE_2184
REMARK  10 active torsions:
REMARK  status: ('A' for Active; 'I' for Inactive)
REMARK    1  A    between atoms: C_1  and  C_3
REMARK    2  A    between atoms: C_1  and  C_13
REMARK    3  A    between atoms: C_1  and  C_14
REMARK    4  A    between atoms: C_3  and  C_4
REMARK    5  A    between atoms: C_15  and  O_16
REMARK    6  A    between atoms: C_17  and  O_18
REMARK    7  A    between atoms: O_18  and  C_19
REMARK    8  A    between atoms: C_21  and  C_23
REMARK    9  A    between atoms: C_23  and  C_24
REMARK   10  A    between atoms: C_24  and  C_25
REMARK                            x       y       z     vdW  Elec       q    Type
REMARK                         _______ _______ _______ _____ _____    ______ ____
ROOT
ATOM      1  C   LIG A   1      -7.933  -2.508 126.432  0.00  0.00    +0.001 A 
ATOM      2  C   LIG A   1      -8.908  -2.605 125.429  0.00  0.00    +0.162 A 
ATOM      3  C   LIG A   1      -8.697  -2.247 124.092  0.00  0.00    +0.162 A 
ATOM      4  C   LIG A   1      -7.385  -2.152 123.658  0.00  0.00    +0.053 A 
ATOM      5  C   LIG A   1      -6.336  -2.325 124.568  0.00  0.00    -0.043 A 
ATOM      6  C   LIG A   1      -6.621  -2.430 125.951  0.00  0.00    +0.011 A 
ENDROOT
BRANCH   1   7
ATOM      7  C   LIG A   1      -8.252  -2.376 127.945  0.00  0.00    +0.024 C 
ATOM      8  C   LIG A   1      -7.694  -1.048 128.499  0.00  0.00    +0.013 C 
BRANCH   7   9
ATOM      9  C   LIG A   1      -7.884  -3.546 128.944  0.00  0.00    +0.043 C 
BRANCH   9  10
ATOM     10  C   LIG A   1      -6.964  -3.272 130.163  0.00  0.00    -0.043 A 
ATOM     11  C   LIG A   1      -5.587  -3.590 130.095  0.00  0.00    +0.053 A 
ATOM     12  C   LIG A   1      -4.889  -3.694 131.285  0.00  0.00    +0.167 A 
ATOM     13  C   LIG A   1      -5.506  -3.636 132.502  0.00  0.00    +0.166 A 
ATOM     14  C   LIG A   1      -6.843  -3.277 132.611  0.00  0.00    +0.050 A 
ATOM     15  C   LIG A   1      -7.508  -2.960 131.427  0.00  0.00    +0.007 A 
ATOM     16  O   LIG A   1      -4.701  -3.926 133.545  0.00  0.00    -0.453 OA
ATOM     17  C   LIG A   1      -3.425  -3.832 132.873  0.00  0.00    +0.466 C 
ATOM     18  O   LIG A   1      -3.546  -3.917 131.438  0.00  0.00    -0.453 OA
ENDBRANCH   9  10
ENDBRANCH   7   9
ENDBRANCH   1   7
BRANCH   2  19
ATOM     19  O   LIG A   1     -10.172  -2.898 125.810  0.00  0.00    -0.503 OA
ATOM     20  H   LIG A   1     -10.623  -2.058 125.609  0.00  0.00    +0.292 HD
ENDBRANCH   2  19
BRANCH   3  21
ATOM     21  O   LIG A   1      -9.692  -1.921 123.194  0.00  0.00    -0.491 OA
ATOM     22  C   LIG A   1      -9.728  -0.622 122.599  0.00  0.00    +0.277 C 
ENDBRANCH   3  21
BRANCH   5  23
ATOM     23  C   LIG A   1      -4.920  -2.464 124.064  0.00  0.00    +0.035 C 
BRANCH  23  24
ATOM     24  C   LIG A   1      -4.760  -3.587 123.036  0.00  0.00    +0.001 C 
ATOM     25  C   LIG A   1      -4.230  -4.862 123.647  0.00  0.00    +0.004 C 
ENDBRANCH  23  24
ENDBRANCH   5  23
TORSDOF 7
ENDMDL
MODEL 3
REMARK VINA RESULT:      -7.3      3.327      5.005
REMARK  Name = NuBBE_2184
REMARK  10 active torsions:
REMARK  status: ('A' for Active; 'I' for Inactive)
REMARK    1  A    between atoms: C_1  and  C_3
REMARK    2  A    between atoms: C_1  and  C_13
REMARK    3  A    between atoms: C_1  and  C_14
REMARK    4  A    between atoms: C_3  and  C_4
REMARK    5  A    between atoms: C_15  and  O_16
REMARK    6  A    between atoms: C_17  and  O_18
REMARK    7  A    between atoms: O_18  and  C_19
REMARK    8  A    between atoms: C_21  and  C_23
REMARK    9  A    between atoms: C_23  and  C_24
REMARK   10  A    between atoms: C_24  and  C_25
REMARK                            x       y       z     vdW  Elec       q    Type
REMARK                         _______ _______ _______ _____ _____    ______ ____
ROOT
ATOM      1  C   LIG A   1      -7.638  -2.021 125.758  0.00  0.00    +0.001 A 
ATOM      2  C   LIG A   1      -8.815  -1.964 124.998  0.00  0.00    +0.162 A 
ATOM      3  C   LIG A   1      -8.848  -1.729 123.618  0.00  0.00    +0.162 A 
ATOM      4  C   LIG A   1      -7.675  -1.933 122.910  0.00  0.00    +0.053 A 
ATOM      5  C   LIG A   1      -6.500  -2.273 123.589  0.00  0.00    -0.043 A 
ATOM      6  C   LIG A   1      -6.479  -2.244 125.005  0.00  0.00    +0.011 A 
ENDROOT
BRANCH   1   7
ATOM      7  C   LIG A   1      -7.574  -1.746 127.284  0.00  0.00    +0.024 C 
ATOM      8  C   LIG A   1      -7.666  -0.231 127.562  0.00  0.00    +0.013 C 
BRANCH   7   9
ATOM      9  C   LIG A   1      -6.407  -2.360 128.158  0.00  0.00    +0.043 C 
BRANCH   9  10
ATOM     10  C   LIG A   1      -6.705  -2.924 129.572  0.00  0.00    -0.043 A 
ATOM     11  C   LIG A   1      -7.448  -2.154 130.498  0.00  0.00    +0.053 A 
ATOM     12  C   LIG A   1      -7.371  -2.501 131.836  0.00  0.00    +0.167 A 
ATOM     13  C   LIG A   1      -6.510  -3.457 132.293  0.00  0.00    +0.166 A 
ATOM     14  C   LIG A   1      -5.803  -4.267 131.414  0.00  0.00    +0.050 A 
ATOM     15  C   LIG A   1      -6.034  -4.069 130.053  0.00  0.00    +0.007 A 
ATOM     16  O   LIG A   1      -6.446  -3.545 133.638  0.00  0.00    -0.453 OA
ATOM     17  C   LIG A   1      -7.623  -2.774 133.967  0.00  0.00    +0.466 C 
ATOM     18  O   LIG A   1      -8.063  -1.940 132.875  0.00  0.00    -0.453 OA
ENDBRANCH   9  10
ENDBRANCH   7   9
ENDBRANCH   1   7
BRANCH   2  19
ATOM     19  O   LIG A   1      -9.991  -1.967 125.665  0.00  0.00    -0.503 OA
ATOM     20  H   LIG A   1     -10.554  -2.458 125.039  0.00  0.00    +0.292 HD
ENDBRANCH   2  19
BRANCH   3  21
ATOM     21  O   LIG A   1      -9.939  -1.250 122.924  0.00  0.00    -0.491 OA
ATOM     22  C   LIG A   1     -10.047   0.143 122.624  0.00  0.00    +0.277 C 
ENDBRANCH   3  21
BRANCH   5  23
ATOM     23  C   LIG A   1      -5.289  -2.731 122.814  0.00  0.00    +0.035 C 
BRANCH  23  24
ATOM     24  C   LIG A   1      -4.284  -3.498 123.676  0.00  0.00    +0.001 C 
ATOM     25  C   LIG A   1      -4.333  -4.988 123.438  0.00  0.00    +0.004 C 
ENDBRANCH  23  24
ENDBRANCH   5  23
TORSDOF 7
ENDMDL
MODEL 4
REMARK VINA RESULT:      -7.2      2.670      4.156
REMARK  Name = NuBBE_2184
REMARK  10 active torsions:
REMARK  status: ('A' for Active; 'I' for Inactive)
REMARK    1  A    between atoms: C_1  and  C_3
REMARK    2  A    between atoms: C_1  and  C_13
REMARK    3  A    between atoms: C_1  and  C_14
REMARK    4  A    between atoms: C_3  and  C_4
REMARK    5  A    between atoms: C_15  and  O_16
REMARK    6  A    between atoms: C_17  and  O_18
REMARK    7  A    between atoms: O_18  and  C_19
REMARK    8  A    between atoms: C_21  and  C_23
REMARK    9  A    between atoms: C_23  and  C_24
REMARK   10  A    between atoms: C_24  and  C_25
REMARK                            x       y       z     vdW  Elec       q    Type
REMARK                         _______ _______ _______ _____ _____    ______ ____
ROOT
ATOM      1  C   LIG A   1      -7.646   0.213 124.403  0.00  0.00    +0.001 A 
ATOM      2  C   LIG A   1      -8.291  -0.588 125.357  0.00  0.00    +0.162 A 
ATOM      3  C   LIG A   1      -8.434  -1.977 125.247  0.00  0.00    +0.162 A 
ATOM      4  C   LIG A   1      -7.593  -2.637 124.366  0.00  0.00    +0.053 A 
ATOM      5  C   LIG A   1      -6.707  -1.904 123.568  0.00  0.00    -0.043 A 
ATOM      6  C   LIG A   1      -6.793  -0.491 123.544  0.00  0.00    +0.011 A 
ENDROOT
BRANCH   1   7
ATOM      7  C   LIG A   1      -7.921   1.727 124.211  0.00  0.00    +0.024 C 
ATOM      8  C   LIG A   1      -8.900   1.953 123.039  0.00  0.00    +0.013 C 
BRANCH   7   9
ATOM      9  C   LIG A   1      -6.719   2.748 124.082  0.00  0.00    +0.043 C 
BRANCH   9  10
ATOM     10  C   LIG A   1      -5.882   3.131 125.330  0.00  0.00    -0.043 A 
ATOM     11  C   LIG A   1      -5.815   4.481 125.750  0.00  0.00    +0.053 A 
ATOM     12  C   LIG A   1      -4.787   4.842 126.603  0.00  0.00    +0.167 A 
ATOM     13  C   LIG A   1      -3.778   3.984 126.934  0.00  0.00    +0.166 A 
ATOM     14  C   LIG A   1      -3.833   2.642 126.585  0.00  0.00    +0.050 A 
ATOM     15  C   LIG A   1      -4.973   2.216 125.904  0.00  0.00    +0.007 A 
ATOM     16  O   LIG A   1      -2.776   4.554 127.635  0.00  0.00    -0.453 OA
ATOM     17  C   LIG A   1      -3.436   5.785 128.005  0.00  0.00    +0.466 C 
ATOM     18  O   LIG A   1      -4.587   6.067 127.182  0.00  0.00    -0.453 OA
ENDBRANCH   9  10
ENDBRANCH   7   9
ENDBRANCH   1   7
BRANCH   2  19
ATOM     19  O   LIG A   1      -8.958   0.037 126.352  0.00  0.00    -0.503 OA
ATOM     20  H   LIG A   1      -9.525  -0.686 126.674  0.00  0.00    +0.292 HD
ENDBRANCH   2  19
BRANCH   3  21
ATOM     21  O   LIG A   1      -9.390  -2.726 125.900  0.00  0.00    -0.491 OA
ATOM     22  C   LIG A   1      -9.021  -3.571 126.993  0.00  0.00    +0.277 C 
ENDBRANCH   3  21
BRANCH   5  23
ATOM     23  C   LIG A   1      -5.628  -2.620 122.792  0.00  0.00    +0.035 C 
BRANCH  23  24
ATOM     24  C   LIG A   1      -4.552  -3.231 123.693  0.00  0.00    +0.001 C 
ATOM     25  C   LIG A   1      -4.445  -4.729 123.535  0.00  0.00    +0.004 C 
ENDBRANCH  23  24
ENDBRANCH   5  23
TORSDOF 7
ENDMDL
MODEL 5
REMARK VINA RESULT:      -7.1      3.721      5.296
REMARK  Name = NuBBE_2184
REMARK  10 active torsions:
REMARK  status: ('A' for Active; 'I' for Inactive)
REMARK    1  A    between atoms: C_1  and  C_3
REMARK    2  A    between atoms: C_1  and  C_13
REMARK    3  A    between atoms: C_1  and  C_14
REMARK    4  A    between atoms: C_3  and  C_4
REMARK    5  A    between atoms: C_15  and  O_16
REMARK    6  A    between atoms: C_17  and  O_18
REMARK    7  A    between atoms: O_18  and  C_19
REMARK    8  A    between atoms: C_21  and  C_23
REMARK    9  A    between atoms: C_23  and  C_24
REMARK   10  A    between atoms: C_24  and  C_25
REMARK                            x       y       z     vdW  Elec       q    Type
REMARK                         _______ _______ _______ _____ _____    ______ ____
ROOT
ATOM      1  C   LIG A   1      -6.038   0.321 125.669  0.00  0.00    +0.001 A 
ATOM      2  C   LIG A   1      -5.667  -0.304 126.868  0.00  0.00    +0.162 A 
ATOM      3  C   LIG A   1      -5.709  -1.688 127.078  0.00  0.00    +0.162 A 
ATOM      4  C   LIG A   1      -5.757  -2.500 125.957  0.00  0.00    +0.053 A 
ATOM      5  C   LIG A   1      -5.847  -1.927 124.683  0.00  0.00    -0.043 A 
ATOM      6  C   LIG A   1      -6.057  -0.531 124.559  0.00  0.00    +0.011 A 
ENDROOT
BRANCH   1   7
ATOM      7  C   LIG A   1      -6.507   1.797 125.566  0.00  0.00    +0.024 C 
ATOM      8  C   LIG A   1      -7.701   1.916 124.595  0.00  0.00    +0.013 C 
BRANCH   7   9
ATOM      9  C   LIG A   1      -5.468   2.946 125.248  0.00  0.00    +0.043 C 
BRANCH   9  10
ATOM     10  C   LIG A   1      -4.633   3.581 126.390  0.00  0.00    -0.043 A 
ATOM     11  C   LIG A   1      -5.039   4.811 126.963  0.00  0.00    +0.053 A 
ATOM     12  C   LIG A   1      -4.101   5.527 127.686  0.00  0.00    +0.167 A 
ATOM     13  C   LIG A   1      -2.787   5.159 127.745  0.00  0.00    +0.166 A 
ATOM     14  C   LIG A   1      -2.361   3.938 127.240  0.00  0.00    +0.050 A 
ATOM     15  C   LIG A   1      -3.339   3.107 126.696  0.00  0.00    +0.007 A 
ATOM     16  O   LIG A   1      -1.987   6.061 128.349  0.00  0.00    -0.453 OA
ATOM     17  C   LIG A   1      -3.004   6.879 128.971  0.00  0.00    +0.466 C 
ATOM     18  O   LIG A   1      -4.306   6.691 128.378  0.00  0.00    -0.453 OA
ENDBRANCH   9  10
ENDBRANCH   7   9
ENDBRANCH   1   7
BRANCH   2  19
ATOM     19  O   LIG A   1      -5.417   0.488 127.935  0.00  0.00    -0.503 OA
ATOM     20  H   LIG A   1      -4.504   0.769 127.744  0.00  0.00    +0.292 HD
ENDBRANCH   2  19
BRANCH   3  21
ATOM     21  O   LIG A   1      -5.773  -2.298 128.313  0.00  0.00    -0.491 OA
ATOM     22  C   LIG A   1      -4.589  -2.825 128.917  0.00  0.00    +0.277 C 
ENDBRANCH   3  21
BRANCH   5  23
ATOM     23  C   LIG A   1      -5.655  -2.785 123.457  0.00  0.00    +0.035 C 
BRANCH  23  24
ATOM     24  C   LIG A   1      -4.292  -3.481 123.424  0.00  0.00    +0.001 C 
ATOM     25  C   LIG A   1      -4.400  -4.978 123.586  0.00  0.00    +0.004 C 
ENDBRANCH  23  24
ENDBRANCH   5  23
TORSDOF 7
ENDMDL
MODEL 6
REMARK VINA RESULT:      -6.9      3.637      4.847
REMARK  Name = NuBBE_2184
REMARK  10 active torsions:
REMARK  status: ('A' for Active; 'I' for Inactive)
REMARK    1  A    between atoms: C_1  and  C_3
REMARK    2  A    between atoms: C_1  and  C_13
REMARK    3  A    between atoms: C_1  and  C_14
REMARK    4  A    between atoms: C_3  and  C_4
REMARK    5  A    between atoms: C_15  and  O_16
REMARK    6  A    between atoms: C_17  and  O_18
REMARK    7  A    between atoms: O_18  and  C_19
REMARK    8  A    between atoms: C_21  and  C_23
REMARK    9  A    between atoms: C_23  and  C_24
REMARK   10  A    between atoms: C_24  and  C_25
REMARK                            x       y       z     vdW  Elec       q    Type
REMARK                         _______ _______ _______ _____ _____    ______ ____
ROOT
ATOM      1  C   LIG A   1      -7.768  -1.562 126.063  0.00  0.00    +0.001 A 
ATOM      2  C   LIG A   1      -8.626  -0.875 125.192  0.00  0.00    +0.162 A 
ATOM      3  C   LIG A   1      -8.256  -0.427 123.918  0.00  0.00    +0.162 A 
ATOM      4  C   LIG A   1      -7.135  -1.001 123.342  0.00  0.00    +0.053 A 
ATOM      5  C   LIG A   1      -6.374  -1.925 124.067  0.00  0.00    -0.043 A 
ATOM      6  C   LIG A   1      -6.657  -2.140 125.438  0.00  0.00    +0.011 A 
ENDROOT
BRANCH   1   7
ATOM      7  C   LIG A   1      -7.940  -1.596 127.605  0.00  0.00    +0.024 C 
ATOM      8  C   LIG A   1      -7.165  -0.432 128.259  0.00  0.00    +0.013 C 
BRANCH   7   9
ATOM      9  C   LIG A   1      -7.650  -2.926 128.412  0.00  0.00    +0.043 C 
BRANCH   9  10
ATOM     10  C   LIG A   1      -6.334  -3.079 129.218  0.00  0.00    -0.043 A 
ATOM     11  C   LIG A   1      -6.357  -2.994 130.631  0.00  0.00    +0.053 A 
ATOM     12  C   LIG A   1      -5.160  -2.754 131.283  0.00  0.00    +0.167 A 
ATOM     13  C   LIG A   1      -4.007  -2.465 130.610  0.00  0.00    +0.166 A 
ATOM     14  C   LIG A   1      -3.933  -2.587 129.229  0.00  0.00    +0.050 A 
ATOM     15  C   LIG A   1      -5.079  -3.037 128.575  0.00  0.00    +0.007 A 
ATOM     16  O   LIG A   1      -2.983  -2.092 131.404  0.00  0.00    -0.453 OA
ATOM     17  C   LIG A   1      -3.523  -2.515 132.676  0.00  0.00    +0.466 C 
ATOM     18  O   LIG A   1      -4.951  -2.711 132.635  0.00  0.00    -0.453 OA
ENDBRANCH   9  10
ENDBRANCH   7   9
ENDBRANCH   1   7
BRANCH   2  19
ATOM     19  O   LIG A   1      -9.822  -0.475 125.678  0.00  0.00    -0.503 OA
ATOM     20  H   LIG A   1     -10.380  -0.562 124.884  0.00  0.00    +0.292 HD
ENDBRANCH   2  19
BRANCH   3  21
ATOM     21  O   LIG A   1      -8.885   0.585 123.224  0.00  0.00    -0.491 OA
ATOM     22  C   LIG A   1      -8.390   1.925 123.299  0.00  0.00    +0.277 C 
ENDBRANCH   3  21
BRANCH   5  23
ATOM     23  C   LIG A   1      -5.305  -2.730 123.369  0.00  0.00    +0.035 C 
BRANCH  23  24
ATOM     24  C   LIG A   1      -4.802  -3.907 124.209  0.00  0.00    +0.001 C 
ATOM     25  C   LIG A   1      -4.188  -5.000 123.367  0.00  0.00    +0.004 C 
ENDBRANCH  23  24
ENDBRANCH   5  23
TORSDOF 7
ENDMDL
MODEL 7
REMARK VINA RESULT:      -6.8      9.067     11.159
REMARK  Name = NuBBE_2184
REMARK  10 active torsions:
REMARK  status: ('A' for Active; 'I' for Inactive)
REMARK    1  A    between atoms: C_1  and  C_3
REMARK    2  A    between atoms: C_1  and  C_13
REMARK    3  A    between atoms: C_1  and  C_14
REMARK    4  A    between atoms: C_3  and  C_4
REMARK    5  A    between atoms: C_15  and  O_16
REMARK    6  A    between atoms: C_17  and  O_18
REMARK    7  A    between atoms: O_18  and  C_19
REMARK    8  A    between atoms: C_21  and  C_23
REMARK    9  A    between atoms: C_23  and  C_24
REMARK   10  A    between atoms: C_24  and  C_25
REMARK                            x       y       z     vdW  Elec       q    Type
REMARK                         _______ _______ _______ _____ _____    ______ ____
ROOT
ATOM      1  C   LIG A   1      -5.567   6.135 132.516  0.00  0.00    +0.001 A 
ATOM      2  C   LIG A   1      -4.576   6.323 133.490  0.00  0.00    +0.162 A 
ATOM      3  C   LIG A   1      -3.245   6.652 133.202  0.00  0.00    +0.162 A 
ATOM      4  C   LIG A   1      -2.977   7.179 131.950  0.00  0.00    +0.053 A 
ATOM      5  C   LIG A   1      -4.002   7.283 131.002  0.00  0.00    -0.043 A 
ATOM      6  C   LIG A   1      -5.263   6.696 131.271  0.00  0.00    +0.011 A 
ENDROOT
BRANCH   1   7
ATOM      7  C   LIG A   1      -6.846   5.282 132.730  0.00  0.00    +0.024 C 
ATOM      8  C   LIG A   1      -7.001   4.250 131.594  0.00  0.00    +0.013 C 
BRANCH   7   9
ATOM      9  C   LIG A   1      -8.241   5.984 132.984  0.00  0.00    +0.043 C 
BRANCH   9  10
ATOM     10  C   LIG A   1      -9.228   6.206 131.808  0.00  0.00    -0.043 A 
ATOM     11  C   LIG A   1      -8.852   7.023 130.715  0.00  0.00    +0.053 A 
ATOM     12  C   LIG A   1      -9.857   7.505 129.894  0.00  0.00    +0.167 A 
ATOM     13  C   LIG A   1     -11.181   7.333 130.182  0.00  0.00    +0.166 A 
ATOM     14  C   LIG A   1     -11.588   6.499 131.214  0.00  0.00    +0.050 A 
ATOM     15  C   LIG A   1     -10.585   5.835 131.919  0.00  0.00    +0.007 A 
ATOM     16  O   LIG A   1     -12.016   8.011 129.368  0.00  0.00    -0.453 OA
ATOM     17  C   LIG A   1     -11.078   8.351 128.322  0.00  0.00    +0.466 C 
ATOM     18  O   LIG A   1      -9.705   8.242 128.750  0.00  0.00    -0.453 OA
ENDBRANCH   9  10
ENDBRANCH   7   9
ENDBRANCH   1   7
BRANCH   2  19
ATOM     19  O   LIG A   1      -4.883   6.002 134.767  0.00  0.00    -0.503 OA
ATOM     20  H   LIG A   1      -5.759   5.594 134.647  0.00  0.00    +0.292 HD
ENDBRANCH   2  19
BRANCH   3  21
ATOM     21  O   LIG A   1      -2.177   6.432 134.046  0.00  0.00    -0.491 OA
ATOM     22  C   LIG A   1      -1.642   7.504 134.825  0.00  0.00    +0.277 C 
ENDBRANCH   3  21
BRANCH   5  23
ATOM     23  C   LIG A   1      -3.777   8.072 129.735  0.00  0.00    +0.035 C 
BRANCH  23  24
ATOM     24  C   LIG A   1      -3.606   7.182 128.502  0.00  0.00    +0.001 C 
ATOM     25  C   LIG A   1      -2.234   6.558 128.422  0.00  0.00    +0.004 C 
ENDBRANCH  23  24
ENDBRANCH   5  23
TORSDOF 7
ENDMDL
MODEL 8
REMARK VINA RESULT:      -6.7      2.901      4.552
REMARK  Name = NuBBE_2184
REMARK  10 active torsions:
REMARK  status: ('A' for Active; 'I' for Inactive)
REMARK    1  A    between atoms: C_1  and  C_3
REMARK    2  A    between atoms: C_1  and  C_13
REMARK    3  A    between atoms: C_1  and  C_14
REMARK    4  A    between atoms: C_3  and  C_4
REMARK    5  A    between atoms: C_15  and  O_16
REMARK    6  A    between atoms: C_17  and  O_18
REMARK    7  A    between atoms: O_18  and  C_19
REMARK    8  A    between atoms: C_21  and  C_23
REMARK    9  A    between atoms: C_23  and  C_24
REMARK   10  A    between atoms: C_24  and  C_25
REMARK                            x       y       z     vdW  Elec       q    Type
REMARK                         _______ _______ _______ _____ _____    ______ ____
ROOT
ATOM      1  C   LIG A   1      -7.801  -0.454 126.336  0.00  0.00    +0.001 A 
ATOM      2  C   LIG A   1      -8.869  -0.811 125.500  0.00  0.00    +0.162 A 
ATOM      3  C   LIG A   1      -8.720  -1.489 124.284  0.00  0.00    +0.162 A 
ATOM      4  C   LIG A   1      -7.529  -2.163 124.072  0.00  0.00    +0.053 A 
ATOM      5  C   LIG A   1      -6.501  -2.076 125.018  0.00  0.00    -0.043 A 
ATOM      6  C   LIG A   1      -6.622  -1.169 126.099  0.00  0.00    +0.011 A 
ENDROOT
BRANCH   1   7
ATOM      7  C   LIG A   1      -7.852   0.710 127.361  0.00  0.00    +0.024 C 
ATOM      8  C   LIG A   1      -6.648   1.655 127.163  0.00  0.00    +0.013 C 
BRANCH   7   9
ATOM      9  C   LIG A   1      -8.021   0.408 128.905  0.00  0.00    +0.043 C 
BRANCH   9  10
ATOM     10  C   LIG A   1      -7.307  -0.810 129.545  0.00  0.00    -0.043 A 
ATOM     11  C   LIG A   1      -5.938  -0.723 129.896  0.00  0.00    +0.053 A 
ATOM     12  C   LIG A   1      -5.247  -1.905 130.099  0.00  0.00    +0.167 A 
ATOM     13  C   LIG A   1      -5.800  -3.127 129.842  0.00  0.00    +0.166 A 
ATOM     14  C   LIG A   1      -7.150  -3.257 129.546  0.00  0.00    +0.050 A 
ATOM     15  C   LIG A   1      -7.908  -2.086 129.547  0.00  0.00    +0.007 A 
ATOM     16  O   LIG A   1      -4.931  -4.156 129.933  0.00  0.00    -0.453 OA
ATOM     17  C   LIG A   1      -3.853  -3.477 130.615  0.00  0.00    +0.466 C 
ATOM     18  O   LIG A   1      -3.949  -2.041 130.513  0.00  0.00    -0.453 OA
ENDBRANCH   9  10
ENDBRANCH   7   9
ENDBRANCH   1   7
BRANCH   2  19
ATOM     19  O   LIG A   1     -10.093  -0.324 125.803  0.00  0.00    -0.503 OA
ATOM     20  H   LIG A   1     -10.611  -1.147 125.851  0.00  0.00    +0.292 HD
ENDBRANCH   2  19
BRANCH   3  21
ATOM     21  O   LIG A   1      -9.642  -1.482 123.258  0.00  0.00    -0.491 OA
ATOM     22  C   LIG A   1      -9.790  -0.326 122.431  0.00  0.00    +0.277 C 
ENDBRANCH   3  21
BRANCH   5  23
ATOM     23  C   LIG A   1      -5.306  -2.992 124.916  0.00  0.00    +0.035 C 
BRANCH  23  24
ATOM     24  C   LIG A   1      -5.027  -3.450 123.483  0.00  0.00    +0.001 C 
ATOM     25  C   LIG A   1      -4.228  -4.731 123.427  0.00  0.00    +0.004 C 
ENDBRANCH  23  24
ENDBRANCH   5  23
TORSDOF 7
ENDMDL
MODEL 9
REMARK VINA RESULT:      -6.7     10.095     13.186
REMARK  Name = NuBBE_2184
REMARK  10 active torsions:
REMARK  status: ('A' for Active; 'I' for Inactive)
REMARK    1  A    between atoms: C_1  and  C_3
REMARK    2  A    between atoms: C_1  and  C_13
REMARK    3  A    between atoms: C_1  and  C_14
REMARK    4  A    between atoms: C_3  and  C_4
REMARK    5  A    between atoms: C_15  and  O_16
REMARK    6  A    between atoms: C_17  and  O_18
REMARK    7  A    between atoms: O_18  and  C_19
REMARK    8  A    between atoms: C_21  and  C_23
REMARK    9  A    between atoms: C_23  and  C_24
REMARK   10  A    between atoms: C_24  and  C_25
REMARK                            x       y       z     vdW  Elec       q    Type
REMARK                         _______ _______ _______ _____ _____    ______ ____
ROOT
ATOM      1  C   LIG A   1      -7.125   5.523 135.265  0.00  0.00    +0.001 A 
ATOM      2  C   LIG A   1      -5.762   5.844 135.345  0.00  0.00    +0.162 A 
ATOM      3  C   LIG A   1      -5.246   6.892 136.117  0.00  0.00    +0.162 A 
ATOM      4  C   LIG A   1      -6.050   7.394 137.127  0.00  0.00    +0.053 A 
ATOM      5  C   LIG A   1      -7.354   6.910 137.286  0.00  0.00    -0.043 A 
ATOM      6  C   LIG A   1      -7.898   6.036 136.313  0.00  0.00    +0.011 A 
ENDROOT
BRANCH   1   7
ATOM      7  C   LIG A   1      -7.772   4.771 134.072  0.00  0.00    +0.024 C 
ATOM      8  C   LIG A   1      -7.362   3.283 134.087  0.00  0.00    +0.013 C 
BRANCH   7   9
ATOM      9  C   LIG A   1      -7.626   5.331 132.600  0.00  0.00    +0.043 C 
BRANCH   9  10
ATOM     10  C   LIG A   1      -8.750   6.201 131.980  0.00  0.00    -0.043 A 
ATOM     11  C   LIG A   1     -10.093   6.016 132.387  0.00  0.00    +0.053 A 
ATOM     12  C   LIG A   1     -11.091   6.516 131.568  0.00  0.00    +0.167 A 
ATOM     13  C   LIG A   1     -10.828   7.049 130.339  0.00  0.00    +0.166 A 
ATOM     14  C   LIG A   1      -9.525   7.293 129.926  0.00  0.00    +0.050 A 
ATOM     15  C   LIG A   1      -8.511   6.989 130.834  0.00  0.00    +0.007 A 
ATOM     16  O   LIG A   1     -11.928   7.328 129.611  0.00  0.00    -0.453 OA
ATOM     17  C   LIG A   1     -12.918   7.233 130.659  0.00  0.00    +0.466 C 
ATOM     18  O   LIG A   1     -12.438   6.510 131.812  0.00  0.00    -0.453 OA
ENDBRANCH   9  10
ENDBRANCH   7   9
ENDBRANCH   1   7
BRANCH   2  19
ATOM     19  O   LIG A   1      -4.919   5.213 134.496  0.00  0.00    -0.503 OA
ATOM     20  H   LIG A   1      -4.190   4.984 135.100  0.00  0.00    +0.292 HD
ENDBRANCH   2  19
BRANCH   3  21
ATOM     21  O   LIG A   1      -4.028   7.504 135.906  0.00  0.00    -0.491 OA
ATOM     22  C   LIG A   1      -3.410   8.257 136.952  0.00  0.00    +0.277 C 
ENDBRANCH   3  21
BRANCH   5  23
ATOM     23  C   LIG A   1      -8.144   7.270 138.520  0.00  0.00    +0.035 C 
BRANCH  23  24
ATOM     24  C   LIG A   1      -8.630   8.722 138.515  0.00  0.00    +0.001 C 
ATOM     25  C   LIG A   1      -9.544   9.024 137.351  0.00  0.00    +0.004 C 
ENDBRANCH  23  24
ENDBRANCH   5  23
TORSDOF 7
ENDMDL
