MODEL 1
REMARK VINA RESULT:      -7.4      0.000      0.000
REMARK  Name = NuBBE_435
REMARK  4 active torsions:
REMARK  status: ('A' for Active; 'I' for Inactive)
REMARK    1  A    between atoms: C_9  and  C_10
REMARK    2  A    between atoms: C_21  and  C_22
REMARK    3  A    between atoms: C_22  and  O_23
REMARK    4  A    between atoms: O_23  and  C_24
REMARK                            x       y       z     vdW  Elec       q    Type
REMARK                         _______ _______ _______ _____ _____    ______ ____
ROOT
ATOM      1  C   LIG A   1     -11.475   7.994 130.293  0.00  0.00    +0.065 C 
ATOM      2  C   LIG A   1     -12.459   7.367 131.248  0.00  0.00    -0.018 C 
ATOM      3  C   LIG A   1     -12.035   6.200 131.745  0.00  0.00    +0.020 C 
ATOM      4  C   LIG A   1     -10.672   5.856 131.255  0.00  0.00    +0.172 C 
ATOM      5  C   LIG A   1     -10.477   4.654 130.364  0.00  0.00    +0.207 C 
ATOM      6  C   LIG A   1      -9.926   3.645 131.296  0.00  0.00    +0.065 C 
ATOM      7  C   LIG A   1      -9.970   2.316 131.107  0.00  0.00    -0.017 C 
ATOM      8  C   LIG A   1      -9.455   1.238 132.004  0.00  0.00    +0.036 C 
ATOM      9  O   LIG A   1      -9.473   5.046 129.421  0.00  0.00    -0.329 OA
ATOM     10  O   LIG A   1      -9.786   5.693 132.362  0.00  0.00    -0.447 OA
ATOM     11  C   LIG A   1      -9.397   4.388 132.465  0.00  0.00    +0.338 C 
ATOM     12  O   LIG A   1      -8.725   3.941 133.373  0.00  0.00    -0.245 OA
ATOM     13  C   LIG A   1     -10.263   7.052 130.394  0.00  0.00    +0.120 C 
ATOM     14  C   LIG A   1      -9.765   6.417 129.098  0.00  0.00    +0.315 C 
ATOM     15  O   LIG A   1     -10.635   6.409 127.971  0.00  0.00    -0.470 OA
ATOM     16  C   LIG A   1     -11.610   7.349 127.905  0.00  0.00    +0.201 C 
ATOM     17  C   LIG A   1     -12.040   8.112 128.916  0.00  0.00    +0.078 C 
ENDROOT
BRANCH  17  18
ATOM     18  C   LIG A   1     -13.123   9.106 128.691  0.00  0.00    +0.338 C 
ATOM     19  O   LIG A   1     -13.886   9.064 127.739  0.00  0.00    -0.245 OA
BRANCH  18  20
ATOM     20  O   LIG A   1     -13.088  10.071 129.645  0.00  0.00    -0.465 OA
ATOM     21  C   LIG A   1     -13.817  11.262 129.348  0.00  0.00    +0.280 C 
ENDBRANCH  18  20
ENDBRANCH  17  18
TORSDOF 2
ENDMDL
MODEL 2
REMARK VINA RESULT:      -7.2      2.529      6.149
REMARK  Name = NuBBE_435
REMARK  4 active torsions:
REMARK  status: ('A' for Active; 'I' for Inactive)
REMARK    1  A    between atoms: C_9  and  C_10
REMARK    2  A    between atoms: C_21  and  C_22
REMARK    3  A    between atoms: C_22  and  O_23
REMARK    4  A    between atoms: O_23  and  C_24
REMARK                            x       y       z     vdW  Elec       q    Type
REMARK                         _______ _______ _______ _____ _____    ______ ____
ROOT
ATOM      1  C   LIG A   1      -8.050   4.762 132.071  0.00  0.00    +0.065 C 
ATOM      2  C   LIG A   1      -7.828   6.200 131.674  0.00  0.00    -0.018 C 
ATOM      3  C   LIG A   1      -8.927   6.784 131.185  0.00  0.00    +0.020 C 
ATOM      4  C   LIG A   1     -10.097   5.862 131.209  0.00  0.00    +0.172 C 
ATOM      5  C   LIG A   1     -10.713   5.400 129.912  0.00  0.00    +0.207 C 
ATOM      6  C   LIG A   1     -11.926   6.242 129.810  0.00  0.00    +0.065 C 
ATOM      7  C   LIG A   1     -12.582   6.514 128.670  0.00  0.00    -0.017 C 
ATOM      8  C   LIG A   1     -13.797   7.363 128.485  0.00  0.00    +0.036 C 
ATOM      9  O   LIG A   1     -11.084   4.035 130.139  0.00  0.00    -0.329 OA
ATOM     10  O   LIG A   1     -11.150   6.438 131.981  0.00  0.00    -0.447 OA
ATOM     11  C   LIG A   1     -12.207   6.751 131.174  0.00  0.00    +0.338 C 
ATOM     12  O   LIG A   1     -13.201   7.344 131.544  0.00  0.00    -0.245 OA
ATOM     13  C   LIG A   1      -9.565   4.588 131.867  0.00  0.00    +0.120 C 
ATOM     14  C   LIG A   1     -10.018   3.475 130.925  0.00  0.00    +0.315 C 
ATOM     15  O   LIG A   1      -9.067   2.929 130.018  0.00  0.00    -0.470 OA
ATOM     16  C   LIG A   1      -7.750   3.025 130.330  0.00  0.00    +0.201 C 
ATOM     17  C   LIG A   1      -7.216   3.830 131.255  0.00  0.00    +0.078 C 
ENDROOT
BRANCH  17  18
ATOM     18  C   LIG A   1      -5.747   3.825 131.488  0.00  0.00    +0.338 C 
ATOM     19  O   LIG A   1      -5.244   3.825 132.600  0.00  0.00    -0.245 OA
BRANCH  18  20
ATOM     20  O   LIG A   1      -5.078   3.883 130.309  0.00  0.00    -0.465 OA
ATOM     21  C   LIG A   1      -4.695   5.190 129.878  0.00  0.00    +0.280 C 
ENDBRANCH  18  20
ENDBRANCH  17  18
TORSDOF 2
ENDMDL
MODEL 3
REMARK VINA RESULT:      -7.2      9.485     10.457
REMARK  Name = NuBBE_435
REMARK  4 active torsions:
REMARK  status: ('A' for Active; 'I' for Inactive)
REMARK    1  A    between atoms: C_9  and  C_10
REMARK    2  A    between atoms: C_21  and  C_22
REMARK    3  A    between atoms: C_22  and  O_23
REMARK    4  A    between atoms: O_23  and  C_24
REMARK                            x       y       z     vdW  Elec       q    Type
REMARK                         _______ _______ _______ _____ _____    ______ ____
ROOT
ATOM      1  C   LIG A   1      -8.553  -2.032 126.556  0.00  0.00    +0.065 C 
ATOM      2  C   LIG A   1      -9.226  -3.327 126.938  0.00  0.00    -0.018 C 
ATOM      3  C   LIG A   1      -8.771  -3.833 128.089  0.00  0.00    +0.020 C 
ATOM      4  C   LIG A   1      -7.748  -2.949 128.713  0.00  0.00    +0.172 C 
ATOM      5  C   LIG A   1      -6.323  -3.428 128.844  0.00  0.00    +0.207 C 
ATOM      6  C   LIG A   1      -6.239  -3.809 130.271  0.00  0.00    +0.065 C 
ATOM      7  C   LIG A   1      -5.340  -4.661 130.790  0.00  0.00    -0.017 C 
ATOM      8  C   LIG A   1      -5.201  -5.106 132.210  0.00  0.00    +0.036 C 
ATOM      9  O   LIG A   1      -5.515  -2.271 128.599  0.00  0.00    -0.329 OA
ATOM     10  O   LIG A   1      -8.173  -2.564 130.020  0.00  0.00    -0.447 OA
ATOM     11  C   LIG A   1      -7.357  -3.123 130.963  0.00  0.00    +0.338 C 
ATOM     12  O   LIG A   1      -7.542  -3.049 132.161  0.00  0.00    -0.245 OA
ATOM     13  C   LIG A   1      -7.670  -1.739 127.781  0.00  0.00    +0.120 C 
ATOM     14  C   LIG A   1      -6.174  -1.563 127.534  0.00  0.00    +0.315 C 
ATOM     15  O   LIG A   1      -5.630  -2.042 126.309  0.00  0.00    -0.470 OA
ATOM     16  C   LIG A   1      -6.458  -2.164 125.242  0.00  0.00    +0.201 C 
ATOM     17  C   LIG A   1      -7.794  -2.162 125.276  0.00  0.00    +0.078 C 
ENDROOT
BRANCH  17  18
ATOM     18  C   LIG A   1      -8.573  -2.304 124.017  0.00  0.00    +0.338 C 
ATOM     19  O   LIG A   1      -8.384  -3.198 123.208  0.00  0.00    -0.245 OA
BRANCH  18  20
ATOM     20  O   LIG A   1      -9.454  -1.280 123.884  0.00  0.00    -0.465 OA
ATOM     21  C   LIG A   1      -8.932  -0.086 123.302  0.00  0.00    +0.280 C 
ENDBRANCH  18  20
ENDBRANCH  17  18
TORSDOF 2
ENDMDL
MODEL 4
REMARK VINA RESULT:      -7.0      7.575      9.588
REMARK  Name = NuBBE_435
REMARK  4 active torsions:
REMARK  status: ('A' for Active; 'I' for Inactive)
REMARK    1  A    between atoms: C_9  and  C_10
REMARK    2  A    between atoms: C_21  and  C_22
REMARK    3  A    between atoms: C_22  and  O_23
REMARK    4  A    between atoms: O_23  and  C_24
REMARK                            x       y       z     vdW  Elec       q    Type
REMARK                         _______ _______ _______ _____ _____    ______ ____
ROOT
ATOM      1  C   LIG A   1      -7.799   1.548 122.937  0.00  0.00    +0.065 C 
ATOM      2  C   LIG A   1      -6.573   0.675 123.047  0.00  0.00    -0.018 C 
ATOM      3  C   LIG A   1      -6.797  -0.459 123.719  0.00  0.00    +0.020 C 
ATOM      4  C   LIG A   1      -8.220  -0.578 124.141  0.00  0.00    +0.172 C 
ATOM      5  C   LIG A   1      -8.572  -0.557 125.608  0.00  0.00    +0.207 C 
ATOM      6  C   LIG A   1      -8.815  -1.986 125.904  0.00  0.00    +0.065 C 
ATOM      7  C   LIG A   1      -8.752  -2.542 127.125  0.00  0.00    -0.017 C 
ATOM      8  C   LIG A   1      -8.967  -3.972 127.500  0.00  0.00    +0.036 C 
ATOM      9  O   LIG A   1      -9.801   0.174 125.687  0.00  0.00    -0.329 OA
ATOM     10  O   LIG A   1      -8.786  -1.771 123.600  0.00  0.00    -0.447 OA
ATOM     11  C   LIG A   1      -9.069  -2.654 124.604  0.00  0.00    +0.338 C 
ATOM     12  O   LIG A   1      -9.464  -3.789 124.429  0.00  0.00    -0.245 OA
ATOM     13  C   LIG A   1      -8.895   0.665 123.558  0.00  0.00    +0.120 C 
ATOM     14  C   LIG A   1      -9.672   1.246 124.737  0.00  0.00    +0.315 C 
ATOM     15  O   LIG A   1      -9.117   2.359 125.429  0.00  0.00    -0.470 OA
ATOM     16  C   LIG A   1      -8.240   3.155 124.768  0.00  0.00    +0.201 C 
ATOM     17  C   LIG A   1      -7.608   2.857 123.629  0.00  0.00    +0.078 C 
ENDROOT
BRANCH  17  18
ATOM     18  C   LIG A   1      -6.670   3.836 123.017  0.00  0.00    +0.338 C 
ATOM     19  O   LIG A   1      -5.965   4.588 123.671  0.00  0.00    -0.245 OA
BRANCH  18  20
ATOM     20  O   LIG A   1      -6.768   3.807 121.664  0.00  0.00    -0.465 OA
ATOM     21  C   LIG A   1      -5.529   3.779 120.954  0.00  0.00    +0.280 C 
ENDBRANCH  18  20
ENDBRANCH  17  18
TORSDOF 2
ENDMDL
MODEL 5
REMARK VINA RESULT:      -7.0      1.971      6.876
REMARK  Name = NuBBE_435
REMARK  4 active torsions:
REMARK  status: ('A' for Active; 'I' for Inactive)
REMARK    1  A    between atoms: C_9  and  C_10
REMARK    2  A    between atoms: C_21  and  C_22
REMARK    3  A    between atoms: C_22  and  O_23
REMARK    4  A    between atoms: O_23  and  C_24
REMARK                            x       y       z     vdW  Elec       q    Type
REMARK                         _______ _______ _______ _____ _____    ______ ____
ROOT
ATOM      1  C   LIG A   1      -7.479   3.817 131.473  0.00  0.00    +0.065 C 
ATOM      2  C   LIG A   1      -8.165   3.360 130.210  0.00  0.00    -0.018 C 
ATOM      3  C   LIG A   1      -9.032   4.258 129.731  0.00  0.00    +0.020 C 
ATOM      4  C   LIG A   1      -9.052   5.498 130.556  0.00  0.00    +0.172 C 
ATOM      5  C   LIG A   1     -10.295   5.867 131.326  0.00  0.00    +0.207 C 
ATOM      6  C   LIG A   1     -10.892   6.931 130.488  0.00  0.00    +0.065 C 
ATOM      7  C   LIG A   1     -12.185   7.294 130.508  0.00  0.00    -0.017 C 
ATOM      8  C   LIG A   1     -12.863   8.341 129.686  0.00  0.00    +0.036 C 
ATOM      9  O   LIG A   1      -9.821   6.424 132.557  0.00  0.00    -0.329 OA
ATOM     10  O   LIG A   1      -8.723   6.625 129.743  0.00  0.00    -0.447 OA
ATOM     11  C   LIG A   1      -9.810   7.443 129.613  0.00  0.00    +0.338 C 
ATOM     12  O   LIG A   1      -9.849   8.423 128.896  0.00  0.00    -0.245 OA
ATOM     13  C   LIG A   1      -7.984   5.262 131.625  0.00  0.00    +0.120 C 
ATOM     14  C   LIG A   1      -8.689   5.619 132.931  0.00  0.00    +0.315 C 
ATOM     15  O   LIG A   1      -9.176   4.560 133.748  0.00  0.00    -0.470 OA
ATOM     16  C   LIG A   1      -8.596   3.339 133.631  0.00  0.00    +0.201 C 
ATOM     17  C   LIG A   1      -7.809   2.933 132.630  0.00  0.00    +0.078 C 
ENDROOT
BRANCH  17  18
ATOM     18  C   LIG A   1      -7.241   1.558 132.640  0.00  0.00    +0.338 C 
ATOM     19  O   LIG A   1      -6.074   1.312 132.380  0.00  0.00    -0.245 OA
BRANCH  18  20
ATOM     20  O   LIG A   1      -8.209   0.646 132.912  0.00  0.00    -0.465 OA
ATOM     21  C   LIG A   1      -8.860   0.077 131.775  0.00  0.00    +0.280 C 
ENDBRANCH  18  20
ENDBRANCH  17  18
TORSDOF 2
ENDMDL
MODEL 6
REMARK VINA RESULT:      -6.8      1.570      6.431
REMARK  Name = NuBBE_435
REMARK  4 active torsions:
REMARK  status: ('A' for Active; 'I' for Inactive)
REMARK    1  A    between atoms: C_9  and  C_10
REMARK    2  A    between atoms: C_21  and  C_22
REMARK    3  A    between atoms: C_22  and  O_23
REMARK    4  A    between atoms: O_23  and  C_24
REMARK                            x       y       z     vdW  Elec       q    Type
REMARK                         _______ _______ _______ _____ _____    ______ ____
ROOT
ATOM      1  C   LIG A   1      -9.369   4.189 130.548  0.00  0.00    +0.065 C 
ATOM      2  C   LIG A   1     -10.831   3.821 130.612  0.00  0.00    -0.018 C 
ATOM      3  C   LIG A   1     -11.632   4.772 130.120  0.00  0.00    +0.020 C 
ATOM      4  C   LIG A   1     -10.855   5.929 129.594  0.00  0.00    +0.172 C 
ATOM      5  C   LIG A   1     -10.968   7.275 130.265  0.00  0.00    +0.207 C 
ATOM      6  C   LIG A   1     -11.867   8.018 129.353  0.00  0.00    +0.065 C 
ATOM      7  C   LIG A   1     -12.598   9.090 129.697  0.00  0.00    -0.017 C 
ATOM      8  C   LIG A   1     -13.536   9.880 128.844  0.00  0.00    +0.036 C 
ATOM      9  O   LIG A   1      -9.649   7.832 130.210  0.00  0.00    -0.329 OA
ATOM     10  O   LIG A   1     -11.163   6.130 128.215  0.00  0.00    -0.447 OA
ATOM     11  C   LIG A   1     -11.834   7.310 128.051  0.00  0.00    +0.338 C 
ATOM     12  O   LIG A   1     -12.308   7.689 126.999  0.00  0.00    -0.245 OA
ATOM     13  C   LIG A   1      -9.393   5.520 129.777  0.00  0.00    +0.120 C 
ATOM     14  C   LIG A   1      -8.758   6.730 130.458  0.00  0.00    +0.315 C 
ATOM     15  O   LIG A   1      -8.536   6.675 131.863  0.00  0.00    -0.470 OA
ATOM     16  C   LIG A   1      -8.414   5.458 132.448  0.00  0.00    +0.201 C 
ATOM     17  C   LIG A   1      -8.765   4.286 131.909  0.00  0.00    +0.078 C 
ENDROOT
BRANCH  17  18
ATOM     18  C   LIG A   1      -8.569   3.025 132.675  0.00  0.00    +0.338 C 
ATOM     19  O   LIG A   1      -8.872   2.900 133.850  0.00  0.00    -0.245 OA
BRANCH  18  20
ATOM     20  O   LIG A   1      -7.963   2.089 131.902  0.00  0.00    -0.465 OA
ATOM     21  C   LIG A   1      -8.580   0.801 131.890  0.00  0.00    +0.280 C 
ENDBRANCH  18  20
ENDBRANCH  17  18
TORSDOF 2
ENDMDL
MODEL 7
REMARK VINA RESULT:      -6.8      2.028      2.820
REMARK  Name = NuBBE_435
REMARK  4 active torsions:
REMARK  status: ('A' for Active; 'I' for Inactive)
REMARK    1  A    between atoms: C_9  and  C_10
REMARK    2  A    between atoms: C_21  and  C_22
REMARK    3  A    between atoms: C_22  and  O_23
REMARK    4  A    between atoms: O_23  and  C_24
REMARK                            x       y       z     vdW  Elec       q    Type
REMARK                         _______ _______ _______ _____ _____    ______ ____
ROOT
ATOM      1  C   LIG A   1     -11.090   5.701 130.963  0.00  0.00    +0.065 C 
ATOM      2  C   LIG A   1     -11.256   4.345 130.324  0.00  0.00    -0.018 C 
ATOM      3  C   LIG A   1     -10.263   3.501 130.622  0.00  0.00    +0.020 C 
ATOM      4  C   LIG A   1      -9.276   4.118 131.551  0.00  0.00    +0.172 C 
ATOM      5  C   LIG A   1      -7.866   4.379 131.083  0.00  0.00    +0.207 C 
ATOM      6  C   LIG A   1      -7.108   3.269 131.703  0.00  0.00    +0.065 C 
ATOM      7  C   LIG A   1      -5.920   2.813 131.273  0.00  0.00    -0.017 C 
ATOM      8  C   LIG A   1      -5.104   1.693 131.832  0.00  0.00    +0.036 C 
ATOM      9  O   LIG A   1      -7.495   5.622 131.688  0.00  0.00    -0.329 OA
ATOM     10  O   LIG A   1      -9.175   3.333 132.739  0.00  0.00    -0.447 OA
ATOM     11  C   LIG A   1      -7.941   2.752 132.815  0.00  0.00    +0.338 C 
ATOM     12  O   LIG A   1      -7.610   1.952 133.667  0.00  0.00    -0.245 OA
ATOM     13  C   LIG A   1      -9.851   5.502 131.853  0.00  0.00    +0.120 C 
ATOM     14  C   LIG A   1      -8.673   6.445 131.626  0.00  0.00    +0.315 C 
ATOM     15  O   LIG A   1      -8.615   7.173 130.404  0.00  0.00    -0.470 OA
ATOM     16  C   LIG A   1      -9.773   7.403 129.737  0.00  0.00    +0.201 C 
ATOM     17  C   LIG A   1     -10.938   6.778 129.940  0.00  0.00    +0.078 C 
ENDROOT
BRANCH  17  18
ATOM     18  C   LIG A   1     -12.130   7.140 129.127  0.00  0.00    +0.338 C 
ATOM     19  O   LIG A   1     -12.462   6.538 128.119  0.00  0.00    -0.245 OA
BRANCH  18  20
ATOM     20  O   LIG A   1     -12.731   8.246 129.633  0.00  0.00    -0.465 OA
ATOM     21  C   LIG A   1     -13.143   9.220 128.673  0.00  0.00    +0.280 C 
ENDBRANCH  18  20
ENDBRANCH  17  18
TORSDOF 2
ENDMDL
MODEL 8
REMARK VINA RESULT:      -6.7      8.451     10.608
REMARK  Name = NuBBE_435
REMARK  4 active torsions:
REMARK  status: ('A' for Active; 'I' for Inactive)
REMARK    1  A    between atoms: C_9  and  C_10
REMARK    2  A    between atoms: C_21  and  C_22
REMARK    3  A    between atoms: C_22  and  O_23
REMARK    4  A    between atoms: O_23  and  C_24
REMARK                            x       y       z     vdW  Elec       q    Type
REMARK                         _______ _______ _______ _____ _____    ______ ____
ROOT
ATOM      1  C   LIG A   1      -8.405  -0.198 125.088  0.00  0.00    +0.065 C 
ATOM      2  C   LIG A   1      -6.914  -0.378 125.227  0.00  0.00    -0.018 C 
ATOM      3  C   LIG A   1      -6.215   0.652 124.740  0.00  0.00    +0.020 C 
ATOM      4  C   LIG A   1      -7.106   1.731 124.230  0.00  0.00    +0.172 C 
ATOM      5  C   LIG A   1      -7.123   2.056 122.757  0.00  0.00    +0.207 C 
ATOM      6  C   LIG A   1      -6.309   3.290 122.687  0.00  0.00    +0.065 C 
ATOM      7  C   LIG A   1      -5.684   3.741 121.587  0.00  0.00    -0.017 C 
ATOM      8  C   LIG A   1      -4.836   4.962 121.442  0.00  0.00    +0.036 C 
ATOM      9  O   LIG A   1      -8.490   2.356 122.455  0.00  0.00    -0.329 OA
ATOM     10  O   LIG A   1      -6.830   2.951 124.916  0.00  0.00    -0.447 OA
ATOM     11  C   LIG A   1      -6.281   3.860 124.056  0.00  0.00    +0.338 C 
ATOM     12  O   LIG A   1      -5.855   4.948 124.387  0.00  0.00    -0.245 OA
ATOM     13  C   LIG A   1      -8.519   1.234 124.538  0.00  0.00    +0.120 C 
ATOM     14  C   LIG A   1      -9.266   1.415 123.218  0.00  0.00    +0.315 C 
ATOM     15  O   LIG A   1      -9.471   0.272 122.395  0.00  0.00    -0.470 OA
ATOM     16  C   LIG A   1      -9.467  -0.952 122.982  0.00  0.00    +0.201 C 
ATOM     17  C   LIG A   1      -9.006  -1.239 124.203  0.00  0.00    +0.078 C 
ENDROOT
BRANCH  17  18
ATOM     18  C   LIG A   1      -9.070  -2.635 124.714  0.00  0.00    +0.338 C 
ATOM     19  O   LIG A   1      -8.635  -3.595 124.100  0.00  0.00    -0.245 OA
BRANCH  18  20
ATOM     20  O   LIG A   1      -9.723  -2.675 125.903  0.00  0.00    -0.465 OA
ATOM     21  C   LIG A   1      -9.062  -3.390 126.948  0.00  0.00    +0.280 C 
ENDBRANCH  18  20
ENDBRANCH  17  18
TORSDOF 2
ENDMDL
MODEL 9
REMARK VINA RESULT:      -6.6      3.060      4.015
REMARK  Name = NuBBE_435
REMARK  4 active torsions:
REMARK  status: ('A' for Active; 'I' for Inactive)
REMARK    1  A    between atoms: C_9  and  C_10
REMARK    2  A    between atoms: C_21  and  C_22
REMARK    3  A    between atoms: C_22  and  O_23
REMARK    4  A    between atoms: O_23  and  C_24
REMARK                            x       y       z     vdW  Elec       q    Type
REMARK                         _______ _______ _______ _____ _____    ______ ____
ROOT
ATOM      1  C   LIG A   1      -9.650   6.154 129.742  0.00  0.00    +0.065 C 
ATOM      2  C   LIG A   1      -8.916   7.024 130.732  0.00  0.00    -0.018 C 
ATOM      3  C   LIG A   1      -7.711   6.544 131.058  0.00  0.00    +0.020 C 
ATOM      4  C   LIG A   1      -7.398   5.293 130.314  0.00  0.00    +0.172 C 
ATOM      5  C   LIG A   1      -7.255   3.991 131.062  0.00  0.00    +0.207 C 
ATOM      6  C   LIG A   1      -5.788   3.810 131.124  0.00  0.00    +0.065 C 
ATOM      7  C   LIG A   1      -5.142   3.047 132.020  0.00  0.00    -0.017 C 
ATOM      8  C   LIG A   1      -3.671   2.828 132.157  0.00  0.00    +0.036 C 
ATOM      9  O   LIG A   1      -7.833   3.000 130.203  0.00  0.00    -0.329 OA
ATOM     10  O   LIG A   1      -6.197   5.467 129.561  0.00  0.00    -0.447 OA
ATOM     11  C   LIG A   1      -5.207   4.672 130.066  0.00  0.00    +0.338 C 
ATOM     12  O   LIG A   1      -4.053   4.688 129.686  0.00  0.00    -0.245 OA
ATOM     13  C   LIG A   1      -8.600   5.086 129.391  0.00  0.00    +0.120 C 
ATOM     14  C   LIG A   1      -8.988   3.627 129.619  0.00  0.00    +0.315 C 
ATOM     15  O   LIG A   1     -10.095   3.347 130.470  0.00  0.00    -0.470 OA
ATOM     16  C   LIG A   1     -11.038   4.308 130.635  0.00  0.00    +0.201 C 
ATOM     17  C   LIG A   1     -10.910   5.601 130.322  0.00  0.00    +0.078 C 
ENDROOT
BRANCH  17  18
ATOM     18  C   LIG A   1     -12.037   6.542 130.561  0.00  0.00    +0.338 C 
ATOM     19  O   LIG A   1     -12.600   6.655 131.638  0.00  0.00    -0.245 OA
BRANCH  18  20
ATOM     20  O   LIG A   1     -12.370   7.185 129.414  0.00  0.00    -0.465 OA
ATOM     21  C   LIG A   1     -12.461   8.608 129.506  0.00  0.00    +0.280 C 
ENDBRANCH  18  20
ENDBRANCH  17  18
TORSDOF 2
ENDMDL
