MODEL 1
REMARK VINA RESULT:      -9.1      0.000      0.000
REMARK  Name = NuBBE_366
REMARK  10 active torsions:
REMARK  status: ('A' for Active; 'I' for Inactive)
REMARK    1  A    between atoms: C_1  and  C_2
REMARK    2  A    between atoms: C_3  and  C_38
REMARK    3  A    between atoms: C_8  and  C_9
REMARK    4  A    between atoms: C_8  and  C_37
REMARK    5  A    between atoms: C_10  and  O_36
REMARK    6  A    between atoms: C_14  and  C_35
REMARK    7  A    between atoms: C_22  and  C_23
REMARK    8  A    between atoms: C_23  and  O_24
REMARK    9  A    between atoms: C_29  and  C_34
REMARK   10  A    between atoms: C_31  and  C_33
REMARK                            x       y       z     vdW  Elec       q    Type
REMARK                         _______ _______ _______ _____ _____    ______ ____
ROOT
ATOM      1  C   LIG A   1      -7.350  -2.712 132.086  0.00  0.00    +0.016 C 
ATOM      2  C   LIG A   1      -7.062  -1.939 130.750  0.00  0.00    -0.005 C 
ATOM      3  C   LIG A   1      -6.781  -3.047 129.572  0.00  0.00    -0.019 C 
ATOM      4  C   LIG A   1      -8.087  -3.600 128.937  0.00  0.00    +0.008 C 
ATOM      5  C   LIG A   1      -8.626  -2.839 127.726  0.00  0.00    +0.005 C 
ATOM      6  C   LIG A   1      -7.553  -2.716 126.631  0.00  0.00    +0.003 C 
ATOM      7  C   LIG A   1      -8.106  -2.348 125.203  0.00  0.00    -0.006 C 
ATOM      8  C   LIG A   1      -9.128  -3.425 124.738  0.00  0.00    +0.014 C 
ATOM      9  C   LIG A   1      -6.920  -2.386 124.196  0.00  0.00    +0.120 C 
ATOM     10  C   LIG A   1      -5.713  -1.563 124.630  0.00  0.00    +0.032 C 
ATOM     11  C   LIG A   1      -5.224  -1.942 126.027  0.00  0.00    +0.010 C 
ATOM     12  C   LIG A   1      -6.323  -1.876 127.141  0.00  0.00    -0.025 C 
ATOM     13  C   LIG A   1      -5.765  -2.591 128.451  0.00  0.00    +0.006 C 
ATOM     14  C   LIG A   1      -4.505  -1.966 129.083  0.00  0.00    +0.031 C 
ATOM     15  C   LIG A   1      -4.738  -1.079 130.263  0.00  0.00    -0.026 C 
ATOM     16  C   LIG A   1      -5.871  -0.976 130.979  0.00  0.00    -0.063 C 
ATOM     17  C   LIG A   1      -6.078   0.088 132.086  0.00  0.00    +0.027 C 
ATOM     18  C   LIG A   1      -7.356   0.962 131.828  0.00  0.00    +0.001 C 
ATOM     19  C   LIG A   1      -8.572   0.025 131.571  0.00  0.00    +0.010 C 
ATOM     20  C   LIG A   1      -8.310  -1.045 130.497  0.00  0.00    +0.012 C 
ATOM     21  C   LIG A   1      -7.671   1.783 133.111  0.00  0.00    +0.010 C 
ATOM     22  C   LIG A   1      -6.484   2.577 133.659  0.00  0.00    +0.004 C 
ATOM     23  C   LIG A   1      -5.215   1.732 133.866  0.00  0.00    -0.011 C 
ATOM     24  C   LIG A   1      -4.846   0.921 132.589  0.00  0.00    -0.003 C 
ATOM     25  C   LIG A   1      -4.175   1.868 131.576  0.00  0.00    +0.008 C 
ATOM     26  C   LIG A   1      -5.347   0.835 135.104  0.00  0.00    +0.008 C 
ATOM     27  C   LIG A   1      -6.634  -0.387 127.382  0.00  0.00    +0.012 C 
ATOM     28  C   LIG A   1      -8.858  -1.003 125.155  0.00  0.00    +0.014 C 
ATOM     29  C   LIG A   1      -6.093  -4.318 130.214  0.00  0.00    +0.012 C 
ENDROOT
BRANCH   9  30
ATOM     30  O   LIG A   1      -7.321  -1.969 122.892  0.00  0.00    -0.391 OA
ATOM     31  H   LIG A   1      -8.247  -2.234 122.758  0.00  0.00    +0.210 HD
ENDBRANCH   9  30
BRANCH  18  32
ATOM     32  C   LIG A   1      -7.188   1.925 130.620  0.00  0.00    +0.163 C 
BRANCH  32  33
ATOM     33  O   LIG A   1      -8.263   2.857 130.513  0.00  0.00    -0.394 OA
ATOM     34  H   LIG A   1      -7.999   3.532 129.866  0.00  0.00    +0.209 HD
ENDBRANCH  32  33
ENDBRANCH  18  32
TORSDOF 3
ENDMDL
MODEL 2
REMARK VINA RESULT:      -8.7      2.449      7.800
REMARK  Name = NuBBE_366
REMARK  10 active torsions:
REMARK  status: ('A' for Active; 'I' for Inactive)
REMARK    1  A    between atoms: C_1  and  C_2
REMARK    2  A    between atoms: C_3  and  C_38
REMARK    3  A    between atoms: C_8  and  C_9
REMARK    4  A    between atoms: C_8  and  C_37
REMARK    5  A    between atoms: C_10  and  O_36
REMARK    6  A    between atoms: C_14  and  C_35
REMARK    7  A    between atoms: C_22  and  C_23
REMARK    8  A    between atoms: C_23  and  O_24
REMARK    9  A    between atoms: C_29  and  C_34
REMARK   10  A    between atoms: C_31  and  C_33
REMARK                            x       y       z     vdW  Elec       q    Type
REMARK                         _______ _______ _______ _____ _____    ______ ____
ROOT
ATOM      1  C   LIG A   1      -4.610   1.781 126.453  0.00  0.00    +0.016 C 
ATOM      2  C   LIG A   1      -5.908   1.702 127.333  0.00  0.00    -0.005 C 
ATOM      3  C   LIG A   1      -5.570   2.368 128.796  0.00  0.00    -0.019 C 
ATOM      4  C   LIG A   1      -5.696   3.917 128.799  0.00  0.00    +0.008 C 
ATOM      5  C   LIG A   1      -7.070   4.484 129.153  0.00  0.00    +0.005 C 
ATOM      6  C   LIG A   1      -7.556   3.942 130.508  0.00  0.00    +0.003 C 
ATOM      7  C   LIG A   1      -8.725   4.766 131.168  0.00  0.00    -0.006 C 
ATOM      8  C   LIG A   1      -8.275   6.239 131.387  0.00  0.00    +0.014 C 
ATOM      9  C   LIG A   1      -9.011   4.166 132.575  0.00  0.00    +0.120 C 
ATOM     10  C   LIG A   1      -9.234   2.659 132.571  0.00  0.00    +0.032 C 
ATOM     11  C   LIG A   1      -8.085   1.903 131.906  0.00  0.00    +0.010 C 
ATOM     12  C   LIG A   1      -7.749   2.381 130.452  0.00  0.00    -0.025 C 
ATOM     13  C   LIG A   1      -6.356   1.742 130.015  0.00  0.00    +0.006 C 
ATOM     14  C   LIG A   1      -6.300   0.202 129.962  0.00  0.00    +0.031 C 
ATOM     15  C   LIG A   1      -6.445  -0.411 128.608  0.00  0.00    -0.026 C 
ATOM     16  C   LIG A   1      -6.359   0.223 127.426  0.00  0.00    -0.063 C 
ATOM     17  C   LIG A   1      -6.683  -0.459 126.073  0.00  0.00    +0.027 C 
ATOM     18  C   LIG A   1      -7.780   0.325 125.269  0.00  0.00    +0.001 C 
ATOM     19  C   LIG A   1      -7.370   1.824 125.176  0.00  0.00    +0.010 C 
ATOM     20  C   LIG A   1      -7.012   2.452 126.534  0.00  0.00    +0.012 C 
ATOM     21  C   LIG A   1      -7.831  -0.229 123.816  0.00  0.00    +0.010 C 
ATOM     22  C   LIG A   1      -7.973  -1.749 123.726  0.00  0.00    +0.004 C 
ATOM     23  C   LIG A   1      -6.929  -2.520 124.554  0.00  0.00    -0.011 C 
ATOM     24  C   LIG A   1      -6.874  -2.017 126.026  0.00  0.00    -0.003 C 
ATOM     25  C   LIG A   1      -8.071  -2.604 126.798  0.00  0.00    +0.008 C 
ATOM     26  C   LIG A   1      -5.553  -2.483 123.876  0.00  0.00    +0.008 C 
ATOM     27  C   LIG A   1      -8.906   1.921 129.546  0.00  0.00    +0.012 C 
ATOM     28  C   LIG A   1     -10.000   4.839 130.304  0.00  0.00    +0.014 C 
ATOM     29  C   LIG A   1      -4.051   2.100 129.145  0.00  0.00    +0.012 C 
ENDROOT
BRANCH   9  30
ATOM     30  O   LIG A   1     -10.126   4.798 133.202  0.00  0.00    -0.391 OA
ATOM     31  H   LIG A   1     -10.873   4.176 133.194  0.00  0.00    +0.210 HD
ENDBRANCH   9  30
BRANCH  18  32
ATOM     32  C   LIG A   1      -9.187   0.220 125.917  0.00  0.00    +0.163 C 
BRANCH  32  33
ATOM     33  O   LIG A   1     -10.222   0.683 125.052  0.00  0.00    -0.394 OA
ATOM     34  H   LIG A   1     -10.731  -0.094 124.766  0.00  0.00    +0.209 HD
ENDBRANCH  32  33
ENDBRANCH  18  32
TORSDOF 3
ENDMDL
MODEL 3
REMARK VINA RESULT:      -8.6      1.645      7.314
REMARK  Name = NuBBE_366
REMARK  10 active torsions:
REMARK  status: ('A' for Active; 'I' for Inactive)
REMARK    1  A    between atoms: C_1  and  C_2
REMARK    2  A    between atoms: C_3  and  C_38
REMARK    3  A    between atoms: C_8  and  C_9
REMARK    4  A    between atoms: C_8  and  C_37
REMARK    5  A    between atoms: C_10  and  O_36
REMARK    6  A    between atoms: C_14  and  C_35
REMARK    7  A    between atoms: C_22  and  C_23
REMARK    8  A    between atoms: C_23  and  O_24
REMARK    9  A    between atoms: C_29  and  C_34
REMARK   10  A    between atoms: C_31  and  C_33
REMARK                            x       y       z     vdW  Elec       q    Type
REMARK                         _______ _______ _______ _____ _____    ______ ____
ROOT
ATOM      1  C   LIG A   1      -4.449  -2.352 128.503  0.00  0.00    +0.016 C 
ATOM      2  C   LIG A   1      -5.682  -1.410 128.740  0.00  0.00    -0.005 C 
ATOM      3  C   LIG A   1      -5.854  -1.196 130.359  0.00  0.00    -0.019 C 
ATOM      4  C   LIG A   1      -4.930  -0.082 130.924  0.00  0.00    +0.008 C 
ATOM      5  C   LIG A   1      -5.508   1.332 130.942  0.00  0.00    +0.005 C 
ATOM      6  C   LIG A   1      -6.849   1.368 131.695  0.00  0.00    +0.003 C 
ATOM      7  C   LIG A   1      -7.314   2.804 132.147  0.00  0.00    -0.006 C 
ATOM      8  C   LIG A   1      -6.239   3.440 133.075  0.00  0.00    +0.014 C 
ATOM      9  C   LIG A   1      -8.610   2.652 132.995  0.00  0.00    +0.120 C 
ATOM     10  C   LIG A   1      -9.698   1.826 132.319  0.00  0.00    +0.032 C 
ATOM     11  C   LIG A   1      -9.197   0.451 131.881  0.00  0.00    +0.010 C 
ATOM     12  C   LIG A   1      -7.927   0.484 130.965  0.00  0.00    -0.025 C 
ATOM     13  C   LIG A   1      -7.340  -0.994 130.855  0.00  0.00    +0.006 C 
ATOM     14  C   LIG A   1      -8.270  -2.051 130.227  0.00  0.00    +0.031 C 
ATOM     15  C   LIG A   1      -8.017  -2.372 128.790  0.00  0.00    -0.026 C 
ATOM     16  C   LIG A   1      -6.929  -2.043 128.073  0.00  0.00    -0.063 C 
ATOM     17  C   LIG A   1      -6.820  -2.276 126.545  0.00  0.00    +0.027 C 
ATOM     18  C   LIG A   1      -6.486  -0.951 125.773  0.00  0.00    +0.001 C 
ATOM     19  C   LIG A   1      -5.249  -0.274 126.432  0.00  0.00    +0.010 C 
ATOM     20  C   LIG A   1      -5.377  -0.102 127.955  0.00  0.00    +0.012 C 
ATOM     21  C   LIG A   1      -6.091  -1.307 124.311  0.00  0.00    +0.010 C 
ATOM     22  C   LIG A   1      -7.097  -2.203 123.587  0.00  0.00    +0.004 C 
ATOM     23  C   LIG A   1      -7.464  -3.479 124.365  0.00  0.00    -0.011 C 
ATOM     24  C   LIG A   1      -7.899  -3.160 125.825  0.00  0.00    -0.003 C 
ATOM     25  C   LIG A   1      -9.346  -2.631 125.808  0.00  0.00    +0.008 C 
ATOM     26  C   LIG A   1      -6.322  -4.503 124.311  0.00  0.00    +0.008 C 
ATOM     27  C   LIG A   1      -8.371   1.033 129.596  0.00  0.00    +0.012 C 
ATOM     28  C   LIG A   1      -7.503   3.793 130.980  0.00  0.00    +0.014 C 
ATOM     29  C   LIG A   1      -5.380  -2.509 131.105  0.00  0.00    +0.012 C 
ENDROOT
BRANCH   9  30
ATOM     30  O   LIG A   1      -9.151   3.919 133.364  0.00  0.00    -0.391 OA
ATOM     31  H   LIG A   1      -9.238   3.943 134.333  0.00  0.00    +0.210 HD
ENDBRANCH   9  30
BRANCH  18  32
ATOM     32  C   LIG A   1      -7.673   0.052 125.764  0.00  0.00    +0.163 C 
BRANCH  32  33
ATOM     33  O   LIG A   1      -7.479   1.117 124.836  0.00  0.00    -0.394 OA
ATOM     34  H   LIG A   1      -7.582   0.749 123.944  0.00  0.00    +0.209 HD
ENDBRANCH  32  33
ENDBRANCH  18  32
TORSDOF 3
ENDMDL
MODEL 4
REMARK VINA RESULT:      -8.5      3.630      4.938
REMARK  Name = NuBBE_366
REMARK  10 active torsions:
REMARK  status: ('A' for Active; 'I' for Inactive)
REMARK    1  A    between atoms: C_1  and  C_2
REMARK    2  A    between atoms: C_3  and  C_38
REMARK    3  A    between atoms: C_8  and  C_9
REMARK    4  A    between atoms: C_8  and  C_37
REMARK    5  A    between atoms: C_10  and  O_36
REMARK    6  A    between atoms: C_14  and  C_35
REMARK    7  A    between atoms: C_22  and  C_23
REMARK    8  A    between atoms: C_23  and  O_24
REMARK    9  A    between atoms: C_29  and  C_34
REMARK   10  A    between atoms: C_31  and  C_33
REMARK                            x       y       z     vdW  Elec       q    Type
REMARK                         _______ _______ _______ _____ _____    ______ ____
ROOT
ATOM      1  C   LIG A   1      -6.854   1.389 130.776  0.00  0.00    +0.016 C 
ATOM      2  C   LIG A   1      -7.005   2.364 129.556  0.00  0.00    -0.005 C 
ATOM      3  C   LIG A   1      -6.029   1.825 128.351  0.00  0.00    -0.019 C 
ATOM      4  C   LIG A   1      -6.684   0.703 127.498  0.00  0.00    +0.008 C 
ATOM      5  C   LIG A   1      -7.490   1.159 126.283  0.00  0.00    +0.005 C 
ATOM      6  C   LIG A   1      -6.641   2.052 125.363  0.00  0.00    +0.003 C 
ATOM      7  C   LIG A   1      -7.205   2.221 123.902  0.00  0.00    -0.006 C 
ATOM      8  C   LIG A   1      -7.329   0.829 123.219  0.00  0.00    +0.014 C 
ATOM      9  C   LIG A   1      -6.175   3.042 123.073  0.00  0.00    +0.120 C 
ATOM     10  C   LIG A   1      -5.749   4.348 123.733  0.00  0.00    +0.032 C 
ATOM     11  C   LIG A   1      -5.227   4.137 125.154  0.00  0.00    +0.010 C 
ATOM     12  C   LIG A   1      -6.213   3.375 126.102  0.00  0.00    -0.025 C 
ATOM     13  C   LIG A   1      -5.426   2.952 127.422  0.00  0.00    +0.006 C 
ATOM     14  C   LIG A   1      -4.851   4.104 128.270  0.00  0.00    +0.031 C 
ATOM     15  C   LIG A   1      -5.654   4.497 129.467  0.00  0.00    -0.026 C 
ATOM     16  C   LIG A   1      -6.662   3.801 130.021  0.00  0.00    -0.063 C 
ATOM     17  C   LIG A   1      -7.547   4.360 131.164  0.00  0.00    +0.027 C 
ATOM     18  C   LIG A   1      -9.072   4.329 130.793  0.00  0.00    +0.001 C 
ATOM     19  C   LIG A   1      -9.448   2.902 130.298  0.00  0.00    +0.010 C 
ATOM     20  C   LIG A   1      -8.518   2.366 129.195  0.00  0.00    +0.012 C 
ATOM     21  C   LIG A   1      -9.908   4.605 132.076  0.00  0.00    +0.010 C 
ATOM     22  C   LIG A   1      -9.488   5.860 132.843  0.00  0.00    +0.004 C 
ATOM     23  C   LIG A   1      -7.984   5.916 133.164  0.00  0.00    -0.011 C 
ATOM     24  C   LIG A   1      -7.113   5.678 131.896  0.00  0.00    -0.003 C 
ATOM     25  C   LIG A   1      -7.088   6.973 131.061  0.00  0.00    +0.008 C 
ATOM     26  C   LIG A   1      -7.629   4.949 134.302  0.00  0.00    +0.008 C 
ATOM     27  C   LIG A   1      -7.380   4.333 126.406  0.00  0.00    +0.012 C 
ATOM     28  C   LIG A   1      -8.614   2.845 123.847  0.00  0.00    +0.014 C 
ATOM     29  C   LIG A   1      -4.756   1.136 128.988  0.00  0.00    +0.012 C 
ENDROOT
BRANCH   9  30
ATOM     30  O   LIG A   1      -6.657   3.322 121.760  0.00  0.00    -0.391 OA
ATOM     31  H   LIG A   1      -5.926   3.700 121.241  0.00  0.00    +0.210 HD
ENDBRANCH   9  30
BRANCH  18  32
ATOM     32  C   LIG A   1      -9.442   5.364 129.696  0.00  0.00    +0.163 C 
BRANCH  32  33
ATOM     33  O   LIG A   1     -10.845   5.410 129.440  0.00  0.00    -0.394 OA
ATOM     34  H   LIG A   1     -11.297   5.109 130.245  0.00  0.00    +0.209 HD
ENDBRANCH  32  33
ENDBRANCH  18  32
TORSDOF 3
ENDMDL
MODEL 5
REMARK VINA RESULT:      -8.4      3.096      5.732
REMARK  Name = NuBBE_366
REMARK  10 active torsions:
REMARK  status: ('A' for Active; 'I' for Inactive)
REMARK    1  A    between atoms: C_1  and  C_2
REMARK    2  A    between atoms: C_3  and  C_38
REMARK    3  A    between atoms: C_8  and  C_9
REMARK    4  A    between atoms: C_8  and  C_37
REMARK    5  A    between atoms: C_10  and  O_36
REMARK    6  A    between atoms: C_14  and  C_35
REMARK    7  A    between atoms: C_22  and  C_23
REMARK    8  A    between atoms: C_23  and  O_24
REMARK    9  A    between atoms: C_29  and  C_34
REMARK   10  A    between atoms: C_31  and  C_33
REMARK                            x       y       z     vdW  Elec       q    Type
REMARK                         _______ _______ _______ _____ _____    ______ ____
ROOT
ATOM      1  C   LIG A   1      -5.684   4.304 129.316  0.00  0.00    +0.016 C 
ATOM      2  C   LIG A   1      -6.402   2.984 129.768  0.00  0.00    -0.005 C 
ATOM      3  C   LIG A   1      -5.788   1.743 128.885  0.00  0.00    -0.019 C 
ATOM      4  C   LIG A   1      -4.460   1.185 129.468  0.00  0.00    +0.008 C 
ATOM      5  C   LIG A   1      -4.589   0.051 130.483  0.00  0.00    +0.005 C 
ATOM      6  C   LIG A   1      -5.407  -1.115 129.903  0.00  0.00    +0.003 C 
ATOM      7  C   LIG A   1      -5.244  -2.482 130.670  0.00  0.00    -0.006 C 
ATOM      8  C   LIG A   1      -3.749  -2.912 130.670  0.00  0.00    +0.014 C 
ATOM      9  C   LIG A   1      -6.030  -3.575 129.891  0.00  0.00    +0.120 C 
ATOM     10  C   LIG A   1      -7.475  -3.199 129.585  0.00  0.00    +0.032 C 
ATOM     11  C   LIG A   1      -7.585  -1.860 128.858  0.00  0.00    +0.010 C 
ATOM     12  C   LIG A   1      -6.882  -0.665 129.587  0.00  0.00    -0.025 C 
ATOM     13  C   LIG A   1      -6.801   0.569 128.583  0.00  0.00    +0.006 C 
ATOM     14  C   LIG A   1      -8.148   1.130 128.083  0.00  0.00    +0.031 C 
ATOM     15  C   LIG A   1      -8.640   2.359 128.776  0.00  0.00    -0.026 C 
ATOM     16  C   LIG A   1      -7.931   3.162 129.588  0.00  0.00    -0.063 C 
ATOM     17  C   LIG A   1      -8.564   4.325 130.392  0.00  0.00    +0.027 C 
ATOM     18  C   LIG A   1      -8.276   4.199 131.930  0.00  0.00    +0.001 C 
ATOM     19  C   LIG A   1      -6.748   3.995 132.148  0.00  0.00    +0.010 C 
ATOM     20  C   LIG A   1      -6.149   2.862 131.297  0.00  0.00    +0.012 C 
ATOM     21  C   LIG A   1      -8.665   5.535 132.626  0.00  0.00    +0.010 C 
ATOM     22  C   LIG A   1     -10.078   6.025 132.304  0.00  0.00    +0.004 C 
ATOM     23  C   LIG A   1     -10.380   6.101 130.797  0.00  0.00    -0.011 C 
ATOM     24  C   LIG A   1     -10.035   4.768 130.071  0.00  0.00    -0.003 C 
ATOM     25  C   LIG A   1     -11.156   3.747 130.348  0.00  0.00    +0.008 C 
ATOM     26  C   LIG A   1      -9.681   7.308 130.156  0.00  0.00    +0.008 C 
ATOM     27  C   LIG A   1      -7.723  -0.340 130.836  0.00  0.00    +0.012 C 
ATOM     28  C   LIG A   1      -5.664  -2.418 132.152  0.00  0.00    +0.014 C 
ATOM     29  C   LIG A   1      -5.389   2.279 127.451  0.00  0.00    +0.012 C 
ENDROOT
BRANCH   9  30
ATOM     30  O   LIG A   1      -6.012  -4.827 130.574  0.00  0.00    -0.391 OA
ATOM     31  H   LIG A   1      -6.868  -4.942 131.022  0.00  0.00    +0.210 HD
ENDBRANCH   9  30
BRANCH  18  32
ATOM     32  C   LIG A   1      -9.047   3.023 132.590  0.00  0.00    +0.163 C 
BRANCH  32  33
ATOM     33  O   LIG A   1      -9.674   3.401 133.814  0.00  0.00    -0.394 OA
ATOM     34  H   LIG A   1      -9.109   4.069 134.236  0.00  0.00    +0.209 HD
ENDBRANCH  32  33
ENDBRANCH  18  32
TORSDOF 3
ENDMDL
MODEL 6
REMARK VINA RESULT:      -8.3      3.429      5.770
REMARK  Name = NuBBE_366
REMARK  10 active torsions:
REMARK  status: ('A' for Active; 'I' for Inactive)
REMARK    1  A    between atoms: C_1  and  C_2
REMARK    2  A    between atoms: C_3  and  C_38
REMARK    3  A    between atoms: C_8  and  C_9
REMARK    4  A    between atoms: C_8  and  C_37
REMARK    5  A    between atoms: C_10  and  O_36
REMARK    6  A    between atoms: C_14  and  C_35
REMARK    7  A    between atoms: C_22  and  C_23
REMARK    8  A    between atoms: C_23  and  O_24
REMARK    9  A    between atoms: C_29  and  C_34
REMARK   10  A    between atoms: C_31  and  C_33
REMARK                            x       y       z     vdW  Elec       q    Type
REMARK                         _______ _______ _______ _____ _____    ______ ____
ROOT
ATOM      1  C   LIG A   1      -7.642   4.511 128.986  0.00  0.00    +0.016 C 
ATOM      2  C   LIG A   1      -6.730   3.278 129.324  0.00  0.00    -0.005 C 
ATOM      3  C   LIG A   1      -7.681   2.103 129.965  0.00  0.00    -0.019 C 
ATOM      4  C   LIG A   1      -8.392   1.243 128.884  0.00  0.00    +0.008 C 
ATOM      5  C   LIG A   1      -7.640   0.004 128.401  0.00  0.00    +0.005 C 
ATOM      6  C   LIG A   1      -7.255  -0.901 129.583  0.00  0.00    +0.003 C 
ATOM      7  C   LIG A   1      -6.874  -2.378 129.188  0.00  0.00    -0.006 C 
ATOM      8  C   LIG A   1      -8.067  -3.052 128.450  0.00  0.00    +0.014 C 
ATOM      9  C   LIG A   1      -6.636  -3.186 130.495  0.00  0.00    +0.120 C 
ATOM     10  C   LIG A   1      -5.660  -2.527 131.462  0.00  0.00    +0.032 C 
ATOM     11  C   LIG A   1      -6.059  -1.092 131.802  0.00  0.00    +0.010 C 
ATOM     12  C   LIG A   1      -6.264  -0.162 130.558  0.00  0.00    -0.025 C 
ATOM     13  C   LIG A   1      -6.976   1.180 131.037  0.00  0.00    +0.006 C 
ATOM     14  C   LIG A   1      -6.201   2.034 132.061  0.00  0.00    +0.031 C 
ATOM     15  C   LIG A   1      -5.460   3.206 131.506  0.00  0.00    -0.026 C 
ATOM     16  C   LIG A   1      -5.602   3.740 130.281  0.00  0.00    -0.063 C 
ATOM     17  C   LIG A   1      -4.678   4.855 129.731  0.00  0.00    +0.027 C 
ATOM     18  C   LIG A   1      -4.011   4.445 128.370  0.00  0.00    +0.001 C 
ATOM     19  C   LIG A   1      -5.114   3.952 127.389  0.00  0.00    +0.010 C 
ATOM     20  C   LIG A   1      -6.040   2.879 127.989  0.00  0.00    +0.012 C 
ATOM     21  C   LIG A   1      -3.356   5.703 127.731  0.00  0.00    +0.010 C 
ATOM     22  C   LIG A   1      -2.421   6.471 128.667  0.00  0.00    +0.004 C 
ATOM     23  C   LIG A   1      -3.057   6.830 130.022  0.00  0.00    -0.011 C 
ATOM     24  C   LIG A   1      -3.693   5.587 130.709  0.00  0.00    -0.003 C 
ATOM     25  C   LIG A   1      -2.571   4.742 131.343  0.00  0.00    +0.008 C 
ATOM     26  C   LIG A   1      -4.056   7.985 129.871  0.00  0.00    +0.008 C 
ATOM     27  C   LIG A   1      -4.871   0.103 129.957  0.00  0.00    +0.012 C 
ATOM     28  C   LIG A   1      -5.674  -2.474 128.225  0.00  0.00    +0.014 C 
ATOM     29  C   LIG A   1      -8.865   2.779 130.766  0.00  0.00    +0.012 C 
ENDROOT
BRANCH   9  30
ATOM     30  O   LIG A   1      -6.191  -4.514 130.222  0.00  0.00    -0.391 OA
ATOM     31  H   LIG A   1      -5.322  -4.637 130.641  0.00  0.00    +0.210 HD
ENDBRANCH   9  30
BRANCH  18  32
ATOM     32  C   LIG A   1      -2.943   3.330 128.539  0.00  0.00    +0.163 C 
BRANCH  32  33
ATOM     33  O   LIG A   1      -2.575   2.734 127.296  0.00  0.00    -0.394 OA
ATOM     34  H   LIG A   1      -1.709   3.095 127.045  0.00  0.00    +0.209 HD
ENDBRANCH  32  33
ENDBRANCH  18  32
TORSDOF 3
ENDMDL
MODEL 7
REMARK VINA RESULT:      -8.2      5.603     10.274
REMARK  Name = NuBBE_366
REMARK  10 active torsions:
REMARK  status: ('A' for Active; 'I' for Inactive)
REMARK    1  A    between atoms: C_1  and  C_2
REMARK    2  A    between atoms: C_3  and  C_38
REMARK    3  A    between atoms: C_8  and  C_9
REMARK    4  A    between atoms: C_8  and  C_37
REMARK    5  A    between atoms: C_10  and  O_36
REMARK    6  A    between atoms: C_14  and  C_35
REMARK    7  A    between atoms: C_22  and  C_23
REMARK    8  A    between atoms: C_23  and  O_24
REMARK    9  A    between atoms: C_29  and  C_34
REMARK   10  A    between atoms: C_31  and  C_33
REMARK                            x       y       z     vdW  Elec       q    Type
REMARK                         _______ _______ _______ _____ _____    ______ ____
ROOT
ATOM      1  C   LIG A   1      -5.501   5.223 129.727  0.00  0.00    +0.016 C 
ATOM      2  C   LIG A   1      -4.926   5.570 131.146  0.00  0.00    -0.005 C 
ATOM      3  C   LIG A   1      -3.372   6.065 130.957  0.00  0.00    -0.019 C 
ATOM      4  C   LIG A   1      -3.257   7.567 130.574  0.00  0.00    +0.008 C 
ATOM      5  C   LIG A   1      -3.154   8.555 131.735  0.00  0.00    +0.005 C 
ATOM      6  C   LIG A   1      -1.987   8.188 132.667  0.00  0.00    +0.003 C 
ATOM      7  C   LIG A   1      -1.519   9.347 133.627  0.00  0.00    -0.006 C 
ATOM      8  C   LIG A   1      -1.079  10.582 132.790  0.00  0.00    +0.014 C 
ATOM      9  C   LIG A   1      -0.264   8.857 134.406  0.00  0.00    +0.120 C 
ATOM     10  C   LIG A   1      -0.448   7.511 135.095  0.00  0.00    +0.032 C 
ATOM     11  C   LIG A   1      -0.920   6.424 134.130  0.00  0.00    +0.010 C 
ATOM     12  C   LIG A   1      -2.221   6.782 133.334  0.00  0.00    -0.025 C 
ATOM     13  C   LIG A   1      -2.408   5.721 132.160  0.00  0.00    +0.006 C 
ATOM     14  C   LIG A   1      -2.584   4.251 132.592  0.00  0.00    +0.031 C 
ATOM     15  C   LIG A   1      -3.987   3.740 132.612  0.00  0.00    -0.026 C 
ATOM     16  C   LIG A   1      -5.063   4.325 132.057  0.00  0.00    -0.063 C 
ATOM     17  C   LIG A   1      -6.509   3.808 132.264  0.00  0.00    +0.027 C 
ATOM     18  C   LIG A   1      -7.454   4.924 132.835  0.00  0.00    +0.001 C 
ATOM     19  C   LIG A   1      -7.325   6.201 131.955  0.00  0.00    +0.010 C 
ATOM     20  C   LIG A   1      -5.872   6.655 131.735  0.00  0.00    +0.012 C 
ATOM     21  C   LIG A   1      -8.928   4.438 132.727  0.00  0.00    +0.010 C 
ATOM     22  C   LIG A   1      -9.181   3.054 133.326  0.00  0.00    +0.004 C 
ATOM     23  C   LIG A   1      -8.222   1.968 132.805  0.00  0.00    -0.011 C 
ATOM     24  C   LIG A   1      -6.733   2.404 132.930  0.00  0.00    -0.003 C 
ATOM     25  C   LIG A   1      -6.288   2.239 134.396  0.00  0.00    +0.008 C 
ATOM     26  C   LIG A   1      -8.587   1.553 131.373  0.00  0.00    +0.008 C 
ATOM     27  C   LIG A   1      -3.388   6.746 134.337  0.00  0.00    +0.012 C 
ATOM     28  C   LIG A   1      -2.623   9.852 134.577  0.00  0.00    +0.014 C 
ATOM     29  C   LIG A   1      -2.734   5.301 129.728  0.00  0.00    +0.012 C 
ENDROOT
BRANCH   9  30
ATOM     30  O   LIG A   1       0.167   9.816 135.370  0.00  0.00    -0.391 OA
ATOM     31  H   LIG A   1      -0.609  10.101 135.884  0.00  0.00    +0.210 HD
ENDBRANCH   9  30
BRANCH  18  32
ATOM     32  C   LIG A   1      -7.131   5.286 134.310  0.00  0.00    +0.163 C 
BRANCH  32  33
ATOM     33  O   LIG A   1      -8.216   5.944 134.961  0.00  0.00    -0.394 OA
ATOM     34  H   LIG A   1      -7.918   6.840 135.191  0.00  0.00    +0.209 HD
ENDBRANCH  32  33
ENDBRANCH  18  32
TORSDOF 3
ENDMDL
MODEL 8
REMARK VINA RESULT:      -8.1      2.503      4.409
REMARK  Name = NuBBE_366
REMARK  10 active torsions:
REMARK  status: ('A' for Active; 'I' for Inactive)
REMARK    1  A    between atoms: C_1  and  C_2
REMARK    2  A    between atoms: C_3  and  C_38
REMARK    3  A    between atoms: C_8  and  C_9
REMARK    4  A    between atoms: C_8  and  C_37
REMARK    5  A    between atoms: C_10  and  O_36
REMARK    6  A    between atoms: C_14  and  C_35
REMARK    7  A    between atoms: C_22  and  C_23
REMARK    8  A    between atoms: C_23  and  O_24
REMARK    9  A    between atoms: C_29  and  C_34
REMARK   10  A    between atoms: C_31  and  C_33
REMARK                            x       y       z     vdW  Elec       q    Type
REMARK                         _______ _______ _______ _____ _____    ______ ____
ROOT
ATOM      1  C   LIG A   1      -4.272   2.342 129.076  0.00  0.00    +0.016 C 
ATOM      2  C   LIG A   1      -5.707   2.053 128.508  0.00  0.00    -0.005 C 
ATOM      3  C   LIG A   1      -5.635   2.156 126.871  0.00  0.00    -0.019 C 
ATOM      4  C   LIG A   1      -5.137   0.845 126.202  0.00  0.00    +0.008 C 
ATOM      5  C   LIG A   1      -6.212  -0.174 125.827  0.00  0.00    +0.005 C 
ATOM      6  C   LIG A   1      -7.286   0.464 124.931  0.00  0.00    +0.003 C 
ATOM      7  C   LIG A   1      -8.185  -0.562 124.143  0.00  0.00    -0.006 C 
ATOM      8  C   LIG A   1      -7.292  -1.459 123.238  0.00  0.00    +0.014 C 
ATOM      9  C   LIG A   1      -9.126   0.239 123.198  0.00  0.00    +0.120 C 
ATOM     10  C   LIG A   1      -9.908   1.346 123.896  0.00  0.00    +0.032 C 
ATOM     11  C   LIG A   1      -8.998   2.305 124.661  0.00  0.00    +0.010 C 
ATOM     12  C   LIG A   1      -8.046   1.613 125.694  0.00  0.00    -0.025 C 
ATOM     13  C   LIG A   1      -6.956   2.672 126.172  0.00  0.00    +0.006 C 
ATOM     14  C   LIG A   1      -7.494   3.926 126.890  0.00  0.00    +0.031 C 
ATOM     15  C   LIG A   1      -7.415   3.909 128.381  0.00  0.00    -0.026 C 
ATOM     16  C   LIG A   1      -6.705   3.056 129.139  0.00  0.00    -0.063 C 
ATOM     17  C   LIG A   1      -6.808   3.009 130.684  0.00  0.00    +0.027 C 
ATOM     18  C   LIG A   1      -7.180   1.574 131.203  0.00  0.00    +0.001 C 
ATOM     19  C   LIG A   1      -6.210   0.535 130.569  0.00  0.00    +0.010 C 
ATOM     20  C   LIG A   1      -6.101   0.645 129.038  0.00  0.00    +0.012 C 
ATOM     21  C   LIG A   1      -6.965   1.525 132.743  0.00  0.00    +0.010 C 
ATOM     22  C   LIG A   1      -7.653   2.654 133.512  0.00  0.00    +0.004 C 
ATOM     23  C   LIG A   1      -7.329   4.058 132.973  0.00  0.00    -0.011 C 
ATOM     24  C   LIG A   1      -7.567   4.157 131.438  0.00  0.00    -0.003 C 
ATOM     25  C   LIG A   1      -9.079   4.293 131.176  0.00  0.00    +0.008 C 
ATOM     26  C   LIG A   1      -5.909   4.485 133.369  0.00  0.00    +0.008 C 
ATOM     27  C   LIG A   1      -8.924   1.120 126.860  0.00  0.00    +0.012 C 
ATOM     28  C   LIG A   1      -8.969  -1.529 125.052  0.00  0.00    +0.014 C 
ATOM     29  C   LIG A   1      -4.548   3.234 126.470  0.00  0.00    +0.012 C 
ENDROOT
BRANCH   9  30
ATOM     30  O   LIG A   1     -10.043  -0.616 122.517  0.00  0.00    -0.391 OA
ATOM     31  H   LIG A   1      -9.719  -1.531 122.589  0.00  0.00    +0.210 HD
ENDBRANCH   9  30
BRANCH  18  32
ATOM     32  C   LIG A   1      -8.644   1.177 130.867  0.00  0.00    +0.163 C 
BRANCH  32  33
ATOM     33  O   LIG A   1      -9.088   0.048 131.617  0.00  0.00    -0.394 OA
ATOM     34  H   LIG A   1      -8.838   0.198 132.544  0.00  0.00    +0.209 HD
ENDBRANCH  32  33
ENDBRANCH  18  32
TORSDOF 3
ENDMDL
MODEL 9
REMARK VINA RESULT:      -8.0      2.627      4.892
REMARK  Name = NuBBE_366
REMARK  10 active torsions:
REMARK  status: ('A' for Active; 'I' for Inactive)
REMARK    1  A    between atoms: C_1  and  C_2
REMARK    2  A    between atoms: C_3  and  C_38
REMARK    3  A    between atoms: C_8  and  C_9
REMARK    4  A    between atoms: C_8  and  C_37
REMARK    5  A    between atoms: C_10  and  O_36
REMARK    6  A    between atoms: C_14  and  C_35
REMARK    7  A    between atoms: C_22  and  C_23
REMARK    8  A    between atoms: C_23  and  O_24
REMARK    9  A    between atoms: C_29  and  C_34
REMARK   10  A    between atoms: C_31  and  C_33
REMARK                            x       y       z     vdW  Elec       q    Type
REMARK                         _______ _______ _______ _____ _____    ______ ____
ROOT
ATOM      1  C   LIG A   1      -6.763  -0.481 133.053  0.00  0.00    +0.016 C 
ATOM      2  C   LIG A   1      -6.451  -0.789 131.546  0.00  0.00    -0.005 C 
ATOM      3  C   LIG A   1      -7.531   0.037 130.625  0.00  0.00    -0.019 C 
ATOM      4  C   LIG A   1      -7.113   1.513 130.380  0.00  0.00    +0.008 C 
ATOM      5  C   LIG A   1      -6.256   1.778 129.143  0.00  0.00    +0.005 C 
ATOM      6  C   LIG A   1      -6.937   1.237 127.875  0.00  0.00    +0.003 C 
ATOM      7  C   LIG A   1      -6.376   1.819 126.524  0.00  0.00    -0.006 C 
ATOM      8  C   LIG A   1      -6.527   3.367 126.512  0.00  0.00    +0.014 C 
ATOM      9  C   LIG A   1      -7.247   1.271 125.357  0.00  0.00    +0.120 C 
ATOM     10  C   LIG A   1      -7.409  -0.245 125.365  0.00  0.00    +0.032 C 
ATOM     11  C   LIG A   1      -7.938  -0.766 126.701  0.00  0.00    +0.010 C 
ATOM     12  C   LIG A   1      -7.097  -0.328 127.948  0.00  0.00    -0.025 C 
ATOM     13  C   LIG A   1      -7.927  -0.664 129.265  0.00  0.00    +0.006 C 
ATOM     14  C   LIG A   1      -8.261  -2.151 129.499  0.00  0.00    +0.031 C 
ATOM     15  C   LIG A   1      -7.379  -2.874 130.463  0.00  0.00    -0.026 C 
ATOM     16  C   LIG A   1      -6.510  -2.322 131.327  0.00  0.00    -0.063 C 
ATOM     17  C   LIG A   1      -5.517  -3.153 132.178  0.00  0.00    +0.027 C 
ATOM     18  C   LIG A   1      -4.031  -2.696 131.958  0.00  0.00    +0.001 C 
ATOM     19  C   LIG A   1      -3.939  -1.154 132.147  0.00  0.00    +0.010 C 
ATOM     20  C   LIG A   1      -4.971  -0.367 131.321  0.00  0.00    +0.012 C 
ATOM     21  C   LIG A   1      -3.137  -3.348 133.052  0.00  0.00    +0.010 C 
ATOM     22  C   LIG A   1      -3.302  -4.864 133.179  0.00  0.00    +0.004 C 
ATOM     23  C   LIG A   1      -4.762  -5.318 133.344  0.00  0.00    -0.011 C 
ATOM     24  C   LIG A   1      -5.684  -4.713 132.245  0.00  0.00    -0.003 C 
ATOM     25  C   LIG A   1      -5.479  -5.500 130.936  0.00  0.00    +0.008 C 
ATOM     26  C   LIG A   1      -5.275  -5.018 134.759  0.00  0.00    +0.008 C 
ATOM     27  C   LIG A   1      -5.766  -1.100 127.889  0.00  0.00    +0.012 C 
ATOM     28  C   LIG A   1      -4.876   1.540 126.302  0.00  0.00    +0.014 C 
ATOM     29  C   LIG A   1      -8.900   0.145 131.410  0.00  0.00    +0.012 C 
ENDROOT
BRANCH   9  30
ATOM     30  O   LIG A   1      -6.743   1.676 124.086  0.00  0.00    -0.391 OA
ATOM     31  H   LIG A   1      -7.472   1.639 123.443  0.00  0.00    +0.210 HD
ENDBRANCH   9  30
BRANCH  18  32
ATOM     32  C   LIG A   1      -3.492  -3.071 130.551  0.00  0.00    +0.163 C 
BRANCH  32  33
ATOM     33  O   LIG A   1      -2.497  -2.161 130.088  0.00  0.00    -0.394 OA
ATOM     34  H   LIG A   1      -2.802  -1.263 130.299  0.00  0.00    +0.209 HD
ENDBRANCH  32  33
ENDBRANCH  18  32
TORSDOF 3
ENDMDL
