MODEL 1
REMARK VINA RESULT:      -7.0      0.000      0.000
REMARK  Name = NuBBE_2044
REMARK  13 active torsions:
REMARK  status: ('A' for Active; 'I' for Inactive)
REMARK    1  A    between atoms: O_1  and  C_2
REMARK    2  A    between atoms: O_1  and  C_3
REMARK    3  A    between atoms: C_4  and  O_5
REMARK    4  A    between atoms: C_7  and  C_12
REMARK    5  A    between atoms: C_9  and  C_11
REMARK    6  A    between atoms: C_14  and  O_15
REMARK    7  A    between atoms: O_15  and  C_16
REMARK    8  A    between atoms: C_17  and  O_22
REMARK    9  A    between atoms: C_18  and  O_20
REMARK   10  A    between atoms: O_20  and  C_21
REMARK   11  A    between atoms: O_22  and  C_23
REMARK   12  A    between atoms: C_27  and  C_29
REMARK   13  A    between atoms: C_29  and  C_30
REMARK                            x       y       z     vdW  Elec       q    Type
REMARK                         _______ _______ _______ _____ _____    ______ ____
ROOT
ATOM      1  C   LIG A   1      -7.635   1.788 123.850  0.00  0.00    +0.147 C 
ATOM      2  C   LIG A   1      -7.582   3.043 124.762  0.00  0.00    +0.209 C 
ATOM      3  O   LIG A   1      -7.901   2.572 126.069  0.00  0.00    -0.337 OA
ATOM      4  C   LIG A   1      -8.794   1.439 125.907  0.00  0.00    +0.158 C 
ATOM      5  C   LIG A   1      -8.903   1.117 124.388  0.00  0.00    +0.060 C 
ATOM      6  C   LIG A   1     -10.238   1.589 123.809  0.00  0.00    +0.014 C 
ATOM      7  C   LIG A   1      -6.230   3.725 124.659  0.00  0.00    +0.147 C 
ATOM      8  C   LIG A   1      -5.872   3.974 123.193  0.00  0.00    +0.165 C 
ATOM      9  O   LIG A   1      -5.002   4.791 122.899  0.00  0.00    -0.292 OA
ATOM     10  C   LIG A   1      -6.583   3.216 122.107  0.00  0.00    -0.002 C 
ATOM     11  C   LIG A   1      -7.464   2.227 122.426  0.00  0.00    +0.020 C 
ENDROOT
BRANCH   4  12
ATOM     12  C   LIG A   1      -8.311   0.264 126.744  0.00  0.00    -0.011 A 
ATOM     13  C   LIG A   1      -8.645  -1.040 126.366  0.00  0.00    +0.056 A 
ATOM     14  C   LIG A   1      -8.185  -2.141 127.096  0.00  0.00    +0.166 A 
ATOM     15  C   LIG A   1      -7.444  -1.950 128.285  0.00  0.00    +0.203 A 
ATOM     16  C   LIG A   1      -7.120  -0.640 128.687  0.00  0.00    +0.166 A 
ATOM     17  C   LIG A   1      -7.543   0.444 127.902  0.00  0.00    +0.056 A 
BRANCH  14  18
ATOM     18  O   LIG A   1      -8.465  -3.436 126.727  0.00  0.00    -0.491 OA
ATOM     19  C   LIG A   1      -8.326  -3.748 125.344  0.00  0.00    +0.277 C 
ENDBRANCH  14  18
BRANCH  16  20
ATOM     20  O   LIG A   1      -6.322  -0.458 129.788  0.00  0.00    -0.491 OA
ATOM     21  C   LIG A   1      -4.927  -0.304 129.544  0.00  0.00    +0.277 C 
ENDBRANCH  16  20
BRANCH  15  22
ATOM     22  O   LIG A   1      -7.047  -3.108 128.914  0.00  0.00    -0.488 OA
ATOM     23  C   LIG A   1      -7.597  -3.384 130.196  0.00  0.00    +0.277 C 
ENDBRANCH  15  22
ENDBRANCH   4  12
BRANCH   1  24
ATOM     24  O   LIG A   1      -6.496   0.933 124.157  0.00  0.00    -0.367 OA
ATOM     25  C   LIG A   1      -6.530  -0.387 123.617  0.00  0.00    +0.195 C 
ENDBRANCH   1  24
BRANCH   2  26
ATOM     26  O   LIG A   1      -8.599   4.002 124.458  0.00  0.00    -0.362 OA
ATOM     27  H   LIG A   1      -9.064   3.641 123.683  0.00  0.00    +0.213 HD
ENDBRANCH   2  26
BRANCH  10  28
ATOM     28  C   LIG A   1      -6.298   3.587 120.677  0.00  0.00    +0.065 C 
BRANCH  28  29
ATOM     29  C   LIG A   1      -7.510   4.115 119.951  0.00  0.00    -0.030 C 
ATOM     30  C   LIG A   1      -7.528   4.493 118.664  0.00  0.00    +0.004 C 
ENDBRANCH  28  29
ENDBRANCH  10  28
TORSDOF 8
ENDMDL
MODEL 2
REMARK VINA RESULT:      -6.9      0.671      2.380
REMARK  Name = NuBBE_2044
REMARK  13 active torsions:
REMARK  status: ('A' for Active; 'I' for Inactive)
REMARK    1  A    between atoms: O_1  and  C_2
REMARK    2  A    between atoms: O_1  and  C_3
REMARK    3  A    between atoms: C_4  and  O_5
REMARK    4  A    between atoms: C_7  and  C_12
REMARK    5  A    between atoms: C_9  and  C_11
REMARK    6  A    between atoms: C_14  and  O_15
REMARK    7  A    between atoms: O_15  and  C_16
REMARK    8  A    between atoms: C_17  and  O_22
REMARK    9  A    between atoms: C_18  and  O_20
REMARK   10  A    between atoms: O_20  and  C_21
REMARK   11  A    between atoms: O_22  and  C_23
REMARK   12  A    between atoms: C_27  and  C_29
REMARK   13  A    between atoms: C_29  and  C_30
REMARK                            x       y       z     vdW  Elec       q    Type
REMARK                         _______ _______ _______ _____ _____    ______ ____
ROOT
ATOM      1  C   LIG A   1      -7.672   1.758 123.964  0.00  0.00    +0.147 C 
ATOM      2  C   LIG A   1      -7.638   3.031 124.854  0.00  0.00    +0.209 C 
ATOM      3  O   LIG A   1      -7.985   2.583 126.162  0.00  0.00    -0.337 OA
ATOM      4  C   LIG A   1      -8.875   1.448 126.002  0.00  0.00    +0.158 C 
ATOM      5  C   LIG A   1      -8.951   1.098 124.487  0.00  0.00    +0.060 C 
ATOM      6  C   LIG A   1     -10.273   1.559 123.871  0.00  0.00    +0.014 C 
ATOM      7  C   LIG A   1      -6.284   3.711 124.766  0.00  0.00    +0.147 C 
ATOM      8  C   LIG A   1      -5.895   3.932 123.304  0.00  0.00    +0.165 C 
ATOM      9  O   LIG A   1      -5.019   4.744 123.014  0.00  0.00    -0.292 OA
ATOM     10  C   LIG A   1      -6.583   3.154 122.218  0.00  0.00    -0.002 C 
ATOM     11  C   LIG A   1      -7.471   2.172 122.537  0.00  0.00    +0.020 C 
ENDROOT
BRANCH   4  12
ATOM     12  C   LIG A   1      -8.410   0.289 126.870  0.00  0.00    -0.011 A 
ATOM     13  C   LIG A   1      -7.792   0.546 128.098  0.00  0.00    +0.056 A 
ATOM     14  C   LIG A   1      -7.387  -0.500 128.934  0.00  0.00    +0.166 A 
ATOM     15  C   LIG A   1      -7.516  -1.843 128.510  0.00  0.00    +0.203 A 
ATOM     16  C   LIG A   1      -8.118  -2.114 127.266  0.00  0.00    +0.166 A 
ATOM     17  C   LIG A   1      -8.571  -1.047 126.475  0.00  0.00    +0.056 A 
BRANCH  14  18
ATOM     18  O   LIG A   1      -6.812  -0.279 130.163  0.00  0.00    -0.491 OA
ATOM     19  C   LIG A   1      -7.648   0.298 131.162  0.00  0.00    +0.277 C 
ENDBRANCH  14  18
BRANCH  16  20
ATOM     20  O   LIG A   1      -8.329  -3.418 126.896  0.00  0.00    -0.491 OA
ATOM     21  C   LIG A   1      -8.344  -3.687 125.497  0.00  0.00    +0.277 C 
ENDBRANCH  16  20
BRANCH  15  22
ATOM     22  O   LIG A   1      -7.084  -2.783 129.417  0.00  0.00    -0.488 OA
ATOM     23  C   LIG A   1      -5.735  -3.221 129.322  0.00  0.00    +0.277 C 
ENDBRANCH  15  22
ENDBRANCH   4  12
BRANCH   1  24
ATOM     24  O   LIG A   1      -6.540   0.910 124.311  0.00  0.00    -0.367 OA
ATOM     25  C   LIG A   1      -6.528  -0.396 123.737  0.00  0.00    +0.195 C 
ENDBRANCH   1  24
BRANCH   2  26
ATOM     26  O   LIG A   1      -8.648   3.984 124.511  0.00  0.00    -0.362 OA
ATOM     27  H   LIG A   1      -9.474   3.618 124.875  0.00  0.00    +0.213 HD
ENDBRANCH   2  26
BRANCH  10  28
ATOM     28  C   LIG A   1      -6.267   3.499 120.787  0.00  0.00    +0.065 C 
BRANCH  28  29
ATOM     29  C   LIG A   1      -7.440   4.099 120.052  0.00  0.00    -0.030 C 
ATOM     30  C   LIG A   1      -7.423   4.486 118.768  0.00  0.00    +0.004 C 
ENDBRANCH  28  29
ENDBRANCH  10  28
TORSDOF 8
ENDMDL
MODEL 3
REMARK VINA RESULT:      -6.8      1.698      2.997
REMARK  Name = NuBBE_2044
REMARK  13 active torsions:
REMARK  status: ('A' for Active; 'I' for Inactive)
REMARK    1  A    between atoms: O_1  and  C_2
REMARK    2  A    between atoms: O_1  and  C_3
REMARK    3  A    between atoms: C_4  and  O_5
REMARK    4  A    between atoms: C_7  and  C_12
REMARK    5  A    between atoms: C_9  and  C_11
REMARK    6  A    between atoms: C_14  and  O_15
REMARK    7  A    between atoms: O_15  and  C_16
REMARK    8  A    between atoms: C_17  and  O_22
REMARK    9  A    between atoms: C_18  and  O_20
REMARK   10  A    between atoms: O_20  and  C_21
REMARK   11  A    between atoms: O_22  and  C_23
REMARK   12  A    between atoms: C_27  and  C_29
REMARK   13  A    between atoms: C_29  and  C_30
REMARK                            x       y       z     vdW  Elec       q    Type
REMARK                         _______ _______ _______ _____ _____    ______ ____
ROOT
ATOM      1  C   LIG A   1      -7.022   2.084 125.216  0.00  0.00    +0.147 C 
ATOM      2  C   LIG A   1      -8.038   3.132 125.746  0.00  0.00    +0.209 C 
ATOM      3  O   LIG A   1      -8.731   2.479 126.807  0.00  0.00    -0.337 OA
ATOM      4  C   LIG A   1      -8.766   1.064 126.487  0.00  0.00    +0.158 C 
ATOM      5  C   LIG A   1      -7.904   0.831 125.212  0.00  0.00    +0.060 C 
ATOM      6  C   LIG A   1      -8.779   0.601 123.978  0.00  0.00    +0.014 C 
ATOM      7  C   LIG A   1      -7.328   4.408 126.157  0.00  0.00    +0.147 C 
ATOM      8  C   LIG A   1      -6.422   4.898 125.027  0.00  0.00    +0.165 C 
ATOM      9  O   LIG A   1      -6.021   6.060 125.017  0.00  0.00    -0.292 OA
ATOM     10  C   LIG A   1      -6.018   3.958 123.927  0.00  0.00    -0.002 C 
ATOM     11  C   LIG A   1      -6.361   2.642 123.991  0.00  0.00    +0.020 C 
ENDROOT
BRANCH   4  12
ATOM     12  C   LIG A   1      -8.313   0.241 127.684  0.00  0.00    -0.011 A 
ATOM     13  C   LIG A   1      -8.055   0.876 128.903  0.00  0.00    +0.056 A 
ATOM     14  C   LIG A   1      -7.672   0.141 130.030  0.00  0.00    +0.166 A 
ATOM     15  C   LIG A   1      -7.453  -1.252 129.933  0.00  0.00    +0.203 A 
ATOM     16  C   LIG A   1      -7.690  -1.899 128.705  0.00  0.00    +0.166 A 
ATOM     17  C   LIG A   1      -8.132  -1.147 127.606  0.00  0.00    +0.056 A 
BRANCH  14  18
ATOM     18  O   LIG A   1      -7.448   0.732 131.252  0.00  0.00    -0.491 OA
ATOM     19  C   LIG A   1      -8.602   1.096 132.003  0.00  0.00    +0.277 C 
ENDBRANCH  14  18
BRANCH  16  20
ATOM     20  O   LIG A   1      -7.568  -3.264 128.634  0.00  0.00    -0.491 OA
ATOM     21  C   LIG A   1      -8.681  -3.975 128.100  0.00  0.00    +0.277 C 
ENDBRANCH  16  20
BRANCH  15  22
ATOM     22  O   LIG A   1      -7.080  -1.865 131.107  0.00  0.00    -0.488 OA
ATOM     23  C   LIG A   1      -5.706  -2.193 131.273  0.00  0.00    +0.277 C 
ENDBRANCH  15  22
ENDBRANCH   4  12
BRANCH   1  24
ATOM     24  O   LIG A   1      -5.970   1.904 126.206  0.00  0.00    -0.367 OA
ATOM     25  C   LIG A   1      -5.126   0.766 126.035  0.00  0.00    +0.195 C 
ENDBRANCH   1  24
BRANCH   2  26
ATOM     26  O   LIG A   1      -9.053   3.462 124.793  0.00  0.00    -0.362 OA
ATOM     27  H   LIG A   1      -9.137   2.673 124.229  0.00  0.00    +0.213 HD
ENDBRANCH   2  26
BRANCH  10  28
ATOM     28  C   LIG A   1      -5.239   4.515 122.766  0.00  0.00    +0.065 C 
BRANCH  28  29
ATOM     29  C   LIG A   1      -5.634   3.907 121.443  0.00  0.00    -0.030 C 
ATOM     30  C   LIG A   1      -5.611   4.550 120.266  0.00  0.00    +0.004 C 
ENDBRANCH  28  29
ENDBRANCH  10  28
TORSDOF 8
ENDMDL
MODEL 4
REMARK VINA RESULT:      -6.7      1.504      1.803
REMARK  Name = NuBBE_2044
REMARK  13 active torsions:
REMARK  status: ('A' for Active; 'I' for Inactive)
REMARK    1  A    between atoms: O_1  and  C_2
REMARK    2  A    between atoms: O_1  and  C_3
REMARK    3  A    between atoms: C_4  and  O_5
REMARK    4  A    between atoms: C_7  and  C_12
REMARK    5  A    between atoms: C_9  and  C_11
REMARK    6  A    between atoms: C_14  and  O_15
REMARK    7  A    between atoms: O_15  and  C_16
REMARK    8  A    between atoms: C_17  and  O_22
REMARK    9  A    between atoms: C_18  and  O_20
REMARK   10  A    between atoms: O_20  and  C_21
REMARK   11  A    between atoms: O_22  and  C_23
REMARK   12  A    between atoms: C_27  and  C_29
REMARK   13  A    between atoms: C_29  and  C_30
REMARK                            x       y       z     vdW  Elec       q    Type
REMARK                         _______ _______ _______ _____ _____    ______ ____
ROOT
ATOM      1  C   LIG A   1      -7.006   2.081 125.071  0.00  0.00    +0.147 C 
ATOM      2  C   LIG A   1      -8.014   3.112 125.648  0.00  0.00    +0.209 C 
ATOM      3  O   LIG A   1      -8.690   2.427 126.700  0.00  0.00    -0.337 OA
ATOM      4  C   LIG A   1      -8.729   1.022 126.338  0.00  0.00    +0.158 C 
ATOM      5  C   LIG A   1      -7.888   0.828 125.043  0.00  0.00    +0.060 C 
ATOM      6  C   LIG A   1      -8.782   0.635 123.817  0.00  0.00    +0.014 C 
ATOM      7  C   LIG A   1      -7.298   4.376 126.087  0.00  0.00    +0.147 C 
ATOM      8  C   LIG A   1      -6.410   4.901 124.958  0.00  0.00    +0.165 C 
ATOM      9  O   LIG A   1      -6.010   6.063 124.976  0.00  0.00    -0.292 OA
ATOM     10  C   LIG A   1      -6.023   3.995 123.823  0.00  0.00    -0.002 C 
ATOM     11  C   LIG A   1      -6.364   2.677 123.853  0.00  0.00    +0.020 C 
ENDROOT
BRANCH   4  12
ATOM     12  C   LIG A   1      -8.257   0.164 127.502  0.00  0.00    -0.011 A 
ATOM     13  C   LIG A   1      -8.269  -1.229 127.387  0.00  0.00    +0.056 A 
ATOM     14  C   LIG A   1      -7.807  -2.042 128.428  0.00  0.00    +0.166 A 
ATOM     15  C   LIG A   1      -7.401  -1.468 129.654  0.00  0.00    +0.203 A 
ATOM     16  C   LIG A   1      -7.404  -0.066 129.789  0.00  0.00    +0.166 A 
ATOM     17  C   LIG A   1      -7.815   0.727 128.708  0.00  0.00    +0.056 A 
BRANCH  14  18
ATOM     18  O   LIG A   1      -7.770  -3.413 128.329  0.00  0.00    -0.491 OA
ATOM     19  C   LIG A   1      -8.905  -4.039 127.737  0.00  0.00    +0.277 C 
ENDBRANCH  14  18
BRANCH  16  20
ATOM     20  O   LIG A   1      -6.922   0.494 130.945  0.00  0.00    -0.491 OA
ATOM     21  C   LIG A   1      -5.677   1.180 130.848  0.00  0.00    +0.277 C 
ENDBRANCH  16  20
BRANCH  15  22
ATOM     22  O   LIG A   1      -6.966  -2.368 130.601  0.00  0.00    -0.488 OA
ATOM     23  C   LIG A   1      -5.566  -2.594 130.703  0.00  0.00    +0.277 C 
ENDBRANCH  15  22
ENDBRANCH   4  12
BRANCH   1  24
ATOM     24  O   LIG A   1      -5.938   1.872 126.039  0.00  0.00    -0.367 OA
ATOM     25  C   LIG A   1      -5.145   0.700 125.864  0.00  0.00    +0.195 C 
ENDBRANCH   1  24
BRANCH   2  26
ATOM     26  O   LIG A   1      -9.044   3.470 124.722  0.00  0.00    -0.362 OA
ATOM     27  H   LIG A   1      -9.654   4.035 125.229  0.00  0.00    +0.213 HD
ENDBRANCH   2  26
BRANCH  10  28
ATOM     28  C   LIG A   1      -5.263   4.587 122.668  0.00  0.00    +0.065 C 
BRANCH  28  29
ATOM     29  C   LIG A   1      -5.472   3.837 121.376  0.00  0.00    -0.030 C 
ATOM     30  C   LIG A   1      -6.311   4.212 120.399  0.00  0.00    +0.004 C 
ENDBRANCH  28  29
ENDBRANCH  10  28
TORSDOF 8
ENDMDL
MODEL 5
REMARK VINA RESULT:      -6.7      3.589      6.393
REMARK  Name = NuBBE_2044
REMARK  13 active torsions:
REMARK  status: ('A' for Active; 'I' for Inactive)
REMARK    1  A    between atoms: O_1  and  C_2
REMARK    2  A    between atoms: O_1  and  C_3
REMARK    3  A    between atoms: C_4  and  O_5
REMARK    4  A    between atoms: C_7  and  C_12
REMARK    5  A    between atoms: C_9  and  C_11
REMARK    6  A    between atoms: C_14  and  O_15
REMARK    7  A    between atoms: O_15  and  C_16
REMARK    8  A    between atoms: C_17  and  O_22
REMARK    9  A    between atoms: C_18  and  O_20
REMARK   10  A    between atoms: O_20  and  C_21
REMARK   11  A    between atoms: O_22  and  C_23
REMARK   12  A    between atoms: C_27  and  C_29
REMARK   13  A    between atoms: C_29  and  C_30
REMARK                            x       y       z     vdW  Elec       q    Type
REMARK                         _______ _______ _______ _____ _____    ______ ____
ROOT
ATOM      1  C   LIG A   1      -6.222  -0.875 126.550  0.00  0.00    +0.147 C 
ATOM      2  C   LIG A   1      -7.611  -1.525 126.794  0.00  0.00    +0.209 C 
ATOM      3  O   LIG A   1      -8.120  -0.892 127.965  0.00  0.00    -0.337 OA
ATOM      4  C   LIG A   1      -6.978  -0.535 128.788  0.00  0.00    +0.158 C 
ATOM      5  C   LIG A   1      -5.682  -0.845 127.984  0.00  0.00    +0.060 C 
ATOM      6  C   LIG A   1      -4.996  -2.113 128.494  0.00  0.00    +0.014 C 
ATOM      7  C   LIG A   1      -8.496  -1.375 125.570  0.00  0.00    +0.147 C 
ATOM      8  C   LIG A   1      -7.762  -1.866 124.322  0.00  0.00    +0.165 C 
ATOM      9  O   LIG A   1      -8.392  -2.141 123.302  0.00  0.00    -0.292 OA
ATOM     10  C   LIG A   1      -6.266  -2.011 124.338  0.00  0.00    -0.002 C 
ATOM     11  C   LIG A   1      -5.550  -1.601 125.422  0.00  0.00    +0.020 C 
ENDROOT
BRANCH   4  12
ATOM     12  C   LIG A   1      -7.084   0.915 129.233  0.00  0.00    -0.011 A 
ATOM     13  C   LIG A   1      -5.956   1.569 129.741  0.00  0.00    +0.056 A 
ATOM     14  C   LIG A   1      -6.015   2.913 130.125  0.00  0.00    +0.166 A 
ATOM     15  C   LIG A   1      -7.242   3.612 130.088  0.00  0.00    +0.203 A 
ATOM     16  C   LIG A   1      -8.389   2.959 129.598  0.00  0.00    +0.166 A 
ATOM     17  C   LIG A   1      -8.289   1.629 129.163  0.00  0.00    +0.056 A 
BRANCH  14  18
ATOM     18  O   LIG A   1      -4.914   3.592 130.592  0.00  0.00    -0.491 OA
ATOM     19  C   LIG A   1      -3.871   3.836 129.652  0.00  0.00    +0.277 C 
ENDBRANCH  14  18
BRANCH  16  20
ATOM     20  O   LIG A   1      -9.559   3.665 129.474  0.00  0.00    -0.491 OA
ATOM     21  C   LIG A   1     -10.515   3.499 130.517  0.00  0.00    +0.277 C 
ENDBRANCH  16  20
BRANCH  15  22
ATOM     22  O   LIG A   1      -7.174   4.927 130.489  0.00  0.00    -0.488 OA
ATOM     23  C   LIG A   1      -7.545   5.229 131.828  0.00  0.00    +0.277 C 
ENDBRANCH  15  22
ENDBRANCH   4  12
BRANCH   1  24
ATOM     24  O   LIG A   1      -6.414   0.496 126.101  0.00  0.00    -0.367 OA
ATOM     25  C   LIG A   1      -5.243   1.308 126.020  0.00  0.00    +0.195 C 
ENDBRANCH   1  24
BRANCH   2  26
ATOM     26  O   LIG A   1      -7.531  -2.913 127.131  0.00  0.00    -0.362 OA
ATOM     27  H   LIG A   1      -7.217  -2.932 128.052  0.00  0.00    +0.213 HD
ENDBRANCH   2  26
BRANCH  10  28
ATOM     28  C   LIG A   1      -5.598  -2.625 123.137  0.00  0.00    +0.065 C 
BRANCH  28  29
ATOM     29  C   LIG A   1      -4.375  -3.434 123.491  0.00  0.00    -0.030 C 
ATOM     30  C   LIG A   1      -4.335  -4.773 123.558  0.00  0.00    +0.004 C 
ENDBRANCH  28  29
ENDBRANCH  10  28
TORSDOF 8
ENDMDL
MODEL 6
REMARK VINA RESULT:      -6.6      7.188      9.534
REMARK  Name = NuBBE_2044
REMARK  13 active torsions:
REMARK  status: ('A' for Active; 'I' for Inactive)
REMARK    1  A    between atoms: O_1  and  C_2
REMARK    2  A    between atoms: O_1  and  C_3
REMARK    3  A    between atoms: C_4  and  O_5
REMARK    4  A    between atoms: C_7  and  C_12
REMARK    5  A    between atoms: C_9  and  C_11
REMARK    6  A    between atoms: C_14  and  O_15
REMARK    7  A    between atoms: O_15  and  C_16
REMARK    8  A    between atoms: C_17  and  O_22
REMARK    9  A    between atoms: C_18  and  O_20
REMARK   10  A    between atoms: O_20  and  C_21
REMARK   11  A    between atoms: O_22  and  C_23
REMARK   12  A    between atoms: C_27  and  C_29
REMARK   13  A    between atoms: C_29  and  C_30
REMARK                            x       y       z     vdW  Elec       q    Type
REMARK                         _______ _______ _______ _____ _____    ______ ____
ROOT
ATOM      1  C   LIG A   1      -9.650   5.830 130.139  0.00  0.00    +0.147 C 
ATOM      2  C   LIG A   1     -10.093   5.328 131.540  0.00  0.00    +0.209 C 
ATOM      3  O   LIG A   1      -8.881   5.097 132.255  0.00  0.00    -0.337 OA
ATOM      4  C   LIG A   1      -7.877   4.712 131.280  0.00  0.00    +0.158 C 
ATOM      5  C   LIG A   1      -8.494   4.864 129.859  0.00  0.00    +0.060 C 
ATOM      6  C   LIG A   1      -8.854   3.505 129.255  0.00  0.00    +0.014 C 
ATOM      7  C   LIG A   1     -11.024   6.329 132.199  0.00  0.00    +0.147 C 
ATOM      8  C   LIG A   1     -12.167   6.693 131.251  0.00  0.00    +0.165 C 
ATOM      9  O   LIG A   1     -13.190   7.215 131.689  0.00  0.00    -0.292 OA
ATOM     10  C   LIG A   1     -12.040   6.416 129.780  0.00  0.00    -0.002 C 
ATOM     11  C   LIG A   1     -10.868   5.946 129.270  0.00  0.00    +0.020 C 
ENDROOT
BRANCH   4  12
ATOM     12  C   LIG A   1      -6.608   5.525 131.481  0.00  0.00    -0.011 A 
ATOM     13  C   LIG A   1      -6.007   6.156 130.387  0.00  0.00    +0.056 A 
ATOM     14  C   LIG A   1      -4.860   6.940 130.548  0.00  0.00    +0.166 A 
ATOM     15  C   LIG A   1      -4.234   7.037 131.812  0.00  0.00    +0.203 A 
ATOM     16  C   LIG A   1      -4.819   6.390 132.918  0.00  0.00    +0.166 A 
ATOM     17  C   LIG A   1      -6.003   5.660 132.739  0.00  0.00    +0.056 A 
BRANCH  14  18
ATOM     18  O   LIG A   1      -4.269   7.603 129.498  0.00  0.00    -0.491 OA
ATOM     19  C   LIG A   1      -3.632   6.795 128.513  0.00  0.00    +0.277 C 
ENDBRANCH  14  18
BRANCH  16  20
ATOM     20  O   LIG A   1      -4.265   6.561 134.161  0.00  0.00    -0.491 OA
ATOM     21  C   LIG A   1      -5.084   6.216 135.275  0.00  0.00    +0.277 C 
ENDBRANCH  16  20
BRANCH  15  22
ATOM     22  O   LIG A   1      -3.115   7.837 131.846  0.00  0.00    -0.488 OA
ATOM     23  C   LIG A   1      -1.847   7.195 131.906  0.00  0.00    +0.277 C 
ENDBRANCH  15  22
ENDBRANCH   4  12
BRANCH   1  24
ATOM     24  O   LIG A   1      -9.107   7.175 130.268  0.00  0.00    -0.367 OA
ATOM     25  C   LIG A   1      -9.465   8.104 129.246  0.00  0.00    +0.195 C 
ENDBRANCH   1  24
BRANCH   2  26
ATOM     26  O   LIG A   1     -10.745   4.056 131.502  0.00  0.00    -0.362 OA
ATOM     27  H   LIG A   1     -10.465   3.604 132.318  0.00  0.00    +0.213 HD
ENDBRANCH   2  26
BRANCH  10  28
ATOM     28  C   LIG A   1     -13.238   6.664 128.903  0.00  0.00    +0.065 C 
BRANCH  28  29
ATOM     29  C   LIG A   1     -13.139   7.948 128.117  0.00  0.00    -0.030 C 
ATOM     30  C   LIG A   1     -13.097   9.176 128.655  0.00  0.00    +0.004 C 
ENDBRANCH  28  29
ENDBRANCH  10  28
TORSDOF 8
ENDMDL
MODEL 7
REMARK VINA RESULT:      -6.6      3.618      5.548
REMARK  Name = NuBBE_2044
REMARK  13 active torsions:
REMARK  status: ('A' for Active; 'I' for Inactive)
REMARK    1  A    between atoms: O_1  and  C_2
REMARK    2  A    between atoms: O_1  and  C_3
REMARK    3  A    between atoms: C_4  and  O_5
REMARK    4  A    between atoms: C_7  and  C_12
REMARK    5  A    between atoms: C_9  and  C_11
REMARK    6  A    between atoms: C_14  and  O_15
REMARK    7  A    between atoms: O_15  and  C_16
REMARK    8  A    between atoms: C_17  and  O_22
REMARK    9  A    between atoms: C_18  and  O_20
REMARK   10  A    between atoms: O_20  and  C_21
REMARK   11  A    between atoms: O_22  and  C_23
REMARK   12  A    between atoms: C_27  and  C_29
REMARK   13  A    between atoms: C_29  and  C_30
REMARK                            x       y       z     vdW  Elec       q    Type
REMARK                         _______ _______ _______ _____ _____    ______ ____
ROOT
ATOM      1  C   LIG A   1      -6.775   2.920 125.257  0.00  0.00    +0.147 C 
ATOM      2  C   LIG A   1      -8.047   2.033 125.181  0.00  0.00    +0.209 C 
ATOM      3  O   LIG A   1      -8.537   1.964 126.518  0.00  0.00    -0.337 OA
ATOM      4  C   LIG A   1      -7.388   2.063 127.399  0.00  0.00    +0.158 C 
ATOM      5  C   LIG A   1      -6.131   2.359 126.529  0.00  0.00    +0.060 C 
ATOM      6  C   LIG A   1      -5.252   1.117 126.374  0.00  0.00    +0.014 C 
ATOM      7  C   LIG A   1      -9.039   2.602 124.182  0.00  0.00    +0.147 C 
ATOM      8  C   LIG A   1      -8.350   2.863 122.842  0.00  0.00    +0.165 C 
ATOM      9  O   LIG A   1      -9.020   3.005 121.821  0.00  0.00    -0.292 OA
ATOM     10  C   LIG A   1      -6.852   2.951 122.772  0.00  0.00    -0.002 C 
ATOM     11  C   LIG A   1      -6.109   2.912 123.913  0.00  0.00    +0.020 C 
ENDROOT
BRANCH   4  12
ATOM     12  C   LIG A   1      -7.639   3.106 128.477  0.00  0.00    -0.011 A 
ATOM     13  C   LIG A   1      -6.646   4.043 128.781  0.00  0.00    +0.056 A 
ATOM     14  C   LIG A   1      -6.863   5.035 129.742  0.00  0.00    +0.166 A 
ATOM     15  C   LIG A   1      -8.062   5.054 130.491  0.00  0.00    +0.203 A 
ATOM     16  C   LIG A   1      -9.061   4.103 130.208  0.00  0.00    +0.166 A 
ATOM     17  C   LIG A   1      -8.842   3.156 129.196  0.00  0.00    +0.056 A 
BRANCH  14  18
ATOM     18  O   LIG A   1      -5.921   5.993 130.035  0.00  0.00    -0.491 OA
ATOM     19  C   LIG A   1      -4.579   5.704 129.652  0.00  0.00    +0.277 C 
ENDBRANCH  14  18
BRANCH  16  20
ATOM     20  O   LIG A   1     -10.262   4.178 130.868  0.00  0.00    -0.491 OA
ATOM     21  C   LIG A   1     -11.240   5.051 130.310  0.00  0.00    +0.277 C 
ENDBRANCH  16  20
BRANCH  15  22
ATOM     22  O   LIG A   1      -8.160   6.077 131.406  0.00  0.00    -0.488 OA
ATOM     23  C   LIG A   1      -7.939   5.762 132.775  0.00  0.00    +0.277 C 
ENDBRANCH  15  22
ENDBRANCH   4  12
BRANCH   1  24
ATOM     24  O   LIG A   1      -7.174   4.297 125.511  0.00  0.00    -0.367 OA
ATOM     25  C   LIG A   1      -6.190   5.299 125.257  0.00  0.00    +0.195 C 
ENDBRANCH   1  24
BRANCH   2  26
ATOM     26  O   LIG A   1      -7.767   0.677 124.822  0.00  0.00    -0.362 OA
ATOM     27  H   LIG A   1      -6.854   0.689 124.482  0.00  0.00    +0.213 HD
ENDBRANCH   2  26
BRANCH  10  28
ATOM     28  C   LIG A   1      -6.209   3.074 121.416  0.00  0.00    +0.065 C 
BRANCH  28  29
ATOM     29  C   LIG A   1      -5.408   4.342 121.255  0.00  0.00    -0.030 C 
ATOM     30  C   LIG A   1      -5.311   5.049 120.119  0.00  0.00    +0.004 C 
ENDBRANCH  28  29
ENDBRANCH  10  28
TORSDOF 8
ENDMDL
MODEL 8
REMARK VINA RESULT:      -6.6      3.410      6.383
REMARK  Name = NuBBE_2044
REMARK  13 active torsions:
REMARK  status: ('A' for Active; 'I' for Inactive)
REMARK    1  A    between atoms: O_1  and  C_2
REMARK    2  A    between atoms: O_1  and  C_3
REMARK    3  A    between atoms: C_4  and  O_5
REMARK    4  A    between atoms: C_7  and  C_12
REMARK    5  A    between atoms: C_9  and  C_11
REMARK    6  A    between atoms: C_14  and  O_15
REMARK    7  A    between atoms: O_15  and  C_16
REMARK    8  A    between atoms: C_17  and  O_22
REMARK    9  A    between atoms: C_18  and  O_20
REMARK   10  A    between atoms: O_20  and  C_21
REMARK   11  A    between atoms: O_22  and  C_23
REMARK   12  A    between atoms: C_27  and  C_29
REMARK   13  A    between atoms: C_29  and  C_30
REMARK                            x       y       z     vdW  Elec       q    Type
REMARK                         _______ _______ _______ _____ _____    ______ ____
ROOT
ATOM      1  C   LIG A   1      -6.246  -0.391 126.733  0.00  0.00    +0.147 C 
ATOM      2  C   LIG A   1      -7.616  -1.049 127.049  0.00  0.00    +0.209 C 
ATOM      3  O   LIG A   1      -8.153  -0.294 128.133  0.00  0.00    -0.337 OA
ATOM      4  C   LIG A   1      -7.029   0.197 128.909  0.00  0.00    +0.158 C 
ATOM      5  C   LIG A   1      -5.718  -0.168 128.154  0.00  0.00    +0.060 C 
ATOM      6  C   LIG A   1      -4.997  -1.342 128.819  0.00  0.00    +0.014 C 
ATOM      7  C   LIG A   1      -8.496  -1.078 125.813  0.00  0.00    +0.147 C 
ATOM      8  C   LIG A   1      -7.738  -1.696 124.638  0.00  0.00    +0.165 C 
ATOM      9  O   LIG A   1      -8.351  -2.113 123.658  0.00  0.00    -0.292 OA
ATOM     10  C   LIG A   1      -6.238  -1.791 124.677  0.00  0.00    -0.002 C 
ATOM     11  C   LIG A   1      -5.544  -1.228 125.705  0.00  0.00    +0.020 C 
ENDROOT
BRANCH   4  12
ATOM     12  C   LIG A   1      -7.182   1.688 129.172  0.00  0.00    -0.011 A 
ATOM     13  C   LIG A   1      -8.455   2.267 129.161  0.00  0.00    +0.056 A 
ATOM     14  C   LIG A   1      -8.630   3.627 129.436  0.00  0.00    +0.166 A 
ATOM     15  C   LIG A   1      -7.509   4.463 129.644  0.00  0.00    +0.203 A 
ATOM     16  C   LIG A   1      -6.220   3.895 129.637  0.00  0.00    +0.166 A 
ATOM     17  C   LIG A   1      -6.078   2.516 129.419  0.00  0.00    +0.056 A 
BRANCH  14  18
ATOM     18  O   LIG A   1      -9.872   4.217 129.470  0.00  0.00    -0.491 OA
ATOM     19  C   LIG A   1     -10.759   3.773 130.492  0.00  0.00    +0.277 C 
ENDBRANCH  14  18
BRANCH  16  20
ATOM     20  O   LIG A   1      -5.139   4.687 129.931  0.00  0.00    -0.491 OA
ATOM     21  C   LIG A   1      -4.325   5.086 128.832  0.00  0.00    +0.277 C 
ENDBRANCH  16  20
BRANCH  15  22
ATOM     22  O   LIG A   1      -7.807   5.781 129.905  0.00  0.00    -0.488 OA
ATOM     23  C   LIG A   1      -7.812   6.199 131.264  0.00  0.00    +0.277 C 
ENDBRANCH  15  22
ENDBRANCH   4  12
BRANCH   1  24
ATOM     24  O   LIG A   1      -6.477   0.909 126.118  0.00  0.00    -0.367 OA
ATOM     25  C   LIG A   1      -5.323   1.716 125.888  0.00  0.00    +0.195 C 
ENDBRANCH   1  24
BRANCH   2  26
ATOM     26  O   LIG A   1      -7.496  -2.382 127.555  0.00  0.00    -0.362 OA
ATOM     27  H   LIG A   1      -7.367  -2.278 128.515  0.00  0.00    +0.213 HD
ENDBRANCH   2  26
BRANCH  10  28
ATOM     28  C   LIG A   1      -5.543  -2.525 123.563  0.00  0.00    +0.065 C 
BRANCH  28  29
ATOM     29  C   LIG A   1      -5.194  -3.949 123.922  0.00  0.00    -0.030 C 
ATOM     30  C   LIG A   1      -4.072  -4.581 123.546  0.00  0.00    +0.004 C 
ENDBRANCH  28  29
ENDBRANCH  10  28
TORSDOF 8
ENDMDL
MODEL 9
REMARK VINA RESULT:      -6.6      7.191      9.686
REMARK  Name = NuBBE_2044
REMARK  13 active torsions:
REMARK  status: ('A' for Active; 'I' for Inactive)
REMARK    1  A    between atoms: O_1  and  C_2
REMARK    2  A    between atoms: O_1  and  C_3
REMARK    3  A    between atoms: C_4  and  O_5
REMARK    4  A    between atoms: C_7  and  C_12
REMARK    5  A    between atoms: C_9  and  C_11
REMARK    6  A    between atoms: C_14  and  O_15
REMARK    7  A    between atoms: O_15  and  C_16
REMARK    8  A    between atoms: C_17  and  O_22
REMARK    9  A    between atoms: C_18  and  O_20
REMARK   10  A    between atoms: O_20  and  C_21
REMARK   11  A    between atoms: O_22  and  C_23
REMARK   12  A    between atoms: C_27  and  C_29
REMARK   13  A    between atoms: C_29  and  C_30
REMARK                            x       y       z     vdW  Elec       q    Type
REMARK                         _______ _______ _______ _____ _____    ______ ____
ROOT
ATOM      1  C   LIG A   1      -9.610   5.821 130.157  0.00  0.00    +0.147 C 
ATOM      2  C   LIG A   1     -10.040   5.330 131.566  0.00  0.00    +0.209 C 
ATOM      3  O   LIG A   1      -8.823   5.110 132.274  0.00  0.00    -0.337 OA
ATOM      4  C   LIG A   1      -7.825   4.720 131.296  0.00  0.00    +0.158 C 
ATOM      5  C   LIG A   1      -8.451   4.858 129.878  0.00  0.00    +0.060 C 
ATOM      6  C   LIG A   1      -8.810   3.492 129.289  0.00  0.00    +0.014 C 
ATOM      7  C   LIG A   1     -10.971   6.333 132.222  0.00  0.00    +0.147 C 
ATOM      8  C   LIG A   1     -12.122   6.684 131.279  0.00  0.00    +0.165 C 
ATOM      9  O   LIG A   1     -13.144   7.206 131.720  0.00  0.00    -0.292 OA
ATOM     10  C   LIG A   1     -12.004   6.395 129.809  0.00  0.00    -0.002 C 
ATOM     11  C   LIG A   1     -10.834   5.925 129.296  0.00  0.00    +0.020 C 
ENDROOT
BRANCH   4  12
ATOM     12  C   LIG A   1      -6.557   5.541 131.481  0.00  0.00    -0.011 A 
ATOM     13  C   LIG A   1      -5.929   5.575 132.730  0.00  0.00    +0.056 A 
ATOM     14  C   LIG A   1      -4.743   6.291 132.921  0.00  0.00    +0.166 A 
ATOM     15  C   LIG A   1      -4.203   7.069 131.871  0.00  0.00    +0.203 A 
ATOM     16  C   LIG A   1      -4.838   7.059 130.614  0.00  0.00    +0.166 A 
ATOM     17  C   LIG A   1      -5.993   6.283 130.434  0.00  0.00    +0.056 A 
BRANCH  14  18
ATOM     18  O   LIG A   1      -4.082   6.312 134.127  0.00  0.00    -0.491 OA
ATOM     19  C   LIG A   1      -4.890   6.445 135.292  0.00  0.00    +0.277 C 
ENDBRANCH  14  18
BRANCH  16  20
ATOM     20  O   LIG A   1      -4.263   7.739 129.570  0.00  0.00    -0.491 OA
ATOM     21  C   LIG A   1      -3.598   6.950 128.588  0.00  0.00    +0.277 C 
ENDBRANCH  16  20
BRANCH  15  22
ATOM     22  O   LIG A   1      -3.035   7.728 132.178  0.00  0.00    -0.488 OA
ATOM     23  C   LIG A   1      -1.809   7.071 131.882  0.00  0.00    +0.277 C 
ENDBRANCH  15  22
ENDBRANCH   4  12
BRANCH   1  24
ATOM     24  O   LIG A   1      -9.071   7.169 130.271  0.00  0.00    -0.367 OA
ATOM     25  C   LIG A   1      -9.459   8.095 129.257  0.00  0.00    +0.195 C 
ENDBRANCH   1  24
BRANCH   2  26
ATOM     26  O   LIG A   1     -10.688   4.055 131.544  0.00  0.00    -0.362 OA
ATOM     27  H   LIG A   1      -9.964   3.404 131.557  0.00  0.00    +0.213 HD
ENDBRANCH   2  26
BRANCH  10  28
ATOM     28  C   LIG A   1     -13.209   6.630 128.939  0.00  0.00    +0.065 C 
BRANCH  28  29
ATOM     29  C   LIG A   1     -13.107   7.892 128.118  0.00  0.00    -0.030 C 
ATOM     30  C   LIG A   1     -13.153   9.137 128.617  0.00  0.00    +0.004 C 
ENDBRANCH  28  29
ENDBRANCH  10  28
TORSDOF 8
ENDMDL
