MODEL 1
REMARK VINA RESULT:      -7.5      0.000      0.000
REMARK  Name = NuBBE_2258
REMARK  10 active torsions:
REMARK  status: ('A' for Active; 'I' for Inactive)
REMARK    1  A    between atoms: C_4  and  O_5
REMARK    2  A    between atoms: O_5  and  C_6
REMARK    3  A    between atoms: C_6  and  C_7
REMARK    4  A    between atoms: C_17  and  O_18
REMARK    5  A    between atoms: O_18  and  C_19
REMARK    6  A    between atoms: C_20  and  O_21
REMARK    7  A    between atoms: O_21  and  C_22
REMARK    8  A    between atoms: C_23  and  O_24
REMARK    9  A    between atoms: O_24  and  C_25
REMARK   10  A    between atoms: C_25  and  C_26
REMARK                            x       y       z     vdW  Elec       q    Type
REMARK                         _______ _______ _______ _____ _____    ______ ____
ROOT
ATOM      1  O   LIG A   1      -6.859  -0.015 126.943  0.00  0.00    -0.286 OA
ATOM      2  C   LIG A   1      -7.147   0.155 125.765  0.00  0.00    +0.204 A 
ATOM      3  C   LIG A   1      -7.838  -0.869 124.954  0.00  0.00    +0.107 A 
ATOM      4  C   LIG A   1      -8.108  -2.176 125.393  0.00  0.00    +0.146 A 
ATOM      5  C   LIG A   1      -8.871  -3.028 124.587  0.00  0.00    +0.047 A 
ATOM      6  C   LIG A   1      -9.303  -2.624 123.329  0.00  0.00    +0.007 A 
ATOM      7  C   LIG A   1      -8.973  -1.361 122.863  0.00  0.00    +0.047 A 
ATOM      8  C   LIG A   1      -8.246  -0.486 123.673  0.00  0.00    +0.143 A 
ATOM      9  O   LIG A   1      -7.962   0.721 123.093  0.00  0.00    -0.451 OA
ATOM     10  C   LIG A   1      -7.218   1.634 123.784  0.00  0.00    +0.185 A 
ATOM     11  C   LIG A   1      -6.804   1.428 125.094  0.00  0.00    +0.072 A 
ATOM     12  C   LIG A   1      -5.973   2.355 125.731  0.00  0.00    +0.065 A 
ATOM     13  C   LIG A   1      -5.519   3.484 125.037  0.00  0.00    +0.166 A 
ATOM     14  C   LIG A   1      -5.973   3.741 123.729  0.00  0.00    +0.208 A 
ATOM     15  C   LIG A   1      -6.800   2.791 123.106  0.00  0.00    +0.219 A 
ENDROOT
BRANCH  13  16
ATOM     16  O   LIG A   1      -4.607   4.366 125.566  0.00  0.00    -0.491 OA
ATOM     17  C   LIG A   1      -3.600   3.797 126.399  0.00  0.00    +0.277 C 
ENDBRANCH  13  16
BRANCH  14  18
ATOM     18  O   LIG A   1      -5.452   4.851 123.108  0.00  0.00    -0.488 OA
ATOM     19  C   LIG A   1      -4.394   4.632 122.179  0.00  0.00    +0.277 C 
ENDBRANCH  14  18
BRANCH   4  20
ATOM     20  O   LIG A   1      -7.525  -2.630 126.609  0.00  0.00    -0.425 OA
BRANCH  20  21
ATOM     21  C   LIG A   1      -8.238  -3.148 127.693  0.00  0.00    +0.309 C 
ATOM     22  C   LIG A   1      -7.801  -2.497 128.964  0.00  0.00    +0.136 C 
ATOM     23  O   LIG A   1      -9.098  -4.020 127.669  0.00  0.00    -0.251 OA
ENDBRANCH  20  21
ENDBRANCH   4  20
BRANCH  15  24
ATOM     24  O   LIG A   1      -6.892   2.857 121.689  0.00  0.00    -0.418 OA
BRANCH  24  25
ATOM     25  C   LIG A   1      -7.827   3.577 120.948  0.00  0.00    +0.309 C 
ATOM     26  C   LIG A   1      -7.107   4.138 119.759  0.00  0.00    +0.136 C 
ATOM     27  O   LIG A   1      -9.009   3.754 121.228  0.00  0.00    -0.251 OA
ENDBRANCH  24  25
ENDBRANCH  15  24
TORSDOF 6
ENDMDL
MODEL 2
REMARK VINA RESULT:      -7.3      1.592      7.767
REMARK  Name = NuBBE_2258
REMARK  10 active torsions:
REMARK  status: ('A' for Active; 'I' for Inactive)
REMARK    1  A    between atoms: C_4  and  O_5
REMARK    2  A    between atoms: O_5  and  C_6
REMARK    3  A    between atoms: C_6  and  C_7
REMARK    4  A    between atoms: C_17  and  O_18
REMARK    5  A    between atoms: O_18  and  C_19
REMARK    6  A    between atoms: C_20  and  O_21
REMARK    7  A    between atoms: O_21  and  C_22
REMARK    8  A    between atoms: C_23  and  O_24
REMARK    9  A    between atoms: O_24  and  C_25
REMARK   10  A    between atoms: C_25  and  C_26
REMARK                            x       y       z     vdW  Elec       q    Type
REMARK                         _______ _______ _______ _____ _____    ______ ____
ROOT
ATOM      1  O   LIG A   1      -8.132   2.089 123.957  0.00  0.00    -0.286 OA
ATOM      2  C   LIG A   1      -7.353   1.586 124.756  0.00  0.00    +0.204 A 
ATOM      3  C   LIG A   1      -6.110   2.256 125.192  0.00  0.00    +0.107 A 
ATOM      4  C   LIG A   1      -5.623   3.453 124.643  0.00  0.00    +0.146 A 
ATOM      5  C   LIG A   1      -4.497   4.062 125.209  0.00  0.00    +0.047 A 
ATOM      6  C   LIG A   1      -3.813   3.460 126.259  0.00  0.00    +0.007 A 
ATOM      7  C   LIG A   1      -4.248   2.240 126.752  0.00  0.00    +0.047 A 
ATOM      8  C   LIG A   1      -5.393   1.642 126.223  0.00  0.00    +0.143 A 
ATOM      9  O   LIG A   1      -5.707   0.430 126.776  0.00  0.00    -0.451 OA
ATOM     10  C   LIG A   1      -6.785  -0.262 126.300  0.00  0.00    +0.185 A 
ATOM     11  C   LIG A   1      -7.637   0.252 125.329  0.00  0.00    +0.072 A 
ATOM     12  C   LIG A   1      -8.677  -0.526 124.814  0.00  0.00    +0.065 A 
ATOM     13  C   LIG A   1      -8.846  -1.848 125.245  0.00  0.00    +0.166 A 
ATOM     14  C   LIG A   1      -8.031  -2.369 126.270  0.00  0.00    +0.208 A 
ATOM     15  C   LIG A   1      -6.986  -1.571 126.766  0.00  0.00    +0.219 A 
ENDROOT
BRANCH  13  16
ATOM     16  O   LIG A   1      -9.771  -2.700 124.691  0.00  0.00    -0.491 OA
ATOM     17  C   LIG A   1      -9.477  -3.171 123.378  0.00  0.00    +0.277 C 
ENDBRANCH  13  16
BRANCH  14  18
ATOM     18  O   LIG A   1      -8.240  -3.683 126.609  0.00  0.00    -0.488 OA
ATOM     19  C   LIG A   1      -8.949  -3.932 127.819  0.00  0.00    +0.277 C 
ENDBRANCH  14  18
BRANCH   4  20
ATOM     20  O   LIG A   1      -6.235   3.974 123.469  0.00  0.00    -0.425 OA
BRANCH  20  21
ATOM     21  C   LIG A   1      -5.584   4.171 122.247  0.00  0.00    +0.309 C 
ATOM     22  C   LIG A   1      -5.877   3.044 121.313  0.00  0.00    +0.136 C 
ATOM     23  O   LIG A   1      -4.857   5.105 121.936  0.00  0.00    -0.251 OA
ENDBRANCH  20  21
ENDBRANCH   4  20
BRANCH  15  24
ATOM     24  O   LIG A   1      -5.946  -2.244 127.465  0.00  0.00    -0.418 OA
BRANCH  24  25
ATOM     25  C   LIG A   1      -5.782  -2.314 128.846  0.00  0.00    +0.309 C 
ATOM     26  C   LIG A   1      -4.436  -2.925 129.097  0.00  0.00    +0.136 C 
ATOM     27  O   LIG A   1      -6.595  -1.977 129.702  0.00  0.00    -0.251 OA
ENDBRANCH  24  25
ENDBRANCH  15  24
TORSDOF 6
ENDMDL
MODEL 3
REMARK VINA RESULT:      -7.0      3.229      7.395
REMARK  Name = NuBBE_2258
REMARK  10 active torsions:
REMARK  status: ('A' for Active; 'I' for Inactive)
REMARK    1  A    between atoms: C_4  and  O_5
REMARK    2  A    between atoms: O_5  and  C_6
REMARK    3  A    between atoms: C_6  and  C_7
REMARK    4  A    between atoms: C_17  and  O_18
REMARK    5  A    between atoms: O_18  and  C_19
REMARK    6  A    between atoms: C_20  and  O_21
REMARK    7  A    between atoms: O_21  and  C_22
REMARK    8  A    between atoms: C_23  and  O_24
REMARK    9  A    between atoms: O_24  and  C_25
REMARK   10  A    between atoms: C_25  and  C_26
REMARK                            x       y       z     vdW  Elec       q    Type
REMARK                         _______ _______ _______ _____ _____    ______ ____
ROOT
ATOM      1  O   LIG A   1      -8.747   1.107 126.598  0.00  0.00    -0.286 OA
ATOM      2  C   LIG A   1      -8.338  -0.025 126.823  0.00  0.00    +0.204 A 
ATOM      3  C   LIG A   1      -8.386  -1.108 125.819  0.00  0.00    +0.107 A 
ATOM      4  C   LIG A   1      -9.023  -1.001 124.571  0.00  0.00    +0.146 A 
ATOM      5  C   LIG A   1      -8.908  -2.048 123.649  0.00  0.00    +0.047 A 
ATOM      6  C   LIG A   1      -8.237  -3.219 123.979  0.00  0.00    +0.007 A 
ATOM      7  C   LIG A   1      -7.673  -3.356 125.238  0.00  0.00    +0.047 A 
ATOM      8  C   LIG A   1      -7.745  -2.304 126.153  0.00  0.00    +0.143 A 
ATOM      9  O   LIG A   1      -7.173  -2.568 127.368  0.00  0.00    -0.451 OA
ATOM     10  C   LIG A   1      -7.227  -1.622 128.351  0.00  0.00    +0.185 A 
ATOM     11  C   LIG A   1      -7.765  -0.357 128.146  0.00  0.00    +0.072 A 
ATOM     12  C   LIG A   1      -7.874   0.549 129.205  0.00  0.00    +0.065 A 
ATOM     13  C   LIG A   1      -7.475   0.173 130.495  0.00  0.00    +0.166 A 
ATOM     14  C   LIG A   1      -6.874  -1.082 130.713  0.00  0.00    +0.208 A 
ATOM     15  C   LIG A   1      -6.784  -1.979 129.635  0.00  0.00    +0.219 A 
ENDROOT
BRANCH  13  16
ATOM     16  O   LIG A   1      -7.668   0.972 131.596  0.00  0.00    -0.491 OA
ATOM     17  C   LIG A   1      -9.025   1.235 131.946  0.00  0.00    +0.277 C 
ENDBRANCH  13  16
BRANCH  14  18
ATOM     18  O   LIG A   1      -6.545  -1.385 132.012  0.00  0.00    -0.488 OA
ATOM     19  C   LIG A   1      -5.182  -1.208 132.389  0.00  0.00    +0.277 C 
ENDBRANCH  14  18
BRANCH   4  20
ATOM     20  O   LIG A   1      -9.840   0.133 124.308  0.00  0.00    -0.425 OA
BRANCH  20  21
ATOM     21  C   LIG A   1      -9.863   0.841 123.103  0.00  0.00    +0.309 C 
ATOM     22  C   LIG A   1      -9.038   2.081 123.212  0.00  0.00    +0.136 C 
ATOM     23  O   LIG A   1     -10.463   0.544 122.078  0.00  0.00    -0.251 OA
ENDBRANCH  20  21
ENDBRANCH   4  20
BRANCH  15  24
ATOM     24  O   LIG A   1      -6.576  -3.348 129.960  0.00  0.00    -0.418 OA
BRANCH  24  25
ATOM     25  C   LIG A   1      -5.352  -4.007 130.046  0.00  0.00    +0.309 C 
ATOM     26  C   LIG A   1      -5.520  -5.117 131.039  0.00  0.00    +0.136 C 
ATOM     27  O   LIG A   1      -4.317  -3.716 129.454  0.00  0.00    -0.251 OA
ENDBRANCH  24  25
ENDBRANCH  15  24
TORSDOF 6
ENDMDL
MODEL 4
REMARK VINA RESULT:      -7.0      2.053      3.644
REMARK  Name = NuBBE_2258
REMARK  10 active torsions:
REMARK  status: ('A' for Active; 'I' for Inactive)
REMARK    1  A    between atoms: C_4  and  O_5
REMARK    2  A    between atoms: O_5  and  C_6
REMARK    3  A    between atoms: C_6  and  C_7
REMARK    4  A    between atoms: C_17  and  O_18
REMARK    5  A    between atoms: O_18  and  C_19
REMARK    6  A    between atoms: C_20  and  O_21
REMARK    7  A    between atoms: O_21  and  C_22
REMARK    8  A    between atoms: C_23  and  O_24
REMARK    9  A    between atoms: O_24  and  C_25
REMARK   10  A    between atoms: C_25  and  C_26
REMARK                            x       y       z     vdW  Elec       q    Type
REMARK                         _______ _______ _______ _____ _____    ______ ____
ROOT
ATOM      1  O   LIG A   1      -6.303   0.364 128.776  0.00  0.00    -0.286 OA
ATOM      2  C   LIG A   1      -6.877  -0.186 127.845  0.00  0.00    +0.204 A 
ATOM      3  C   LIG A   1      -7.481  -1.530 127.958  0.00  0.00    +0.107 A 
ATOM      4  C   LIG A   1      -7.343  -2.367 129.078  0.00  0.00    +0.146 A 
ATOM      5  C   LIG A   1      -8.053  -3.572 129.128  0.00  0.00    +0.047 A 
ATOM      6  C   LIG A   1      -8.834  -3.985 128.054  0.00  0.00    +0.007 A 
ATOM      7  C   LIG A   1      -8.911  -3.196 126.917  0.00  0.00    +0.047 A 
ATOM      8  C   LIG A   1      -8.239  -1.973 126.870  0.00  0.00    +0.143 A 
ATOM      9  O   LIG A   1      -8.372  -1.297 125.687  0.00  0.00    -0.451 OA
ATOM     10  C   LIG A   1      -7.720  -0.109 125.520  0.00  0.00    +0.185 A 
ATOM     11  C   LIG A   1      -6.989   0.495 126.537  0.00  0.00    +0.072 A 
ATOM     12  C   LIG A   1      -6.269   1.668 126.293  0.00  0.00    +0.065 A 
ATOM     13  C   LIG A   1      -6.248   2.226 125.008  0.00  0.00    +0.166 A 
ATOM     14  C   LIG A   1      -7.028   1.663 123.979  0.00  0.00    +0.208 A 
ATOM     15  C   LIG A   1      -7.736   0.478 124.244  0.00  0.00    +0.219 A 
ENDROOT
BRANCH  13  16
ATOM     16  O   LIG A   1      -5.466   3.306 124.677  0.00  0.00    -0.491 OA
ATOM     17  C   LIG A   1      -5.855   4.555 125.245  0.00  0.00    +0.277 C 
ENDBRANCH  13  16
BRANCH  14  18
ATOM     18  O   LIG A   1      -6.924   2.250 122.741  0.00  0.00    -0.488 OA
ATOM     19  C   LIG A   1      -7.962   3.150 122.365  0.00  0.00    +0.277 C 
ENDBRANCH  14  18
BRANCH   4  20
ATOM     20  O   LIG A   1      -6.417  -2.010 130.097  0.00  0.00    -0.425 OA
BRANCH  20  21
ATOM     21  C   LIG A   1      -5.297  -2.763 130.460  0.00  0.00    +0.309 C 
ATOM     22  C   LIG A   1      -4.350  -2.874 129.311  0.00  0.00    +0.136 C 
ATOM     23  O   LIG A   1      -5.075  -3.291 131.542  0.00  0.00    -0.251 OA
ENDBRANCH  20  21
ENDBRANCH   4  20
BRANCH  15  24
ATOM     24  O   LIG A   1      -8.154  -0.282 123.118  0.00  0.00    -0.418 OA
BRANCH  24  25
ATOM     25  C   LIG A   1      -9.446  -0.725 122.846  0.00  0.00    +0.309 C 
ATOM     26  C   LIG A   1     -10.252   0.480 122.465  0.00  0.00    +0.136 C 
ATOM     27  O   LIG A   1      -9.864  -1.876 122.935  0.00  0.00    -0.251 OA
ENDBRANCH  24  25
ENDBRANCH  15  24
TORSDOF 6
ENDMDL
MODEL 5
REMARK VINA RESULT:      -7.0      2.614      5.645
REMARK  Name = NuBBE_2258
REMARK  10 active torsions:
REMARK  status: ('A' for Active; 'I' for Inactive)
REMARK    1  A    between atoms: C_4  and  O_5
REMARK    2  A    between atoms: O_5  and  C_6
REMARK    3  A    between atoms: C_6  and  C_7
REMARK    4  A    between atoms: C_17  and  O_18
REMARK    5  A    between atoms: O_18  and  C_19
REMARK    6  A    between atoms: C_20  and  O_21
REMARK    7  A    between atoms: O_21  and  C_22
REMARK    8  A    between atoms: C_23  and  O_24
REMARK    9  A    between atoms: O_24  and  C_25
REMARK   10  A    between atoms: C_25  and  C_26
REMARK                            x       y       z     vdW  Elec       q    Type
REMARK                         _______ _______ _______ _____ _____    ______ ____
ROOT
ATOM      1  O   LIG A   1      -5.156   0.376 128.150  0.00  0.00    -0.286 OA
ATOM      2  C   LIG A   1      -6.102  -0.377 127.959  0.00  0.00    +0.204 A 
ATOM      3  C   LIG A   1      -6.492  -1.432 128.918  0.00  0.00    +0.107 A 
ATOM      4  C   LIG A   1      -5.751  -1.773 130.062  0.00  0.00    +0.146 A 
ATOM      5  C   LIG A   1      -6.272  -2.708 130.965  0.00  0.00    +0.047 A 
ATOM      6  C   LIG A   1      -7.475  -3.355 130.708  0.00  0.00    +0.007 A 
ATOM      7  C   LIG A   1      -8.170  -3.075 129.542  0.00  0.00    +0.047 A 
ATOM      8  C   LIG A   1      -7.682  -2.115 128.652  0.00  0.00    +0.143 A 
ATOM      9  O   LIG A   1      -8.443  -1.945 127.527  0.00  0.00    -0.451 OA
ATOM     10  C   LIG A   1      -8.032  -1.061 126.571  0.00  0.00    +0.185 A 
ATOM     11  C   LIG A   1      -6.911  -0.255 126.727  0.00  0.00    +0.072 A 
ATOM     12  C   LIG A   1      -6.482   0.574 125.685  0.00  0.00    +0.065 A 
ATOM     13  C   LIG A   1      -7.159   0.570 124.459  0.00  0.00    +0.166 A 
ATOM     14  C   LIG A   1      -8.331  -0.196 124.300  0.00  0.00    +0.208 A 
ATOM     15  C   LIG A   1      -8.738  -1.028 125.357  0.00  0.00    +0.219 A 
ENDROOT
BRANCH  13  16
ATOM     16  O   LIG A   1      -6.717   1.268 123.362  0.00  0.00    -0.491 OA
ATOM     17  C   LIG A   1      -6.760   2.689 123.468  0.00  0.00    +0.277 C 
ENDBRANCH  13  16
BRANCH  14  18
ATOM     18  O   LIG A   1      -8.914  -0.171 123.056  0.00  0.00    -0.488 OA
ATOM     19  C   LIG A   1     -10.027   0.702 122.884  0.00  0.00    +0.277 C 
ENDBRANCH  14  18
BRANCH   4  20
ATOM     20  O   LIG A   1      -4.450  -1.224 130.231  0.00  0.00    -0.425 OA
BRANCH  20  21
ATOM     21  C   LIG A   1      -3.309  -1.960 130.563  0.00  0.00    +0.309 C 
ATOM     22  C   LIG A   1      -2.981  -2.931 129.477  0.00  0.00    +0.136 C 
ATOM     23  O   LIG A   1      -2.641  -1.874 131.586  0.00  0.00    -0.251 OA
ENDBRANCH  20  21
ENDBRANCH   4  20
BRANCH  15  24
ATOM     24  O   LIG A   1      -9.642  -2.076 125.032  0.00  0.00    -0.418 OA
BRANCH  24  25
ATOM     25  C   LIG A   1      -9.406  -3.140 124.165  0.00  0.00    +0.309 C 
ATOM     26  C   LIG A   1      -8.237  -3.901 124.712  0.00  0.00    +0.136 C 
ATOM     27  O   LIG A   1     -10.011  -3.391 123.126  0.00  0.00    -0.251 OA
ENDBRANCH  24  25
ENDBRANCH  15  24
TORSDOF 6
ENDMDL
MODEL 6
REMARK VINA RESULT:      -6.9      3.820      7.300
REMARK  Name = NuBBE_2258
REMARK  10 active torsions:
REMARK  status: ('A' for Active; 'I' for Inactive)
REMARK    1  A    between atoms: C_4  and  O_5
REMARK    2  A    between atoms: O_5  and  C_6
REMARK    3  A    between atoms: C_6  and  C_7
REMARK    4  A    between atoms: C_17  and  O_18
REMARK    5  A    between atoms: O_18  and  C_19
REMARK    6  A    between atoms: C_20  and  O_21
REMARK    7  A    between atoms: O_21  and  C_22
REMARK    8  A    between atoms: C_23  and  O_24
REMARK    9  A    between atoms: O_24  and  C_25
REMARK   10  A    between atoms: C_25  and  C_26
REMARK                            x       y       z     vdW  Elec       q    Type
REMARK                         _______ _______ _______ _____ _____    ______ ____
ROOT
ATOM      1  O   LIG A   1      -8.142   0.249 125.838  0.00  0.00    -0.286 OA
ATOM      2  C   LIG A   1      -7.350  -0.640 126.123  0.00  0.00    +0.204 A 
ATOM      3  C   LIG A   1      -6.658  -1.453 125.101  0.00  0.00    +0.107 A 
ATOM      4  C   LIG A   1      -6.933  -1.394 123.725  0.00  0.00    +0.146 A 
ATOM      5  C   LIG A   1      -6.137  -2.123 122.833  0.00  0.00    +0.047 A 
ATOM      6  C   LIG A   1      -5.129  -2.960 123.296  0.00  0.00    +0.007 A 
ATOM      7  C   LIG A   1      -4.907  -3.078 124.659  0.00  0.00    +0.047 A 
ATOM      8  C   LIG A   1      -5.667  -2.326 125.558  0.00  0.00    +0.143 A 
ATOM      9  O   LIG A   1      -5.371  -2.547 126.876  0.00  0.00    -0.451 OA
ATOM     10  C   LIG A   1      -6.085  -1.894 127.839  0.00  0.00    +0.185 A 
ATOM     11  C   LIG A   1      -7.051  -0.941 127.540  0.00  0.00    +0.072 A 
ATOM     12  C   LIG A   1      -7.815  -0.361 128.557  0.00  0.00    +0.065 A 
ATOM     13  C   LIG A   1      -7.638  -0.765 129.886  0.00  0.00    +0.166 A 
ATOM     14  C   LIG A   1      -6.625  -1.686 130.218  0.00  0.00    +0.208 A 
ATOM     15  C   LIG A   1      -5.877  -2.263 129.178  0.00  0.00    +0.219 A 
ENDROOT
BRANCH  13  16
ATOM     16  O   LIG A   1      -8.438  -0.322 130.912  0.00  0.00    -0.491 OA
ATOM     17  C   LIG A   1      -8.394   1.079 131.177  0.00  0.00    +0.277 C 
ENDBRANCH  13  16
BRANCH  14  18
ATOM     18  O   LIG A   1      -6.543  -2.054 131.539  0.00  0.00    -0.488 OA
ATOM     19  C   LIG A   1      -5.666  -1.294 132.366  0.00  0.00    +0.277 C 
ENDBRANCH  14  18
BRANCH   4  20
ATOM     20  O   LIG A   1      -8.067  -0.661 123.277  0.00  0.00    -0.425 OA
BRANCH  20  21
ATOM     21  C   LIG A   1      -9.306  -1.223 122.956  0.00  0.00    +0.309 C 
ATOM     22  C   LIG A   1      -9.336  -2.668 123.332  0.00  0.00    +0.136 C 
ATOM     23  O   LIG A   1     -10.260  -0.665 122.430  0.00  0.00    -0.251 OA
ENDBRANCH  20  21
ENDBRANCH   4  20
BRANCH  15  24
ATOM     24  O   LIG A   1      -5.180  -3.464 129.484  0.00  0.00    -0.418 OA
BRANCH  24  25
ATOM     25  C   LIG A   1      -3.871  -3.573 129.946  0.00  0.00    +0.309 C 
ATOM     26  C   LIG A   1      -3.013  -3.905 128.763  0.00  0.00    +0.136 C 
ATOM     27  O   LIG A   1      -3.489  -3.457 131.108  0.00  0.00    -0.251 OA
ENDBRANCH  24  25
ENDBRANCH  15  24
TORSDOF 6
ENDMDL
MODEL 7
REMARK VINA RESULT:      -6.7      2.834      5.588
REMARK  Name = NuBBE_2258
REMARK  10 active torsions:
REMARK  status: ('A' for Active; 'I' for Inactive)
REMARK    1  A    between atoms: C_4  and  O_5
REMARK    2  A    between atoms: O_5  and  C_6
REMARK    3  A    between atoms: C_6  and  C_7
REMARK    4  A    between atoms: C_17  and  O_18
REMARK    5  A    between atoms: O_18  and  C_19
REMARK    6  A    between atoms: C_20  and  O_21
REMARK    7  A    between atoms: O_21  and  C_22
REMARK    8  A    between atoms: C_23  and  O_24
REMARK    9  A    between atoms: O_24  and  C_25
REMARK   10  A    between atoms: C_25  and  C_26
REMARK                            x       y       z     vdW  Elec       q    Type
REMARK                         _______ _______ _______ _____ _____    ______ ____
ROOT
ATOM      1  O   LIG A   1      -8.053   1.365 129.692  0.00  0.00    -0.286 OA
ATOM      2  C   LIG A   1      -7.951   0.383 128.969  0.00  0.00    +0.204 A 
ATOM      3  C   LIG A   1      -7.504  -0.935 129.467  0.00  0.00    +0.107 A 
ATOM      4  C   LIG A   1      -7.022  -1.167 130.766  0.00  0.00    +0.146 A 
ATOM      5  C   LIG A   1      -6.735  -2.477 131.169  0.00  0.00    +0.047 A 
ATOM      6  C   LIG A   1      -6.851  -3.539 130.280  0.00  0.00    +0.007 A 
ATOM      7  C   LIG A   1      -7.254  -3.301 128.975  0.00  0.00    +0.047 A 
ATOM      8  C   LIG A   1      -7.582  -2.005 128.571  0.00  0.00    +0.143 A 
ATOM      9  O   LIG A   1      -7.942  -1.894 127.255  0.00  0.00    -0.451 OA
ATOM     10  C   LIG A   1      -8.240  -0.663 126.746  0.00  0.00    +0.185 A 
ATOM     11  C   LIG A   1      -8.279   0.484 127.531  0.00  0.00    +0.072 A 
ATOM     12  C   LIG A   1      -8.507   1.734 126.949  0.00  0.00    +0.065 A 
ATOM     13  C   LIG A   1      -8.660   1.847 125.561  0.00  0.00    +0.166 A 
ATOM     14  C   LIG A   1      -8.682   0.691 124.755  0.00  0.00    +0.208 A 
ATOM     15  C   LIG A   1      -8.442  -0.554 125.360  0.00  0.00    +0.219 A 
ENDROOT
BRANCH  13  16
ATOM     16  O   LIG A   1      -8.766   3.057 124.919  0.00  0.00    -0.491 OA
ATOM     17  C   LIG A   1      -7.631   3.914 125.013  0.00  0.00    +0.277 C 
ENDBRANCH  13  16
BRANCH  14  18
ATOM     18  O   LIG A   1      -8.802   0.892 123.401  0.00  0.00    -0.488 OA
ATOM     19  C   LIG A   1     -10.111   0.787 122.848  0.00  0.00    +0.277 C 
ENDBRANCH  14  18
BRANCH   4  20
ATOM     20  O   LIG A   1      -6.755  -0.056 131.612  0.00  0.00    -0.425 OA
BRANCH  20  21
ATOM     21  C   LIG A   1      -5.495   0.280 132.118  0.00  0.00    +0.309 C 
ATOM     22  C   LIG A   1      -4.675   0.953 131.068  0.00  0.00    +0.136 C 
ATOM     23  O   LIG A   1      -5.067   0.067 133.245  0.00  0.00    -0.251 OA
ENDBRANCH  20  21
ENDBRANCH   4  20
BRANCH  15  24
ATOM     24  O   LIG A   1      -8.054  -1.617 124.500  0.00  0.00    -0.418 OA
BRANCH  24  25
ATOM     25  C   LIG A   1      -8.845  -2.688 124.092  0.00  0.00    +0.309 C 
ATOM     26  C   LIG A   1      -8.196  -3.936 124.610  0.00  0.00    +0.136 C 
ATOM     27  O   LIG A   1      -9.862  -2.633 123.406  0.00  0.00    -0.251 OA
ENDBRANCH  24  25
ENDBRANCH  15  24
TORSDOF 6
ENDMDL
MODEL 8
REMARK VINA RESULT:      -6.6      2.347      4.895
REMARK  Name = NuBBE_2258
REMARK  10 active torsions:
REMARK  status: ('A' for Active; 'I' for Inactive)
REMARK    1  A    between atoms: C_4  and  O_5
REMARK    2  A    between atoms: O_5  and  C_6
REMARK    3  A    between atoms: C_6  and  C_7
REMARK    4  A    between atoms: C_17  and  O_18
REMARK    5  A    between atoms: O_18  and  C_19
REMARK    6  A    between atoms: C_20  and  O_21
REMARK    7  A    between atoms: O_21  and  C_22
REMARK    8  A    between atoms: C_23  and  O_24
REMARK    9  A    between atoms: O_24  and  C_25
REMARK   10  A    between atoms: C_25  and  C_26
REMARK                            x       y       z     vdW  Elec       q    Type
REMARK                         _______ _______ _______ _____ _____    ______ ____
ROOT
ATOM      1  O   LIG A   1      -6.212  -0.827 125.169  0.00  0.00    -0.286 OA
ATOM      2  C   LIG A   1      -6.416  -0.325 126.267  0.00  0.00    +0.204 A 
ATOM      3  C   LIG A   1      -7.043  -1.065 127.382  0.00  0.00    +0.107 A 
ATOM      4  C   LIG A   1      -7.594  -2.352 127.266  0.00  0.00    +0.146 A 
ATOM      5  C   LIG A   1      -8.059  -3.007 128.412  0.00  0.00    +0.047 A 
ATOM      6  C   LIG A   1      -8.051  -2.374 129.649  0.00  0.00    +0.007 A 
ATOM      7  C   LIG A   1      -7.578  -1.075 129.752  0.00  0.00    +0.047 A 
ATOM      8  C   LIG A   1      -7.074  -0.424 128.623  0.00  0.00    +0.143 A 
ATOM      9  O   LIG A   1      -6.660   0.861 128.847  0.00  0.00    -0.451 OA
ATOM     10  C   LIG A   1      -6.189   1.603 127.801  0.00  0.00    +0.185 A 
ATOM     11  C   LIG A   1      -6.030   1.080 126.523  0.00  0.00    +0.072 A 
ATOM     12  C   LIG A   1      -5.625   1.900 125.466  0.00  0.00    +0.065 A 
ATOM     13  C   LIG A   1      -5.412   3.268 125.679  0.00  0.00    +0.166 A 
ATOM     14  C   LIG A   1      -5.512   3.806 126.978  0.00  0.00    +0.208 A 
ATOM     15  C   LIG A   1      -5.930   2.965 128.023  0.00  0.00    +0.219 A 
ENDROOT
BRANCH  13  16
ATOM     16  O   LIG A   1      -5.131   4.146 124.661  0.00  0.00    -0.491 OA
ATOM     17  C   LIG A   1      -5.877   3.965 123.459  0.00  0.00    +0.277 C 
ENDBRANCH  13  16
BRANCH  14  18
ATOM     18  O   LIG A   1      -5.323   5.162 127.094  0.00  0.00    -0.488 OA
ATOM     19  C   LIG A   1      -4.069   5.595 127.614  0.00  0.00    +0.277 C 
ENDBRANCH  14  18
BRANCH   4  20
ATOM     20  O   LIG A   1      -7.744  -2.924 125.972  0.00  0.00    -0.425 OA
BRANCH  20  21
ATOM     21  C   LIG A   1      -8.941  -2.966 125.250  0.00  0.00    +0.309 C 
ATOM     22  C   LIG A   1      -8.671  -3.266 123.812  0.00  0.00    +0.136 C 
ATOM     23  O   LIG A   1     -10.073  -2.778 125.676  0.00  0.00    -0.251 OA
ENDBRANCH  20  21
ENDBRANCH   4  20
BRANCH  15  24
ATOM     24  O   LIG A   1      -6.422   3.600 129.196  0.00  0.00    -0.418 OA
BRANCH  24  25
ATOM     25  C   LIG A   1      -7.691   4.144 129.377  0.00  0.00    +0.309 C 
ATOM     26  C   LIG A   1      -8.305   3.444 130.551  0.00  0.00    +0.136 C 
ATOM     27  O   LIG A   1      -8.228   5.007 128.687  0.00  0.00    -0.251 OA
ENDBRANCH  24  25
ENDBRANCH  15  24
TORSDOF 6
ENDMDL
MODEL 9
REMARK VINA RESULT:      -6.6      2.931      5.618
REMARK  Name = NuBBE_2258
REMARK  10 active torsions:
REMARK  status: ('A' for Active; 'I' for Inactive)
REMARK    1  A    between atoms: C_4  and  O_5
REMARK    2  A    between atoms: O_5  and  C_6
REMARK    3  A    between atoms: C_6  and  C_7
REMARK    4  A    between atoms: C_17  and  O_18
REMARK    5  A    between atoms: O_18  and  C_19
REMARK    6  A    between atoms: C_20  and  O_21
REMARK    7  A    between atoms: O_21  and  C_22
REMARK    8  A    between atoms: C_23  and  O_24
REMARK    9  A    between atoms: O_24  and  C_25
REMARK   10  A    between atoms: C_25  and  C_26
REMARK                            x       y       z     vdW  Elec       q    Type
REMARK                         _______ _______ _______ _____ _____    ______ ____
ROOT
ATOM      1  O   LIG A   1      -6.597  -0.012 125.274  0.00  0.00    -0.286 OA
ATOM      2  C   LIG A   1      -6.958   0.037 126.443  0.00  0.00    +0.204 A 
ATOM      3  C   LIG A   1      -7.539  -1.123 127.151  0.00  0.00    +0.107 A 
ATOM      4  C   LIG A   1      -7.867  -2.342 126.535  0.00  0.00    +0.146 A 
ATOM      5  C   LIG A   1      -8.304  -3.415 127.321  0.00  0.00    +0.047 A 
ATOM      6  C   LIG A   1      -8.487  -3.267 128.691  0.00  0.00    +0.007 A 
ATOM      7  C   LIG A   1      -8.237  -2.042 129.289  0.00  0.00    +0.047 A 
ATOM      8  C   LIG A   1      -7.763  -0.975 128.523  0.00  0.00    +0.143 A 
ATOM      9  O   LIG A   1      -7.577   0.187 129.222  0.00  0.00    -0.451 OA
ATOM     10  C   LIG A   1      -7.156   1.305 128.559  0.00  0.00    +0.185 A 
ATOM     11  C   LIG A   1      -6.822   1.295 127.209  0.00  0.00    +0.072 A 
ATOM     12  C   LIG A   1      -6.477   2.481 126.555  0.00  0.00    +0.065 A 
ATOM     13  C   LIG A   1      -6.502   3.699 127.247  0.00  0.00    +0.166 A 
ATOM     14  C   LIG A   1      -6.782   3.722 128.628  0.00  0.00    +0.208 A 
ATOM     15  C   LIG A   1      -7.135   2.520 129.263  0.00  0.00    +0.219 A 
ENDROOT
BRANCH  13  16
ATOM     16  O   LIG A   1      -6.292   4.909 126.633  0.00  0.00    -0.491 OA
ATOM     17  C   LIG A   1      -6.662   4.984 125.258  0.00  0.00    +0.277 C 
ENDBRANCH  13  16
BRANCH  14  18
ATOM     18  O   LIG A   1      -6.821   4.961 129.223  0.00  0.00    -0.488 OA
ATOM     19  C   LIG A   1      -5.727   5.303 130.069  0.00  0.00    +0.277 C 
ENDBRANCH  14  18
BRANCH   4  20
ATOM     20  O   LIG A   1      -7.829  -2.430 125.115  0.00  0.00    -0.425 OA
BRANCH  20  21
ATOM     21  C   LIG A   1      -8.918  -2.199 124.270  0.00  0.00    +0.309 C 
ATOM     22  C   LIG A   1      -9.342  -3.468 123.608  0.00  0.00    +0.136 C 
ATOM     23  O   LIG A   1      -9.476  -1.131 124.053  0.00  0.00    -0.251 OA
ENDBRANCH  20  21
ENDBRANCH   4  20
BRANCH  15  24
ATOM     24  O   LIG A   1      -7.807   2.629 130.511  0.00  0.00    -0.418 OA
BRANCH  24  25
ATOM     25  C   LIG A   1      -9.184   2.685 130.712  0.00  0.00    +0.309 C 
ATOM     26  C   LIG A   1      -9.477   1.898 131.954  0.00  0.00    +0.136 C 
ATOM     27  O   LIG A   1     -10.011   3.239 129.994  0.00  0.00    -0.251 OA
ENDBRANCH  24  25
ENDBRANCH  15  24
TORSDOF 6
ENDMDL
