MODEL 1
REMARK VINA RESULT:      -9.2      0.000      0.000
REMARK  Name = NuBBE_876
REMARK  10 active torsions:
REMARK  status: ('A' for Active; 'I' for Inactive)
REMARK    1  A    between atoms: O_1  and  C_2
REMARK    2  A    between atoms: C_6  and  C_7
REMARK    3  A    between atoms: C_6  and  C_8
REMARK    4  A    between atoms: C_12  and  O_13
REMARK    5  A    between atoms: C_14  and  C_15
REMARK    6  A    between atoms: C_15  and  C_16
REMARK    7  A    between atoms: C_16  and  C_17
REMARK    8  A    between atoms: C_17  and  C_18
REMARK    9  A    between atoms: C_23  and  C_24
REMARK   10  A    between atoms: C_23  and  C_25
REMARK                            x       y       z     vdW  Elec       q    Type
REMARK                         _______ _______ _______ _____ _____    ______ ____
ROOT
ATOM      1  C   LIG A   1     -10.066   4.927 131.113  0.00  0.00    +0.138 A 
ATOM      2  C   LIG A   1     -10.884   5.981 130.659  0.00  0.00    +0.037 A 
ATOM      3  C   LIG A   1     -10.585   6.570 129.430  0.00  0.00    +0.131 A 
ATOM      4  O   LIG A   1     -11.302   7.588 128.861  0.00  0.00    -0.486 OA
ATOM      5  C   LIG A   1     -12.619   7.818 129.384  0.00  0.00    +0.105 C 
ATOM      6  C   LIG A   1     -13.592   6.809 128.753  0.00  0.00    +0.055 C 
ATOM      7  C   LIG A   1     -13.010   9.228 128.918  0.00  0.00    +0.055 C 
ATOM      8  C   LIG A   1     -12.613   7.780 130.917  0.00  0.00    +0.052 C 
ATOM      9  C   LIG A   1     -12.082   6.451 131.441  0.00  0.00    +0.046 C 
ATOM     10  C   LIG A   1      -9.488   6.145 128.685  0.00  0.00    +0.092 A 
ATOM     11  C   LIG A   1      -8.699   5.084 129.134  0.00  0.00    +0.134 A 
ATOM     12  C   LIG A   1      -8.975   4.448 130.351  0.00  0.00    +0.101 A 
ENDROOT
BRANCH   1  13
ATOM     13  O   LIG A   1     -10.308   4.390 132.351  0.00  0.00    -0.505 OA
ATOM     14  H   LIG A   1      -9.518   4.506 132.904  0.00  0.00    +0.292 HD
ENDBRANCH   1  13
BRANCH  11  15
ATOM     15  O   LIG A   1      -7.685   4.665 128.319  0.00  0.00    -0.506 OA
ATOM     16  H   LIG A   1      -7.249   5.431 127.911  0.00  0.00    +0.292 HD
ENDBRANCH  11  15
BRANCH  12  17
ATOM     17  C   LIG A   1      -8.225   3.227 130.798  0.00  0.00    +0.171 C 
ATOM     18  O   LIG A   1      -7.377   3.333 131.687  0.00  0.00    -0.292 OA
BRANCH  17  19
ATOM     19  C   LIG A   1      -8.544   1.874 130.174  0.00  0.00    +0.084 C 
BRANCH  19  20
ATOM     20  C   LIG A   1      -7.391   1.364 129.305  0.00  0.00    +0.043 C 
BRANCH  20  21
ATOM     21  C   LIG A   1      -7.891   0.602 128.098  0.00  0.00    -0.046 A 
ATOM     22  C   LIG A   1      -8.685   1.243 127.142  0.00  0.00    +0.007 A 
ATOM     23  C   LIG A   1      -9.145   0.545 126.024  0.00  0.00    +0.046 A 
ATOM     24  C   LIG A   1      -8.819  -0.800 125.851  0.00  0.00    +0.124 A 
ATOM     25  O   LIG A   1      -9.301  -1.386 124.711  0.00  0.00    -0.486 OA
ATOM     26  C   LIG A   1      -8.741  -2.665 124.362  0.00  0.00    +0.105 C 
ATOM     27  C   LIG A   1      -7.404  -2.450 123.635  0.00  0.00    +0.055 C 
ATOM     28  C   LIG A   1      -9.729  -3.305 123.376  0.00  0.00    +0.055 C 
ATOM     29  C   LIG A   1      -8.613  -3.568 125.597  0.00  0.00    +0.052 C 
ATOM     30  C   LIG A   1      -7.728  -2.925 126.658  0.00  0.00    +0.043 C 
ATOM     31  C   LIG A   1      -8.061  -1.470 126.815  0.00  0.00    -0.005 A 
ATOM     32  C   LIG A   1      -7.582  -0.756 127.926  0.00  0.00    +0.010 A 
ENDBRANCH  20  21
ENDBRANCH  19  20
ENDBRANCH  17  19
ENDBRANCH  12  17
TORSDOF 6
ENDMDL
MODEL 2
REMARK VINA RESULT:      -9.2      6.118     10.431
REMARK  Name = NuBBE_876
REMARK  10 active torsions:
REMARK  status: ('A' for Active; 'I' for Inactive)
REMARK    1  A    between atoms: O_1  and  C_2
REMARK    2  A    between atoms: C_6  and  C_7
REMARK    3  A    between atoms: C_6  and  C_8
REMARK    4  A    between atoms: C_12  and  O_13
REMARK    5  A    between atoms: C_14  and  C_15
REMARK    6  A    between atoms: C_15  and  C_16
REMARK    7  A    between atoms: C_16  and  C_17
REMARK    8  A    between atoms: C_17  and  C_18
REMARK    9  A    between atoms: C_23  and  C_24
REMARK   10  A    between atoms: C_23  and  C_25
REMARK                            x       y       z     vdW  Elec       q    Type
REMARK                         _______ _______ _______ _____ _____    ______ ____
ROOT
ATOM      1  C   LIG A   1      -9.654   5.764 132.289  0.00  0.00    +0.138 A 
ATOM      2  C   LIG A   1     -10.564   6.503 131.504  0.00  0.00    +0.037 A 
ATOM      3  C   LIG A   1     -10.058   7.284 130.464  0.00  0.00    +0.131 A 
ATOM      4  O   LIG A   1     -10.824   8.037 129.615  0.00  0.00    -0.486 OA
ATOM      5  C   LIG A   1     -12.226   7.732 129.571  0.00  0.00    +0.105 C 
ATOM      6  C   LIG A   1     -12.446   6.516 128.657  0.00  0.00    +0.055 C 
ATOM      7  C   LIG A   1     -12.897   8.953 128.926  0.00  0.00    +0.055 C 
ATOM      8  C   LIG A   1     -12.788   7.539 130.985  0.00  0.00    +0.052 C 
ATOM      9  C   LIG A   1     -12.050   6.436 131.734  0.00  0.00    +0.046 C 
ATOM     10  C   LIG A   1      -8.688   7.354 130.226  0.00  0.00    +0.092 A 
ATOM     11  C   LIG A   1      -7.800   6.599 130.995  0.00  0.00    +0.134 A 
ATOM     12  C   LIG A   1      -8.263   5.784 132.035  0.00  0.00    +0.101 A 
ENDROOT
BRANCH   1  13
ATOM     13  O   LIG A   1     -10.134   5.051 133.356  0.00  0.00    -0.505 OA
ATOM     14  H   LIG A   1      -9.821   4.133 133.287  0.00  0.00    +0.292 HD
ENDBRANCH   1  13
BRANCH  11  15
ATOM     15  O   LIG A   1      -6.475   6.652 130.661  0.00  0.00    -0.506 OA
ATOM     16  H   LIG A   1      -6.266   5.949 130.023  0.00  0.00    +0.292 HD
ENDBRANCH  11  15
BRANCH  12  17
ATOM     17  C   LIG A   1      -7.349   4.867 132.794  0.00  0.00    +0.171 C 
ATOM     18  O   LIG A   1      -7.246   3.690 132.440  0.00  0.00    -0.292 OA
BRANCH  17  19
ATOM     19  C   LIG A   1      -6.539   5.408 133.966  0.00  0.00    +0.084 C 
BRANCH  19  20
ATOM     20  C   LIG A   1      -6.907   4.711 135.279  0.00  0.00    +0.043 C 
BRANCH  20  21
ATOM     21  C   LIG A   1      -7.111   5.701 136.404  0.00  0.00    -0.046 A 
ATOM     22  C   LIG A   1      -6.354   5.600 137.574  0.00  0.00    +0.007 A 
ATOM     23  C   LIG A   1      -6.535   6.515 138.613  0.00  0.00    +0.046 A 
ATOM     24  C   LIG A   1      -7.476   7.537 138.495  0.00  0.00    +0.124 A 
ATOM     25  O   LIG A   1      -7.560   8.394 139.560  0.00  0.00    -0.486 OA
ATOM     26  C   LIG A   1      -8.295   9.612 139.345  0.00  0.00    +0.105 C 
ATOM     27  C   LIG A   1      -7.384  10.637 138.649  0.00  0.00    +0.055 C 
ATOM     28  C   LIG A   1      -8.644  10.147 140.742  0.00  0.00    +0.055 C 
ATOM     29  C   LIG A   1      -9.596   9.346 138.575  0.00  0.00    +0.052 C 
ATOM     30  C   LIG A   1      -9.310   8.708 137.221  0.00  0.00    +0.043 C 
ATOM     31  C   LIG A   1      -8.271   7.631 137.349  0.00  0.00    -0.005 A 
ATOM     32  C   LIG A   1      -8.068   6.721 136.299  0.00  0.00    +0.010 A 
ENDBRANCH  20  21
ENDBRANCH  19  20
ENDBRANCH  17  19
ENDBRANCH  12  17
TORSDOF 6
ENDMDL
MODEL 3
REMARK VINA RESULT:      -8.9      4.405      9.038
REMARK  Name = NuBBE_876
REMARK  10 active torsions:
REMARK  status: ('A' for Active; 'I' for Inactive)
REMARK    1  A    between atoms: O_1  and  C_2
REMARK    2  A    between atoms: C_6  and  C_7
REMARK    3  A    between atoms: C_6  and  C_8
REMARK    4  A    between atoms: C_12  and  O_13
REMARK    5  A    between atoms: C_14  and  C_15
REMARK    6  A    between atoms: C_15  and  C_16
REMARK    7  A    between atoms: C_16  and  C_17
REMARK    8  A    between atoms: C_17  and  C_18
REMARK    9  A    between atoms: C_23  and  C_24
REMARK   10  A    between atoms: C_23  and  C_25
REMARK                            x       y       z     vdW  Elec       q    Type
REMARK                         _______ _______ _______ _____ _____    ______ ____
ROOT
ATOM      1  C   LIG A   1      -8.396   1.716 125.623  0.00  0.00    +0.138 A 
ATOM      2  C   LIG A   1      -8.668   0.393 125.221  0.00  0.00    +0.037 A 
ATOM      3  C   LIG A   1      -8.975   0.157 123.880  0.00  0.00    +0.131 A 
ATOM      4  O   LIG A   1      -9.243  -1.076 123.351  0.00  0.00    -0.486 OA
ATOM      5  C   LIG A   1      -8.847  -2.213 124.132  0.00  0.00    +0.105 C 
ATOM      6  C   LIG A   1      -7.347  -2.471 123.916  0.00  0.00    +0.055 C 
ATOM      7  C   LIG A   1      -9.632  -3.403 123.562  0.00  0.00    +0.055 C 
ATOM      8  C   LIG A   1      -9.225  -2.023 125.606  0.00  0.00    +0.052 C 
ATOM      9  C   LIG A   1      -8.596  -0.761 126.185  0.00  0.00    +0.046 C 
ATOM     10  C   LIG A   1      -9.037   1.207 122.969  0.00  0.00    +0.092 A 
ATOM     11  C   LIG A   1      -8.743   2.511 123.374  0.00  0.00    +0.134 A 
ATOM     12  C   LIG A   1      -8.408   2.792 124.704  0.00  0.00    +0.101 A 
ENDROOT
BRANCH   1  13
ATOM     13  O   LIG A   1      -8.164   1.968 126.950  0.00  0.00    -0.505 OA
ATOM     14  H   LIG A   1      -7.359   1.497 127.223  0.00  0.00    +0.292 HD
ENDBRANCH   1  13
BRANCH  11  15
ATOM     15  O   LIG A   1      -8.747   3.484 122.414  0.00  0.00    -0.506 OA
ATOM     16  H   LIG A   1      -9.231   3.175 121.630  0.00  0.00    +0.292 HD
ENDBRANCH  11  15
BRANCH  12  17
ATOM     17  C   LIG A   1      -7.963   4.157 125.141  0.00  0.00    +0.171 C 
ATOM     18  O   LIG A   1      -8.743   4.870 125.778  0.00  0.00    -0.292 OA
BRANCH  17  19
ATOM     19  C   LIG A   1      -6.550   4.630 124.822  0.00  0.00    +0.084 C 
BRANCH  19  20
ATOM     20  C   LIG A   1      -5.507   3.556 125.141  0.00  0.00    +0.043 C 
BRANCH  20  21
ATOM     21  C   LIG A   1      -4.704   3.900 126.375  0.00  0.00    -0.046 A 
ATOM     22  C   LIG A   1      -3.311   3.790 126.360  0.00  0.00    +0.007 A 
ATOM     23  C   LIG A   1      -2.565   4.112 127.495  0.00  0.00    +0.046 A 
ATOM     24  C   LIG A   1      -3.203   4.543 128.657  0.00  0.00    +0.124 A 
ATOM     25  O   LIG A   1      -2.380   4.854 129.707  0.00  0.00    -0.486 OA
ATOM     26  C   LIG A   1      -2.980   5.575 130.799  0.00  0.00    +0.105 C 
ATOM     27  C   LIG A   1      -3.029   7.072 130.451  0.00  0.00    +0.055 C 
ATOM     28  C   LIG A   1      -2.036   5.389 131.997  0.00  0.00    +0.055 C 
ATOM     29  C   LIG A   1      -4.356   4.997 131.155  0.00  0.00    +0.052 C 
ATOM     30  C   LIG A   1      -5.301   5.055 129.960  0.00  0.00    +0.043 C 
ATOM     31  C   LIG A   1      -4.598   4.621 128.706  0.00  0.00    -0.005 A 
ATOM     32  C   LIG A   1      -5.341   4.318 127.553  0.00  0.00    +0.010 A 
ENDBRANCH  20  21
ENDBRANCH  19  20
ENDBRANCH  17  19
ENDBRANCH  12  17
TORSDOF 6
ENDMDL
MODEL 4
REMARK VINA RESULT:      -8.9      1.471      8.717
REMARK  Name = NuBBE_876
REMARK  10 active torsions:
REMARK  status: ('A' for Active; 'I' for Inactive)
REMARK    1  A    between atoms: O_1  and  C_2
REMARK    2  A    between atoms: C_6  and  C_7
REMARK    3  A    between atoms: C_6  and  C_8
REMARK    4  A    between atoms: C_12  and  O_13
REMARK    5  A    between atoms: C_14  and  C_15
REMARK    6  A    between atoms: C_15  and  C_16
REMARK    7  A    between atoms: C_16  and  C_17
REMARK    8  A    between atoms: C_17  and  C_18
REMARK    9  A    between atoms: C_23  and  C_24
REMARK   10  A    between atoms: C_23  and  C_25
REMARK                            x       y       z     vdW  Elec       q    Type
REMARK                         _______ _______ _______ _____ _____    ______ ____
ROOT
ATOM      1  C   LIG A   1      -7.568  -0.633 128.296  0.00  0.00    +0.138 A 
ATOM      2  C   LIG A   1      -8.007  -1.358 127.170  0.00  0.00    +0.037 A 
ATOM      3  C   LIG A   1      -8.673  -0.668 126.156  0.00  0.00    +0.131 A 
ATOM      4  O   LIG A   1      -9.138  -1.240 125.003  0.00  0.00    -0.486 OA
ATOM      5  C   LIG A   1      -8.607  -2.530 124.665  0.00  0.00    +0.105 C 
ATOM      6  C   LIG A   1      -7.235  -2.348 123.996  0.00  0.00    +0.055 C 
ATOM      7  C   LIG A   1      -9.578  -3.121 123.632  0.00  0.00    +0.055 C 
ATOM      8  C   LIG A   1      -8.567  -3.445 125.896  0.00  0.00    +0.052 C 
ATOM      9  C   LIG A   1      -7.740  -2.832 127.020  0.00  0.00    +0.046 C 
ATOM     10  C   LIG A   1      -8.922   0.697 126.269  0.00  0.00    +0.092 A 
ATOM     11  C   LIG A   1      -8.462   1.409 127.378  0.00  0.00    +0.134 A 
ATOM     12  C   LIG A   1      -7.769   0.762 128.410  0.00  0.00    +0.101 A 
ENDROOT
BRANCH   1  13
ATOM     13  O   LIG A   1      -6.977  -1.313 129.329  0.00  0.00    -0.505 OA
ATOM     14  H   LIG A   1      -6.053  -1.023 129.408  0.00  0.00    +0.292 HD
ENDBRANCH   1  13
BRANCH  11  15
ATOM     15  O   LIG A   1      -8.671   2.760 127.391  0.00  0.00    -0.506 OA
ATOM     16  H   LIG A   1      -8.473   3.134 126.516  0.00  0.00    +0.292 HD
ENDBRANCH  11  15
BRANCH  12  17
ATOM     17  C   LIG A   1      -7.153   1.519 129.550  0.00  0.00    +0.171 C 
ATOM     18  O   LIG A   1      -6.174   2.238 129.337  0.00  0.00    -0.292 OA
BRANCH  17  19
ATOM     19  C   LIG A   1      -7.763   1.416 130.943  0.00  0.00    +0.084 C 
BRANCH  19  20
ATOM     20  C   LIG A   1      -7.867   2.785 131.620  0.00  0.00    +0.043 C 
BRANCH  20  21
ATOM     21  C   LIG A   1      -9.005   3.606 131.056  0.00  0.00    -0.046 A 
ATOM     22  C   LIG A   1     -10.217   2.993 130.725  0.00  0.00    +0.007 A 
ATOM     23  C   LIG A   1     -11.272   3.747 130.210  0.00  0.00    +0.046 A 
ATOM     24  C   LIG A   1     -11.127   5.120 130.015  0.00  0.00    +0.124 A 
ATOM     25  O   LIG A   1     -12.228   5.771 129.526  0.00  0.00    -0.486 OA
ATOM     26  C   LIG A   1     -12.206   7.208 129.598  0.00  0.00    +0.105 C 
ATOM     27  C   LIG A   1     -12.627   7.651 131.009  0.00  0.00    +0.055 C 
ATOM     28  C   LIG A   1     -13.269   7.697 128.602  0.00  0.00    +0.055 C 
ATOM     29  C   LIG A   1     -10.838   7.763 129.178  0.00  0.00    +0.052 C 
ATOM     30  C   LIG A   1      -9.729   7.218 130.069  0.00  0.00    +0.043 C 
ATOM     31  C   LIG A   1      -9.910   5.746 130.301  0.00  0.00    -0.005 A 
ATOM     32  C   LIG A   1      -8.860   4.985 130.842  0.00  0.00    +0.010 A 
ENDBRANCH  20  21
ENDBRANCH  19  20
ENDBRANCH  17  19
ENDBRANCH  12  17
TORSDOF 6
ENDMDL
MODEL 5
REMARK VINA RESULT:      -8.8      5.399     10.514
REMARK  Name = NuBBE_876
REMARK  10 active torsions:
REMARK  status: ('A' for Active; 'I' for Inactive)
REMARK    1  A    between atoms: O_1  and  C_2
REMARK    2  A    between atoms: C_6  and  C_7
REMARK    3  A    between atoms: C_6  and  C_8
REMARK    4  A    between atoms: C_12  and  O_13
REMARK    5  A    between atoms: C_14  and  C_15
REMARK    6  A    between atoms: C_15  and  C_16
REMARK    7  A    between atoms: C_16  and  C_17
REMARK    8  A    between atoms: C_17  and  C_18
REMARK    9  A    between atoms: C_23  and  C_24
REMARK   10  A    between atoms: C_23  and  C_25
REMARK                            x       y       z     vdW  Elec       q    Type
REMARK                         _______ _______ _______ _____ _____    ______ ____
ROOT
ATOM      1  C   LIG A   1      -8.799   5.914 131.193  0.00  0.00    +0.138 A 
ATOM      2  C   LIG A   1      -9.803   6.322 130.291  0.00  0.00    +0.037 A 
ATOM      3  C   LIG A   1     -10.874   5.458 130.059  0.00  0.00    +0.131 A 
ATOM      4  O   LIG A   1     -11.925   5.732 129.225  0.00  0.00    -0.486 OA
ATOM      5  C   LIG A   1     -12.108   7.105 128.849  0.00  0.00    +0.105 C 
ATOM      6  C   LIG A   1     -12.844   7.840 129.980  0.00  0.00    +0.055 C 
ATOM      7  C   LIG A   1     -13.019   7.079 127.612  0.00  0.00    +0.055 C 
ATOM      8  C   LIG A   1     -10.770   7.752 128.472  0.00  0.00    +0.052 C 
ATOM      9  C   LIG A   1      -9.767   7.667 129.616  0.00  0.00    +0.046 C 
ATOM     10  C   LIG A   1     -10.934   4.215 130.680  0.00  0.00    +0.092 A 
ATOM     11  C   LIG A   1      -9.945   3.832 131.589  0.00  0.00    +0.134 A 
ATOM     12  C   LIG A   1      -8.863   4.675 131.870  0.00  0.00    +0.101 A 
ENDROOT
BRANCH   1  13
ATOM     13  O   LIG A   1      -7.707   6.723 131.374  0.00  0.00    -0.505 OA
ATOM     14  H   LIG A   1      -7.150   6.348 132.076  0.00  0.00    +0.292 HD
ENDBRANCH   1  13
BRANCH  11  15
ATOM     15  O   LIG A   1     -10.104   2.631 132.222  0.00  0.00    -0.506 OA
ATOM     16  H   LIG A   1     -10.803   2.700 132.894  0.00  0.00    +0.292 HD
ENDBRANCH  11  15
BRANCH  12  17
ATOM     17  C   LIG A   1      -7.855   4.347 132.933  0.00  0.00    +0.171 C 
ATOM     18  O   LIG A   1      -6.745   3.924 132.601  0.00  0.00    -0.292 OA
BRANCH  17  19
ATOM     19  C   LIG A   1      -8.204   4.570 134.400  0.00  0.00    +0.084 C 
BRANCH  19  20
ATOM     20  C   LIG A   1      -6.950   4.678 135.271  0.00  0.00    +0.043 C 
BRANCH  20  21
ATOM     21  C   LIG A   1      -7.128   5.674 136.394  0.00  0.00    -0.046 A 
ATOM     22  C   LIG A   1      -6.356   5.571 137.555  0.00  0.00    +0.007 A 
ATOM     23  C   LIG A   1      -6.514   6.492 138.592  0.00  0.00    +0.046 A 
ATOM     24  C   LIG A   1      -7.447   7.522 138.482  0.00  0.00    +0.124 A 
ATOM     25  O   LIG A   1      -7.508   8.384 139.545  0.00  0.00    -0.486 OA
ATOM     26  C   LIG A   1      -8.234   9.609 139.335  0.00  0.00    +0.105 C 
ATOM     27  C   LIG A   1      -7.323  10.622 138.622  0.00  0.00    +0.055 C 
ATOM     28  C   LIG A   1      -8.559  10.153 140.734  0.00  0.00    +0.055 C 
ATOM     29  C   LIG A   1      -9.548   9.352 138.583  0.00  0.00    +0.052 C 
ATOM     30  C   LIG A   1      -9.287   8.706 137.228  0.00  0.00    +0.043 C 
ATOM     31  C   LIG A   1      -8.257   7.620 137.347  0.00  0.00    -0.005 A 
ATOM     32  C   LIG A   1      -8.077   6.704 136.298  0.00  0.00    +0.010 A 
ENDBRANCH  20  21
ENDBRANCH  19  20
ENDBRANCH  17  19
ENDBRANCH  12  17
TORSDOF 6
ENDMDL
MODEL 6
REMARK VINA RESULT:      -8.8      1.779      2.493
REMARK  Name = NuBBE_876
REMARK  10 active torsions:
REMARK  status: ('A' for Active; 'I' for Inactive)
REMARK    1  A    between atoms: O_1  and  C_2
REMARK    2  A    between atoms: C_6  and  C_7
REMARK    3  A    between atoms: C_6  and  C_8
REMARK    4  A    between atoms: C_12  and  O_13
REMARK    5  A    between atoms: C_14  and  C_15
REMARK    6  A    between atoms: C_15  and  C_16
REMARK    7  A    between atoms: C_16  and  C_17
REMARK    8  A    between atoms: C_17  and  C_18
REMARK    9  A    between atoms: C_23  and  C_24
REMARK   10  A    between atoms: C_23  and  C_25
REMARK                            x       y       z     vdW  Elec       q    Type
REMARK                         _______ _______ _______ _____ _____    ______ ____
ROOT
ATOM      1  C   LIG A   1      -9.830   5.808 132.191  0.00  0.00    +0.138 A 
ATOM      2  C   LIG A   1     -10.709   6.578 131.402  0.00  0.00    +0.037 A 
ATOM      3  C   LIG A   1     -10.175   7.320 130.347  0.00  0.00    +0.131 A 
ATOM      4  O   LIG A   1     -10.911   8.096 129.493  0.00  0.00    -0.486 OA
ATOM      5  C   LIG A   1     -12.326   7.857 129.464  0.00  0.00    +0.105 C 
ATOM      6  C   LIG A   1     -12.611   6.641 128.569  0.00  0.00    +0.055 C 
ATOM      7  C   LIG A   1     -12.944   9.100 128.806  0.00  0.00    +0.055 C 
ATOM      8  C   LIG A   1     -12.886   7.712 130.884  0.00  0.00    +0.052 C 
ATOM      9  C   LIG A   1     -12.195   6.586 131.644  0.00  0.00    +0.046 C 
ATOM     10  C   LIG A   1      -8.806   7.320 130.098  0.00  0.00    +0.092 A 
ATOM     11  C   LIG A   1      -7.948   6.535 130.872  0.00  0.00    +0.134 A 
ATOM     12  C   LIG A   1      -8.442   5.757 131.927  0.00  0.00    +0.101 A 
ENDROOT
BRANCH   1  13
ATOM     13  O   LIG A   1     -10.334   5.134 133.272  0.00  0.00    -0.505 OA
ATOM     14  H   LIG A   1      -9.868   4.286 133.359  0.00  0.00    +0.292 HD
ENDBRANCH   1  13
BRANCH  11  15
ATOM     15  O   LIG A   1      -6.625   6.520 130.527  0.00  0.00    -0.506 OA
ATOM     16  H   LIG A   1      -6.519   6.142 129.638  0.00  0.00    +0.292 HD
ENDBRANCH  11  15
BRANCH  12  17
ATOM     17  C   LIG A   1      -7.567   4.808 132.693  0.00  0.00    +0.171 C 
ATOM     18  O   LIG A   1      -7.224   5.098 133.841  0.00  0.00    -0.292 OA
BRANCH  17  19
ATOM     19  C   LIG A   1      -7.142   3.491 132.055  0.00  0.00    +0.084 C 
BRANCH  19  20
ATOM     20  C   LIG A   1      -8.309   2.504 131.960  0.00  0.00    +0.043 C 
BRANCH  20  21
ATOM     21  C   LIG A   1      -8.185   1.601 130.754  0.00  0.00    -0.046 A 
ATOM     22  C   LIG A   1      -8.243   2.137 129.465  0.00  0.00    +0.007 A 
ATOM     23  C   LIG A   1      -8.124   1.308 128.349  0.00  0.00    +0.046 A 
ATOM     24  C   LIG A   1      -7.950  -0.066 128.509  0.00  0.00    +0.124 A 
ATOM     25  O   LIG A   1      -7.823  -0.788 127.352  0.00  0.00    -0.486 OA
ATOM     26  C   LIG A   1      -7.350  -2.140 127.489  0.00  0.00    +0.105 C 
ATOM     27  C   LIG A   1      -5.816  -2.131 127.601  0.00  0.00    +0.055 C 
ATOM     28  C   LIG A   1      -7.734  -2.857 126.187  0.00  0.00    +0.055 C 
ATOM     29  C   LIG A   1      -8.033  -2.848 128.667  0.00  0.00    +0.052 C 
ATOM     30  C   LIG A   1      -7.774  -2.110 129.975  0.00  0.00    +0.043 C 
ATOM     31  C   LIG A   1      -7.930  -0.629 129.788  0.00  0.00    -0.005 A 
ATOM     32  C   LIG A   1      -8.027   0.215 130.907  0.00  0.00    +0.010 A 
ENDBRANCH  20  21
ENDBRANCH  19  20
ENDBRANCH  17  19
ENDBRANCH  12  17
TORSDOF 6
ENDMDL
MODEL 7
REMARK VINA RESULT:      -8.6      4.695      8.736
REMARK  Name = NuBBE_876
REMARK  10 active torsions:
REMARK  status: ('A' for Active; 'I' for Inactive)
REMARK    1  A    between atoms: O_1  and  C_2
REMARK    2  A    between atoms: C_6  and  C_7
REMARK    3  A    between atoms: C_6  and  C_8
REMARK    4  A    between atoms: C_12  and  O_13
REMARK    5  A    between atoms: C_14  and  C_15
REMARK    6  A    between atoms: C_15  and  C_16
REMARK    7  A    between atoms: C_16  and  C_17
REMARK    8  A    between atoms: C_17  and  C_18
REMARK    9  A    between atoms: C_23  and  C_24
REMARK   10  A    between atoms: C_23  and  C_25
REMARK                            x       y       z     vdW  Elec       q    Type
REMARK                         _______ _______ _______ _____ _____    ______ ____
ROOT
ATOM      1  C   LIG A   1      -8.805  -2.410 125.834  0.00  0.00    +0.138 A 
ATOM      2  C   LIG A   1      -8.003  -2.670 126.964  0.00  0.00    +0.037 A 
ATOM      3  C   LIG A   1      -6.656  -2.308 126.918  0.00  0.00    +0.131 A 
ATOM      4  O   LIG A   1      -5.769  -2.486 127.945  0.00  0.00    -0.486 OA
ATOM      5  C   LIG A   1      -6.328  -2.730 129.244  0.00  0.00    +0.105 C 
ATOM      6  C   LIG A   1      -6.749  -1.390 129.869  0.00  0.00    +0.055 C 
ATOM      7  C   LIG A   1      -5.186  -3.320 130.084  0.00  0.00    +0.055 C 
ATOM      8  C   LIG A   1      -7.471  -3.749 129.165  0.00  0.00    +0.052 C 
ATOM      9  C   LIG A   1      -8.569  -3.284 128.217  0.00  0.00    +0.046 C 
ATOM     10  C   LIG A   1      -6.113  -1.730 125.774  0.00  0.00    +0.092 A 
ATOM     11  C   LIG A   1      -6.922  -1.455 124.670  0.00  0.00    +0.134 A 
ATOM     12  C   LIG A   1      -8.284  -1.781 124.679  0.00  0.00    +0.101 A 
ENDROOT
BRANCH   1  13
ATOM     13  O   LIG A   1     -10.110  -2.826 125.842  0.00  0.00    -0.505 OA
ATOM     14  H   LIG A   1     -10.271  -3.373 125.055  0.00  0.00    +0.292 HD
ENDBRANCH   1  13
BRANCH  11  15
ATOM     15  O   LIG A   1      -6.344  -0.816 123.609  0.00  0.00    -0.506 OA
ATOM     16  H   LIG A   1      -6.368   0.145 123.747  0.00  0.00    +0.292 HD
ENDBRANCH  11  15
BRANCH  12  17
ATOM     17  C   LIG A   1      -9.204  -1.384 123.561  0.00  0.00    +0.171 C 
ATOM     18  O   LIG A   1      -9.791  -2.262 122.924  0.00  0.00    -0.292 OA
BRANCH  17  19
ATOM     19  C   LIG A   1      -9.423   0.091 123.251  0.00  0.00    +0.084 C 
BRANCH  19  20
ATOM     20  C   LIG A   1      -9.972   0.850 124.462  0.00  0.00    +0.043 C 
BRANCH  20  21
ATOM     21  C   LIG A   1      -8.864   1.463 125.290  0.00  0.00    -0.046 A 
ATOM     22  C   LIG A   1      -8.801   1.224 126.666  0.00  0.00    +0.007 A 
ATOM     23  C   LIG A   1      -7.778   1.783 127.433  0.00  0.00    +0.046 A 
ATOM     24  C   LIG A   1      -6.811   2.590 126.836  0.00  0.00    +0.124 A 
ATOM     25  O   LIG A   1      -5.839   3.071 127.672  0.00  0.00    -0.486 OA
ATOM     26  C   LIG A   1      -4.681   3.648 127.042  0.00  0.00    +0.105 C 
ATOM     27  C   LIG A   1      -3.713   2.524 126.637  0.00  0.00    +0.055 C 
ATOM     28  C   LIG A   1      -3.998   4.507 128.118  0.00  0.00    +0.055 C 
ATOM     29  C   LIG A   1      -5.081   4.549 125.866  0.00  0.00    +0.052 C 
ATOM     30  C   LIG A   1      -5.862   3.766 124.817  0.00  0.00    +0.043 C 
ATOM     31  C   LIG A   1      -6.879   2.875 125.469  0.00  0.00    -0.005 A 
ATOM     32  C   LIG A   1      -7.897   2.290 124.699  0.00  0.00    +0.010 A 
ENDBRANCH  20  21
ENDBRANCH  19  20
ENDBRANCH  17  19
ENDBRANCH  12  17
TORSDOF 6
ENDMDL
MODEL 8
REMARK VINA RESULT:      -8.6      1.410      2.183
REMARK  Name = NuBBE_876
REMARK  10 active torsions:
REMARK  status: ('A' for Active; 'I' for Inactive)
REMARK    1  A    between atoms: O_1  and  C_2
REMARK    2  A    between atoms: C_6  and  C_7
REMARK    3  A    between atoms: C_6  and  C_8
REMARK    4  A    between atoms: C_12  and  O_13
REMARK    5  A    between atoms: C_14  and  C_15
REMARK    6  A    between atoms: C_15  and  C_16
REMARK    7  A    between atoms: C_16  and  C_17
REMARK    8  A    between atoms: C_17  and  C_18
REMARK    9  A    between atoms: C_23  and  C_24
REMARK   10  A    between atoms: C_23  and  C_25
REMARK                            x       y       z     vdW  Elec       q    Type
REMARK                         _______ _______ _______ _____ _____    ______ ____
ROOT
ATOM      1  C   LIG A   1      -8.878   5.606 130.401  0.00  0.00    +0.138 A 
ATOM      2  C   LIG A   1      -9.999   6.227 129.815  0.00  0.00    +0.037 A 
ATOM      3  C   LIG A   1     -11.212   5.537 129.811  0.00  0.00    +0.131 A 
ATOM      4  O   LIG A   1     -12.381   6.025 129.292  0.00  0.00    -0.486 OA
ATOM      5  C   LIG A   1     -12.443   7.440 129.062  0.00  0.00    +0.105 C 
ATOM      6  C   LIG A   1     -12.761   8.150 130.388  0.00  0.00    +0.055 C 
ATOM      7  C   LIG A   1     -13.622   7.654 128.101  0.00  0.00    +0.055 C 
ATOM      8  C   LIG A   1     -11.156   7.943 128.397  0.00  0.00    +0.052 C 
ATOM      9  C   LIG A   1      -9.928   7.616 129.238  0.00  0.00    +0.046 C 
ATOM     10  C   LIG A   1     -11.304   4.256 130.347  0.00  0.00    +0.092 A 
ATOM     11  C   LIG A   1     -10.192   3.661 130.946  0.00  0.00    +0.134 A 
ATOM     12  C   LIG A   1      -8.960   4.325 130.994  0.00  0.00    +0.101 A 
ENDROOT
BRANCH   1  13
ATOM     13  O   LIG A   1      -7.667   6.245 130.347  0.00  0.00    -0.505 OA
ATOM     14  H   LIG A   1      -7.733   7.087 130.829  0.00  0.00    +0.292 HD
ENDBRANCH   1  13
BRANCH  11  15
ATOM     15  O   LIG A   1     -10.369   2.434 131.523  0.00  0.00    -0.506 OA
ATOM     16  H   LIG A   1     -10.358   2.518 132.491  0.00  0.00    +0.292 HD
ENDBRANCH  11  15
BRANCH  12  17
ATOM     17  C   LIG A   1      -7.784   3.766 131.741  0.00  0.00    +0.171 C 
ATOM     18  O   LIG A   1      -7.625   4.066 132.926  0.00  0.00    -0.292 OA
BRANCH  17  19
ATOM     19  C   LIG A   1      -6.825   2.814 131.036  0.00  0.00    +0.084 C 
BRANCH  19  20
ATOM     20  C   LIG A   1      -7.235   1.351 131.228  0.00  0.00    +0.043 C 
BRANCH  20  21
ATOM     21  C   LIG A   1      -7.576   0.686 129.914  0.00  0.00    -0.046 A 
ATOM     22  C   LIG A   1      -7.937   1.459 128.807  0.00  0.00    +0.007 A 
ATOM     23  C   LIG A   1      -8.248   0.850 127.591  0.00  0.00    +0.046 A 
ATOM     24  C   LIG A   1      -8.206  -0.538 127.468  0.00  0.00    +0.124 A 
ATOM     25  O   LIG A   1      -8.506  -1.035 126.228  0.00  0.00    -0.486 OA
ATOM     26  C   LIG A   1      -8.184  -2.418 125.996  0.00  0.00    +0.105 C 
ATOM     27  C   LIG A   1      -6.695  -2.537 125.634  0.00  0.00    +0.055 C 
ATOM     28  C   LIG A   1      -9.012  -2.847 124.776  0.00  0.00    +0.055 C 
ATOM     29  C   LIG A   1      -8.581  -3.287 127.197  0.00  0.00    +0.052 C 
ATOM     30  C   LIG A   1      -7.867  -2.830 128.464  0.00  0.00    +0.043 C 
ATOM     31  C   LIG A   1      -7.887  -1.333 128.573  0.00  0.00    -0.005 A 
ATOM     32  C   LIG A   1      -7.553  -0.712 129.788  0.00  0.00    +0.010 A 
ENDBRANCH  20  21
ENDBRANCH  19  20
ENDBRANCH  17  19
ENDBRANCH  12  17
TORSDOF 6
ENDMDL
MODEL 9
REMARK VINA RESULT:      -8.6      4.182      8.809
REMARK  Name = NuBBE_876
REMARK  10 active torsions:
REMARK  status: ('A' for Active; 'I' for Inactive)
REMARK    1  A    between atoms: O_1  and  C_2
REMARK    2  A    between atoms: C_6  and  C_7
REMARK    3  A    between atoms: C_6  and  C_8
REMARK    4  A    between atoms: C_12  and  O_13
REMARK    5  A    between atoms: C_14  and  C_15
REMARK    6  A    between atoms: C_15  and  C_16
REMARK    7  A    between atoms: C_16  and  C_17
REMARK    8  A    between atoms: C_17  and  C_18
REMARK    9  A    between atoms: C_23  and  C_24
REMARK   10  A    between atoms: C_23  and  C_25
REMARK                            x       y       z     vdW  Elec       q    Type
REMARK                         _______ _______ _______ _____ _____    ______ ____
ROOT
ATOM      1  C   LIG A   1      -7.746   4.264 128.703  0.00  0.00    +0.138 A 
ATOM      2  C   LIG A   1      -6.481   3.996 128.142  0.00  0.00    +0.037 A 
ATOM      3  C   LIG A   1      -5.582   3.222 128.876  0.00  0.00    +0.131 A 
ATOM      4  O   LIG A   1      -4.330   2.871 128.447  0.00  0.00    -0.486 OA
ATOM      5  C   LIG A   1      -4.068   3.008 127.043  0.00  0.00    +0.105 C 
ATOM      6  C   LIG A   1      -4.639   1.787 126.304  0.00  0.00    +0.055 C 
ATOM      7  C   LIG A   1      -2.539   2.990 126.902  0.00  0.00    +0.055 C 
ATOM      8  C   LIG A   1      -4.604   4.344 126.515  0.00  0.00    +0.052 C 
ATOM      9  C   LIG A   1      -6.100   4.486 126.770  0.00  0.00    +0.046 C 
ATOM     10  C   LIG A   1      -5.916   2.750 130.142  0.00  0.00    +0.092 A 
ATOM     11  C   LIG A   1      -7.181   3.002 130.677  0.00  0.00    +0.134 A 
ATOM     12  C   LIG A   1      -8.124   3.756 129.968  0.00  0.00    +0.101 A 
ENDROOT
BRANCH   1  13
ATOM     13  O   LIG A   1      -8.609   5.083 128.023  0.00  0.00    -0.505 OA
ATOM     14  H   LIG A   1      -8.669   4.780 127.101  0.00  0.00    +0.292 HD
ENDBRANCH   1  13
BRANCH  11  15
ATOM     15  O   LIG A   1      -7.473   2.446 131.891  0.00  0.00    -0.506 OA
ATOM     16  H   LIG A   1      -8.258   1.878 131.815  0.00  0.00    +0.292 HD
ENDBRANCH  11  15
BRANCH  12  17
ATOM     17  C   LIG A   1      -9.530   3.937 130.460  0.00  0.00    +0.171 C 
ATOM     18  O   LIG A   1     -10.458   3.412 129.839  0.00  0.00    -0.292 OA
BRANCH  17  19
ATOM     19  C   LIG A   1      -9.789   4.735 131.732  0.00  0.00    +0.084 C 
BRANCH  19  20
ATOM     20  C   LIG A   1      -9.257   6.166 131.622  0.00  0.00    +0.043 C 
BRANCH  20  21
ATOM     21  C   LIG A   1      -7.773   6.238 131.899  0.00  0.00    -0.046 A 
ATOM     22  C   LIG A   1      -7.251   5.696 133.077  0.00  0.00    +0.007 A 
ATOM     23  C   LIG A   1      -5.881   5.755 133.336  0.00  0.00    +0.046 A 
ATOM     24  C   LIG A   1      -5.018   6.359 132.423  0.00  0.00    +0.124 A 
ATOM     25  O   LIG A   1      -3.691   6.345 132.760  0.00  0.00    -0.486 OA
ATOM     26  C   LIG A   1      -2.761   6.688 131.716  0.00  0.00    +0.105 C 
ATOM     27  C   LIG A   1      -2.506   5.450 130.840  0.00  0.00    +0.055 C 
ATOM     28  C   LIG A   1      -1.449   7.057 132.423  0.00  0.00    +0.055 C 
ATOM     29  C   LIG A   1      -3.252   7.900 130.913  0.00  0.00    +0.052 C 
ATOM     30  C   LIG A   1      -4.611   7.625 130.280  0.00  0.00    +0.043 C 
ATOM     31  C   LIG A   1      -5.524   6.944 131.258  0.00  0.00    -0.005 A 
ATOM     32  C   LIG A   1      -6.901   6.860 130.993  0.00  0.00    +0.010 A 
ENDBRANCH  20  21
ENDBRANCH  19  20
ENDBRANCH  17  19
ENDBRANCH  12  17
TORSDOF 6
ENDMDL
