MODEL 1
REMARK VINA RESULT:      -5.0      0.000      0.000
REMARK  Name = NuBBE_2127
REMARK  2 active torsions:
REMARK  status: ('A' for Active; 'I' for Inactive)
REMARK    1  A    between atoms: C_1  and  C_2
REMARK    2  A    between atoms: C_2  and  C_3
REMARK                            x       y       z     vdW  Elec       q    Type
REMARK                         _______ _______ _______ _____ _____    ______ ____
ROOT
ATOM      1  C   LIG A   1     -11.863   8.539 129.083  0.00  0.00    -0.011 C 
ATOM      2  C   LIG A   1     -10.702   8.526 128.072  0.00  0.00    +0.003 C 
ATOM      3  C   LIG A   1     -10.737   7.317 127.138  0.00  0.00    +0.000 C 
ATOM      4  C   LIG A   1     -12.082   7.188 126.430  0.00  0.00    +0.000 C 
ATOM      5  C   LIG A   1     -13.249   7.190 127.414  0.00  0.00    +0.000 C 
ATOM      6  C   LIG A   1     -13.202   8.406 128.337  0.00  0.00    +0.003 C 
ENDROOT
BRANCH   1   8
ATOM      7  C   LIG A   1     -12.799   7.390 131.176  0.00  0.00    +0.004 C 
ATOM      8  C   LIG A   1     -11.654   7.471 130.176  0.00  0.00    -0.000 C 
ENDBRANCH   1   8
TORSDOF 1
ENDMDL
MODEL 2
REMARK VINA RESULT:      -5.0      1.297      2.535
REMARK  Name = NuBBE_2127
REMARK  2 active torsions:
REMARK  status: ('A' for Active; 'I' for Inactive)
REMARK    1  A    between atoms: C_1  and  C_2
REMARK    2  A    between atoms: C_2  and  C_3
REMARK                            x       y       z     vdW  Elec       q    Type
REMARK                         _______ _______ _______ _____ _____    ______ ____
ROOT
ATOM      1  C   LIG A   1     -12.842   8.394 129.228  0.00  0.00    -0.011 C 
ATOM      2  C   LIG A   1     -13.423   7.243 128.385  0.00  0.00    +0.003 C 
ATOM      3  C   LIG A   1     -12.884   7.219 126.955  0.00  0.00    +0.000 C 
ATOM      4  C   LIG A   1     -11.358   7.206 126.926  0.00  0.00    +0.000 C 
ATOM      5  C   LIG A   1     -10.760   8.344 127.748  0.00  0.00    +0.000 C 
ATOM      6  C   LIG A   1     -11.305   8.352 129.175  0.00  0.00    +0.003 C 
ENDROOT
BRANCH   1   8
ATOM      7  C   LIG A   1     -13.446  10.793 129.902  0.00  0.00    +0.004 C 
ATOM      8  C   LIG A   1     -13.440   9.749 128.795  0.00  0.00    -0.000 C 
ENDBRANCH   1   8
TORSDOF 1
ENDMDL
MODEL 3
REMARK VINA RESULT:      -4.7     11.728     12.900
REMARK  Name = NuBBE_2127
REMARK  2 active torsions:
REMARK  status: ('A' for Active; 'I' for Inactive)
REMARK    1  A    between atoms: C_1  and  C_2
REMARK    2  A    between atoms: C_2  and  C_3
REMARK                            x       y       z     vdW  Elec       q    Type
REMARK                         _______ _______ _______ _____ _____    ______ ____
ROOT
ATOM      1  C   LIG A   1      -6.137  -2.147 124.035  0.00  0.00    -0.011 C 
ATOM      2  C   LIG A   1      -7.095  -1.286 123.191  0.00  0.00    +0.003 C 
ATOM      3  C   LIG A   1      -8.224  -2.096 122.556  0.00  0.00    +0.000 C 
ATOM      4  C   LIG A   1      -8.990  -2.910 123.595  0.00  0.00    +0.000 C 
ATOM      5  C   LIG A   1      -8.062  -3.779 124.439  0.00  0.00    +0.000 C 
ATOM      6  C   LIG A   1      -6.941  -2.955 125.070  0.00  0.00    +0.003 C 
ENDROOT
BRANCH   1   8
ATOM      7  C   LIG A   1      -4.517  -4.129 123.881  0.00  0.00    +0.004 C 
ATOM      8  C   LIG A   1      -5.240  -3.018 123.132  0.00  0.00    -0.000 C 
ENDBRANCH   1   8
TORSDOF 1
ENDMDL
MODEL 4
REMARK VINA RESULT:      -4.7     11.426     12.210
REMARK  Name = NuBBE_2127
REMARK  2 active torsions:
REMARK  status: ('A' for Active; 'I' for Inactive)
REMARK    1  A    between atoms: C_1  and  C_2
REMARK    2  A    between atoms: C_2  and  C_3
REMARK                            x       y       z     vdW  Elec       q    Type
REMARK                         _______ _______ _______ _____ _____    ______ ____
ROOT
ATOM      1  C   LIG A   1      -8.763  -3.712 124.615  0.00  0.00    -0.011 C 
ATOM      2  C   LIG A   1      -9.434  -3.151 123.347  0.00  0.00    +0.003 C 
ATOM      3  C   LIG A   1      -8.867  -1.798 122.919  0.00  0.00    +0.000 C 
ATOM      4  C   LIG A   1      -7.350  -1.845 122.762  0.00  0.00    +0.000 C 
ATOM      5  C   LIG A   1      -6.662  -2.390 124.010  0.00  0.00    +0.000 C 
ATOM      6  C   LIG A   1      -7.236  -3.744 124.422  0.00  0.00    +0.003 C 
ENDROOT
BRANCH   1   8
ATOM      7  C   LIG A   1      -8.863  -3.627 127.176  0.00  0.00    +0.004 C 
ATOM      8  C   LIG A   1      -9.213  -2.932 125.867  0.00  0.00    -0.000 C 
ENDBRANCH   1   8
TORSDOF 1
ENDMDL
MODEL 5
REMARK VINA RESULT:      -4.6      1.161      2.047
REMARK  Name = NuBBE_2127
REMARK  2 active torsions:
REMARK  status: ('A' for Active; 'I' for Inactive)
REMARK    1  A    between atoms: C_1  and  C_2
REMARK    2  A    between atoms: C_2  and  C_3
REMARK                            x       y       z     vdW  Elec       q    Type
REMARK                         _______ _______ _______ _____ _____    ______ ____
ROOT
ATOM      1  C   LIG A   1     -10.729   8.136 128.139  0.00  0.00    -0.011 C 
ATOM      2  C   LIG A   1     -11.226   7.805 126.720  0.00  0.00    +0.003 C 
ATOM      3  C   LIG A   1     -12.507   6.971 126.714  0.00  0.00    +0.000 C 
ATOM      4  C   LIG A   1     -13.609   7.623 127.543  0.00  0.00    +0.000 C 
ATOM      5  C   LIG A   1     -13.143   7.953 128.958  0.00  0.00    +0.000 C 
ATOM      6  C   LIG A   1     -11.865   8.789 128.946  0.00  0.00    +0.003 C 
ENDROOT
BRANCH   1   8
ATOM      7  C   LIG A   1      -9.551   7.163 130.198  0.00  0.00    +0.004 C 
ATOM      8  C   LIG A   1     -10.126   6.888 128.816  0.00  0.00    -0.000 C 
ENDBRANCH   1   8
TORSDOF 1
ENDMDL
MODEL 6
REMARK VINA RESULT:      -4.6      1.469      2.713
REMARK  Name = NuBBE_2127
REMARK  2 active torsions:
REMARK  status: ('A' for Active; 'I' for Inactive)
REMARK    1  A    between atoms: C_1  and  C_2
REMARK    2  A    between atoms: C_2  and  C_3
REMARK                            x       y       z     vdW  Elec       q    Type
REMARK                         _______ _______ _______ _____ _____    ______ ____
ROOT
ATOM      1  C   LIG A   1     -13.016   8.411 129.194  0.00  0.00    -0.011 C 
ATOM      2  C   LIG A   1     -12.093   8.468 127.963  0.00  0.00    +0.003 C 
ATOM      3  C   LIG A   1     -10.610   8.429 128.326  0.00  0.00    +0.000 C 
ATOM      4  C   LIG A   1     -10.274   7.230 129.209  0.00  0.00    +0.000 C 
ATOM      5  C   LIG A   1     -11.172   7.158 130.441  0.00  0.00    +0.000 C 
ATOM      6  C   LIG A   1     -12.650   7.193 130.061  0.00  0.00    +0.003 C 
ENDROOT
BRANCH   1   8
ATOM      7  C   LIG A   1     -13.745  10.869 129.259  0.00  0.00    +0.004 C 
ATOM      8  C   LIG A   1     -12.992   9.748 129.962  0.00  0.00    -0.000 C 
ENDBRANCH   1   8
TORSDOF 1
ENDMDL
MODEL 7
REMARK VINA RESULT:      -4.5      0.941      3.551
REMARK  Name = NuBBE_2127
REMARK  2 active torsions:
REMARK  status: ('A' for Active; 'I' for Inactive)
REMARK    1  A    between atoms: C_1  and  C_2
REMARK    2  A    between atoms: C_2  and  C_3
REMARK                            x       y       z     vdW  Elec       q    Type
REMARK                         _______ _______ _______ _____ _____    ______ ____
ROOT
ATOM      1  C   LIG A   1     -11.890   8.459 128.662  0.00  0.00    -0.011 C 
ATOM      2  C   LIG A   1     -12.725   8.668 129.938  0.00  0.00    +0.003 C 
ATOM      3  C   LIG A   1     -12.823   7.411 130.801  0.00  0.00    +0.000 C 
ATOM      4  C   LIG A   1     -11.445   6.844 131.133  0.00  0.00    +0.000 C 
ATOM      5  C   LIG A   1     -10.602   6.620 129.881  0.00  0.00    +0.000 C 
ATOM      6  C   LIG A   1     -10.511   7.887 129.032  0.00  0.00    +0.003 C 
ENDROOT
BRANCH   1   8
ATOM      7  C   LIG A   1     -11.843   7.254 126.398  0.00  0.00    +0.004 C 
ATOM      8  C   LIG A   1     -12.660   7.604 127.635  0.00  0.00    -0.000 C 
ENDBRANCH   1   8
TORSDOF 1
ENDMDL
MODEL 8
REMARK VINA RESULT:      -4.4      1.345      2.620
REMARK  Name = NuBBE_2127
REMARK  2 active torsions:
REMARK  status: ('A' for Active; 'I' for Inactive)
REMARK    1  A    between atoms: C_1  and  C_2
REMARK    2  A    between atoms: C_2  and  C_3
REMARK                            x       y       z     vdW  Elec       q    Type
REMARK                         _______ _______ _______ _____ _____    ______ ____
ROOT
ATOM      1  C   LIG A   1     -11.988   6.203 129.724  0.00  0.00    -0.011 C 
ATOM      2  C   LIG A   1     -13.066   6.742 128.765  0.00  0.00    +0.003 C 
ATOM      3  C   LIG A   1     -12.876   8.218 128.421  0.00  0.00    +0.000 C 
ATOM      4  C   LIG A   1     -11.475   8.499 127.885  0.00  0.00    +0.000 C 
ATOM      5  C   LIG A   1     -10.389   7.981 128.824  0.00  0.00    +0.000 C 
ATOM      6  C   LIG A   1     -10.590   6.504 129.154  0.00  0.00    +0.003 C 
ENDROOT
BRANCH   1   8
ATOM      7  C   LIG A   1     -11.088   6.370 132.119  0.00  0.00    +0.004 C 
ATOM      8  C   LIG A   1     -12.204   6.742 131.153  0.00  0.00    -0.000 C 
ENDBRANCH   1   8
TORSDOF 1
ENDMDL
MODEL 9
REMARK VINA RESULT:      -4.3     11.774     12.771
REMARK  Name = NuBBE_2127
REMARK  2 active torsions:
REMARK  status: ('A' for Active; 'I' for Inactive)
REMARK    1  A    between atoms: C_1  and  C_2
REMARK    2  A    between atoms: C_2  and  C_3
REMARK                            x       y       z     vdW  Elec       q    Type
REMARK                         _______ _______ _______ _____ _____    ______ ____
ROOT
ATOM      1  C   LIG A   1      -7.434  -2.343 124.608  0.00  0.00    -0.011 C 
ATOM      2  C   LIG A   1      -6.119  -2.783 125.279  0.00  0.00    +0.003 C 
ATOM      3  C   LIG A   1      -5.169  -3.498 124.321  0.00  0.00    +0.000 C 
ATOM      4  C   LIG A   1      -4.895  -2.668 123.070  0.00  0.00    +0.000 C 
ATOM      5  C   LIG A   1      -6.184  -2.229 122.382  0.00  0.00    +0.000 C 
ATOM      6  C   LIG A   1      -7.121  -1.511 123.351  0.00  0.00    +0.003 C 
ENDROOT
BRANCH   1   8
ATOM      7  C   LIG A   1      -9.539  -3.236 123.447  0.00  0.00    +0.004 C 
ATOM      8  C   LIG A   1      -8.345  -3.558 124.335  0.00  0.00    -0.000 C 
ENDBRANCH   1   8
TORSDOF 1
ENDMDL
