MODEL 1
REMARK VINA RESULT:      -5.2      0.000      0.000
REMARK  Name = NuBBE_1736
REMARK  5 active torsions:
REMARK  status: ('A' for Active; 'I' for Inactive)
REMARK    1  A    between atoms: O_1  and  C_2
REMARK    2  A    between atoms: O_1  and  C_5
REMARK    3  A    between atoms: C_2  and  C_3
REMARK    4  A    between atoms: C_3  and  C_4
REMARK    5  A    between atoms: C_6  and  O_7
REMARK                            x       y       z     vdW  Elec       q    Type
REMARK                         _______ _______ _______ _____ _____    ______ ____
ROOT
ATOM      1  C   LIG A   1     -10.798   7.083 130.274  0.00  0.00    +0.162 A 
ATOM      2  C   LIG A   1     -11.131   6.454 131.479  0.00  0.00    +0.158 A 
ATOM      3  C   LIG A   1     -10.159   6.022 132.376  0.00  0.00    +0.049 A 
ATOM      4  C   LIG A   1      -8.813   6.221 132.067  0.00  0.00    +0.004 A 
ATOM      5  C   LIG A   1      -8.460   6.856 130.879  0.00  0.00    +0.004 A 
ATOM      6  C   LIG A   1      -9.446   7.295 129.987  0.00  0.00    +0.049 A 
ENDROOT
BRANCH   2   7
ATOM      7  O   LIG A   1     -12.444   6.246 131.808  0.00  0.00    -0.503 OA
ATOM      8  H   LIG A   1     -12.790   7.134 132.025  0.00  0.00    +0.292 HD
ENDBRANCH   2   7
BRANCH   1   9
ATOM      9  O   LIG A   1     -11.860   7.420 129.476  0.00  0.00    -0.488 OA
BRANCH   9  10
ATOM     10  C   LIG A   1     -11.803   8.665 128.780  0.00  0.00    +0.229 C 
BRANCH  10  11
ATOM     11  C   LIG A   1     -13.186   9.314 128.778  0.00  0.00    +0.037 C 
ATOM     12  C   LIG A   1     -13.271  10.444 129.797  0.00  0.00    +0.007 C 
ENDBRANCH  10  11
ENDBRANCH   9  10
ENDBRANCH   1   9
TORSDOF 4
ENDMDL
MODEL 2
REMARK VINA RESULT:      -5.1      1.435      2.319
REMARK  Name = NuBBE_1736
REMARK  5 active torsions:
REMARK  status: ('A' for Active; 'I' for Inactive)
REMARK    1  A    between atoms: O_1  and  C_2
REMARK    2  A    between atoms: O_1  and  C_5
REMARK    3  A    between atoms: C_2  and  C_3
REMARK    4  A    between atoms: C_3  and  C_4
REMARK    5  A    between atoms: C_6  and  O_7
REMARK                            x       y       z     vdW  Elec       q    Type
REMARK                         _______ _______ _______ _____ _____    ______ ____
ROOT
ATOM      1  C   LIG A   1     -11.385   6.155 129.794  0.00  0.00    +0.162 A 
ATOM      2  C   LIG A   1     -10.041   6.264 129.419  0.00  0.00    +0.158 A 
ATOM      3  C   LIG A   1      -9.023   6.379 130.360  0.00  0.00    +0.049 A 
ATOM      4  C   LIG A   1      -9.349   6.385 131.716  0.00  0.00    +0.004 A 
ATOM      5  C   LIG A   1     -10.678   6.265 132.111  0.00  0.00    +0.004 A 
ATOM      6  C   LIG A   1     -11.696   6.141 131.157  0.00  0.00    +0.049 A 
ENDROOT
BRANCH   2   7
ATOM      7  O   LIG A   1      -9.692   6.260 128.095  0.00  0.00    -0.503 OA
ATOM      8  H   LIG A   1      -9.997   7.123 127.755  0.00  0.00    +0.292 HD
ENDBRANCH   2   7
BRANCH   1   9
ATOM      9  O   LIG A   1     -12.278   6.085 128.756  0.00  0.00    -0.488 OA
BRANCH   9  10
ATOM     10  C   LIG A   1     -13.366   7.011 128.749  0.00  0.00    +0.229 C 
BRANCH  10  11
ATOM     11  C   LIG A   1     -12.888   8.357 128.207  0.00  0.00    +0.037 C 
ATOM     12  C   LIG A   1     -12.892   9.425 129.293  0.00  0.00    +0.007 C 
ENDBRANCH  10  11
ENDBRANCH   9  10
ENDBRANCH   1   9
TORSDOF 4
ENDMDL
MODEL 3
REMARK VINA RESULT:      -5.1     11.697     12.790
REMARK  Name = NuBBE_1736
REMARK  5 active torsions:
REMARK  status: ('A' for Active; 'I' for Inactive)
REMARK    1  A    between atoms: O_1  and  C_2
REMARK    2  A    between atoms: O_1  and  C_5
REMARK    3  A    between atoms: C_2  and  C_3
REMARK    4  A    between atoms: C_3  and  C_4
REMARK    5  A    between atoms: C_6  and  O_7
REMARK                            x       y       z     vdW  Elec       q    Type
REMARK                         _______ _______ _______ _____ _____    ______ ____
ROOT
ATOM      1  C   LIG A   1      -7.870  -3.262 124.640  0.00  0.00    +0.162 A 
ATOM      2  C   LIG A   1      -8.634  -2.857 123.540  0.00  0.00    +0.158 A 
ATOM      3  C   LIG A   1      -8.076  -2.160 122.473  0.00  0.00    +0.049 A 
ATOM      4  C   LIG A   1      -6.715  -1.855 122.499  0.00  0.00    +0.004 A 
ATOM      5  C   LIG A   1      -5.933  -2.260 123.578  0.00  0.00    +0.004 A 
ATOM      6  C   LIG A   1      -6.503  -2.968 124.643  0.00  0.00    +0.049 A 
ENDROOT
BRANCH   2   7
ATOM      7  O   LIG A   1      -9.973  -3.143 123.488  0.00  0.00    -0.503 OA
ATOM      8  H   LIG A   1     -10.034  -3.948 122.937  0.00  0.00    +0.292 HD
ENDBRANCH   2   7
BRANCH   1   9
ATOM      9  O   LIG A   1      -8.564  -3.907 125.630  0.00  0.00    -0.488 OA
BRANCH   9  10
ATOM     10  C   LIG A   1      -8.958  -3.147 126.773  0.00  0.00    +0.229 C 
BRANCH  10  11
ATOM     11  C   LIG A   1      -8.874  -4.022 128.022  0.00  0.00    +0.037 C 
ATOM     12  C   LIG A   1      -8.222  -3.277 129.179  0.00  0.00    +0.007 C 
ENDBRANCH  10  11
ENDBRANCH   9  10
ENDBRANCH   1   9
TORSDOF 4
ENDMDL
MODEL 4
REMARK VINA RESULT:      -5.1      1.972      5.001
REMARK  Name = NuBBE_1736
REMARK  5 active torsions:
REMARK  status: ('A' for Active; 'I' for Inactive)
REMARK    1  A    between atoms: O_1  and  C_2
REMARK    2  A    between atoms: O_1  and  C_5
REMARK    3  A    between atoms: C_2  and  C_3
REMARK    4  A    between atoms: C_3  and  C_4
REMARK    5  A    between atoms: C_6  and  O_7
REMARK                            x       y       z     vdW  Elec       q    Type
REMARK                         _______ _______ _______ _____ _____    ______ ____
ROOT
ATOM      1  C   LIG A   1     -10.767   7.799 128.838  0.00  0.00    +0.162 A 
ATOM      2  C   LIG A   1     -10.931   7.190 127.589  0.00  0.00    +0.158 A 
ATOM      3  C   LIG A   1     -12.162   7.159 126.941  0.00  0.00    +0.049 A 
ATOM      4  C   LIG A   1     -13.266   7.752 127.554  0.00  0.00    +0.004 A 
ATOM      5  C   LIG A   1     -13.123   8.375 128.791  0.00  0.00    +0.004 A 
ATOM      6  C   LIG A   1     -11.877   8.408 129.430  0.00  0.00    +0.049 A 
ENDROOT
BRANCH   2   7
ATOM      7  O   LIG A   1      -9.864   6.599 126.964  0.00  0.00    -0.503 OA
ATOM      8  H   LIG A   1     -10.139   5.673 126.823  0.00  0.00    +0.292 HD
ENDBRANCH   2   7
BRANCH   1   9
ATOM      9  O   LIG A   1      -9.505   7.718 129.367  0.00  0.00    -0.488 OA
BRANCH   9  10
ATOM     10  C   LIG A   1      -9.335   6.975 130.574  0.00  0.00    +0.229 C 
BRANCH  10  11
ATOM     11  C   LIG A   1      -7.852   6.921 130.937  0.00  0.00    +0.037 C 
ATOM     12  C   LIG A   1      -7.617   6.097 132.196  0.00  0.00    +0.007 C 
ENDBRANCH  10  11
ENDBRANCH   9  10
ENDBRANCH   1   9
TORSDOF 4
ENDMDL
MODEL 5
REMARK VINA RESULT:      -5.0      2.080      2.907
REMARK  Name = NuBBE_1736
REMARK  5 active torsions:
REMARK  status: ('A' for Active; 'I' for Inactive)
REMARK    1  A    between atoms: O_1  and  C_2
REMARK    2  A    between atoms: O_1  and  C_5
REMARK    3  A    between atoms: C_2  and  C_3
REMARK    4  A    between atoms: C_3  and  C_4
REMARK    5  A    between atoms: C_6  and  O_7
REMARK                            x       y       z     vdW  Elec       q    Type
REMARK                         _______ _______ _______ _____ _____    ______ ____
ROOT
ATOM      1  C   LIG A   1      -9.909   7.261 130.017  0.00  0.00    +0.162 A 
ATOM      2  C   LIG A   1      -8.781   6.977 130.795  0.00  0.00    +0.158 A 
ATOM      3  C   LIG A   1      -8.874   6.284 131.998  0.00  0.00    +0.049 A 
ATOM      4  C   LIG A   1     -10.126   5.859 132.441  0.00  0.00    +0.004 A 
ATOM      5  C   LIG A   1     -11.259   6.119 131.676  0.00  0.00    +0.004 A 
ATOM      6  C   LIG A   1     -11.154   6.810 130.463  0.00  0.00    +0.049 A 
ENDROOT
BRANCH   2   7
ATOM      7  O   LIG A   1      -7.539   7.382 130.383  0.00  0.00    -0.503 OA
ATOM      8  H   LIG A   1      -7.309   8.123 130.977  0.00  0.00    +0.292 HD
ENDBRANCH   2   7
BRANCH   1   9
ATOM      9  O   LIG A   1      -9.666   7.983 128.876  0.00  0.00    -0.488 OA
BRANCH   9  10
ATOM     10  C   LIG A   1     -10.788   8.387 128.092  0.00  0.00    +0.229 C 
BRANCH  10  11
ATOM     11  C   LIG A   1     -10.858   7.537 126.824  0.00  0.00    +0.037 C 
ATOM     12  C   LIG A   1     -12.295   7.158 126.487  0.00  0.00    +0.007 C 
ENDBRANCH  10  11
ENDBRANCH   9  10
ENDBRANCH   1   9
TORSDOF 4
ENDMDL
MODEL 6
REMARK VINA RESULT:      -5.0      1.622      4.500
REMARK  Name = NuBBE_1736
REMARK  5 active torsions:
REMARK  status: ('A' for Active; 'I' for Inactive)
REMARK    1  A    between atoms: O_1  and  C_2
REMARK    2  A    between atoms: O_1  and  C_5
REMARK    3  A    between atoms: C_2  and  C_3
REMARK    4  A    between atoms: C_3  and  C_4
REMARK    5  A    between atoms: C_6  and  O_7
REMARK                            x       y       z     vdW  Elec       q    Type
REMARK                         _______ _______ _______ _____ _____    ______ ____
ROOT
ATOM      1  C   LIG A   1     -12.195   6.734 129.550  0.00  0.00    +0.162 A 
ATOM      2  C   LIG A   1     -12.241   7.335 128.287  0.00  0.00    +0.158 A 
ATOM      3  C   LIG A   1     -12.626   8.661 128.118  0.00  0.00    +0.049 A 
ATOM      4  C   LIG A   1     -12.976   9.415 129.238  0.00  0.00    +0.004 A 
ATOM      5  C   LIG A   1     -12.924   8.840 130.505  0.00  0.00    +0.004 A 
ATOM      6  C   LIG A   1     -12.527   7.507 130.666  0.00  0.00    +0.049 A 
ENDROOT
BRANCH   2   7
ATOM      7  O   LIG A   1     -11.903   6.618 127.169  0.00  0.00    -0.503 OA
ATOM      8  H   LIG A   1     -10.927   6.638 127.147  0.00  0.00    +0.292 HD
ENDBRANCH   2   7
BRANCH   1   9
ATOM      9  O   LIG A   1     -11.832   5.412 129.556  0.00  0.00    -0.488 OA
BRANCH   9  10
ATOM     10  C   LIG A   1     -10.767   5.016 130.421  0.00  0.00    +0.229 C 
BRANCH  10  11
ATOM     11  C   LIG A   1      -9.466   5.672 129.963  0.00  0.00    +0.037 C 
ATOM     12  C   LIG A   1      -8.893   6.582 131.042  0.00  0.00    +0.007 C 
ENDBRANCH  10  11
ENDBRANCH   9  10
ENDBRANCH   1   9
TORSDOF 4
ENDMDL
MODEL 7
REMARK VINA RESULT:      -5.0      1.457      4.030
REMARK  Name = NuBBE_1736
REMARK  5 active torsions:
REMARK  status: ('A' for Active; 'I' for Inactive)
REMARK    1  A    between atoms: O_1  and  C_2
REMARK    2  A    between atoms: O_1  and  C_5
REMARK    3  A    between atoms: C_2  and  C_3
REMARK    4  A    between atoms: C_3  and  C_4
REMARK    5  A    between atoms: C_6  and  O_7
REMARK                            x       y       z     vdW  Elec       q    Type
REMARK                         _______ _______ _______ _____ _____    ______ ____
ROOT
ATOM      1  C   LIG A   1     -11.412   6.511 129.602  0.00  0.00    +0.162 A 
ATOM      2  C   LIG A   1     -12.119   6.921 130.737  0.00  0.00    +0.158 A 
ATOM      3  C   LIG A   1     -12.788   8.140 130.786  0.00  0.00    +0.049 A 
ATOM      4  C   LIG A   1     -12.755   8.977 129.671  0.00  0.00    +0.004 A 
ATOM      5  C   LIG A   1     -12.068   8.583 128.526  0.00  0.00    +0.004 A 
ATOM      6  C   LIG A   1     -11.405   7.350 128.484  0.00  0.00    +0.049 A 
ENDROOT
BRANCH   2   7
ATOM      7  O   LIG A   1     -12.168   6.118 131.847  0.00  0.00    -0.503 OA
ATOM      8  H   LIG A   1     -12.851   5.451 131.640  0.00  0.00    +0.292 HD
ENDBRANCH   2   7
BRANCH   1   9
ATOM      9  O   LIG A   1     -10.773   5.303 129.715  0.00  0.00    -0.488 OA
BRANCH   9  10
ATOM     10  C   LIG A   1      -9.350   5.287 129.596  0.00  0.00    +0.229 C 
BRANCH  10  11
ATOM     11  C   LIG A   1      -8.720   5.476 130.975  0.00  0.00    +0.037 C 
ATOM     12  C   LIG A   1      -8.055   6.841 131.100  0.00  0.00    +0.007 C 
ENDBRANCH  10  11
ENDBRANCH   9  10
ENDBRANCH   1   9
TORSDOF 4
ENDMDL
MODEL 8
REMARK VINA RESULT:      -5.0      9.803     11.050
REMARK  Name = NuBBE_1736
REMARK  5 active torsions:
REMARK  status: ('A' for Active; 'I' for Inactive)
REMARK    1  A    between atoms: O_1  and  C_2
REMARK    2  A    between atoms: O_1  and  C_5
REMARK    3  A    between atoms: C_2  and  C_3
REMARK    4  A    between atoms: C_3  and  C_4
REMARK    5  A    between atoms: C_6  and  O_7
REMARK                            x       y       z     vdW  Elec       q    Type
REMARK                         _______ _______ _______ _____ _____    ______ ____
ROOT
ATOM      1  C   LIG A   1      -7.909   3.466 121.725  0.00  0.00    +0.162 A 
ATOM      2  C   LIG A   1      -8.133   3.870 120.405  0.00  0.00    +0.158 A 
ATOM      3  C   LIG A   1      -7.099   4.313 119.586  0.00  0.00    +0.049 A 
ATOM      4  C   LIG A   1      -5.801   4.356 120.095  0.00  0.00    +0.004 A 
ATOM      5  C   LIG A   1      -5.554   3.946 121.402  0.00  0.00    +0.004 A 
ATOM      6  C   LIG A   1      -6.600   3.493 122.216  0.00  0.00    +0.049 A 
ENDROOT
BRANCH   2   7
ATOM      7  O   LIG A   1      -9.397   3.839 119.879  0.00  0.00    -0.503 OA
ATOM      8  H   LIG A   1      -9.522   4.720 119.477  0.00  0.00    +0.292 HD
ENDBRANCH   2   7
BRANCH   1   9
ATOM      9  O   LIG A   1      -9.029   3.089 122.420  0.00  0.00    -0.488 OA
BRANCH   9  10
ATOM     10  C   LIG A   1      -8.847   2.346 123.626  0.00  0.00    +0.229 C 
BRANCH  10  11
ATOM     11  C   LIG A   1      -8.956   0.851 123.326  0.00  0.00    +0.037 C 
ATOM     12  C   LIG A   1     -10.208   0.538 122.516  0.00  0.00    +0.007 C 
ENDBRANCH  10  11
ENDBRANCH   9  10
ENDBRANCH   1   9
TORSDOF 4
ENDMDL
MODEL 9
REMARK VINA RESULT:      -4.8      1.476      4.522
REMARK  Name = NuBBE_1736
REMARK  5 active torsions:
REMARK  status: ('A' for Active; 'I' for Inactive)
REMARK    1  A    between atoms: O_1  and  C_2
REMARK    2  A    between atoms: O_1  and  C_5
REMARK    3  A    between atoms: C_2  and  C_3
REMARK    4  A    between atoms: C_3  and  C_4
REMARK    5  A    between atoms: C_6  and  O_7
REMARK                            x       y       z     vdW  Elec       q    Type
REMARK                         _______ _______ _______ _____ _____    ______ ____
ROOT
ATOM      1  C   LIG A   1     -10.936   7.193 130.704  0.00  0.00    +0.162 A 
ATOM      2  C   LIG A   1     -12.291   7.503 130.550  0.00  0.00    +0.158 A 
ATOM      3  C   LIG A   1     -12.774   8.147 129.415  0.00  0.00    +0.049 A 
ATOM      4  C   LIG A   1     -11.882   8.493 128.400  0.00  0.00    +0.004 A 
ATOM      5  C   LIG A   1     -10.531   8.182 128.527  0.00  0.00    +0.004 A 
ATOM      6  C   LIG A   1     -10.056   7.526 129.669  0.00  0.00    +0.049 A 
ENDROOT
BRANCH   2   7
ATOM      7  O   LIG A   1     -13.190   7.175 131.531  0.00  0.00    -0.503 OA
ATOM      8  H   LIG A   1     -13.419   8.026 131.952  0.00  0.00    +0.292 HD
ENDBRANCH   2   7
BRANCH   1   9
ATOM      9  O   LIG A   1     -10.604   6.591 131.890  0.00  0.00    -0.488 OA
BRANCH   9  10
ATOM     10  C   LIG A   1      -9.737   5.458 131.844  0.00  0.00    +0.229 C 
BRANCH  10  11
ATOM     11  C   LIG A   1      -8.979   5.339 133.165  0.00  0.00    +0.037 C 
ATOM     12  C   LIG A   1      -9.159   3.960 133.786  0.00  0.00    +0.007 C 
ENDBRANCH  10  11
ENDBRANCH   9  10
ENDBRANCH   1   9
TORSDOF 4
ENDMDL
