MODEL 1
REMARK VINA RESULT:      -7.2      0.000      0.000
REMARK  Name = NuBBE_1285
REMARK  6 active torsions:
REMARK  status: ('A' for Active; 'I' for Inactive)
REMARK    1  A    between atoms: C_5  and  O_6
REMARK    2  A    between atoms: O_6  and  C_7
REMARK    3  A    between atoms: C_11  and  C_13
REMARK    4  A    between atoms: C_13  and  C_14
REMARK    5  A    between atoms: C_13  and  O_15
REMARK    6  A    between atoms: C_13  and  C_16
REMARK                            x       y       z     vdW  Elec       q    Type
REMARK                         _______ _______ _______ _____ _____    ______ ____
ROOT
ATOM      1  O   LIG A   1      -7.291   1.450 133.395  0.00  0.00    -0.245 OA
ATOM      2  C   LIG A   1      -7.927   2.466 133.168  0.00  0.00    +0.337 A 
ATOM      3  O   LIG A   1      -8.490   2.743 131.930  0.00  0.00    -0.418 OA
ATOM      4  C   LIG A   1      -9.241   3.921 131.689  0.00  0.00    +0.184 A 
ATOM      5  C   LIG A   1      -9.750   4.127 130.396  0.00  0.00    +0.205 A 
ATOM      6  C   LIG A   1     -10.504   5.276 130.203  0.00  0.00    +0.170 A 
ATOM      7  C   LIG A   1     -10.722   6.187 131.232  0.00  0.00    +0.002 A 
ATOM      8  C   LIG A   1     -11.515   7.336 130.732  0.00  0.00    +0.086 C 
ATOM      9  C   LIG A   1     -12.004   6.747 129.400  0.00  0.00    +0.209 C 
ATOM     10  O   LIG A   1     -11.095   5.668 129.027  0.00  0.00    -0.482 OA
ATOM     11  C   LIG A   1     -10.179   6.003 132.495  0.00  0.00    +0.019 A 
ATOM     12  C   LIG A   1      -9.431   4.849 132.729  0.00  0.00    +0.022 A 
ATOM     13  C   LIG A   1      -8.827   4.595 134.027  0.00  0.00    +0.019 A 
ATOM     14  C   LIG A   1      -8.123   3.478 134.224  0.00  0.00    +0.092 A 
ENDROOT
BRANCH   9  15
ATOM     15  C   LIG A   1     -12.100   7.760 128.231  0.00  0.00    +0.097 C 
ATOM     16  C   LIG A   1     -10.731   8.267 127.767  0.00  0.00    +0.045 C 
ATOM     17  C   LIG A   1     -13.005   8.940 128.591  0.00  0.00    +0.045 C 
BRANCH  15  18
ATOM     18  O   LIG A   1     -12.710   7.113 127.102  0.00  0.00    -0.386 OA
ATOM     19  H   LIG A   1     -13.601   6.832 127.381  0.00  0.00    +0.210 HD
ENDBRANCH  15  18
ENDBRANCH   9  15
BRANCH   5  20
ATOM     20  O   LIG A   1      -9.490   3.162 129.464  0.00  0.00    -0.488 OA
ATOM     21  C   LIG A   1      -8.341   3.373 128.653  0.00  0.00    +0.277 C 
ENDBRANCH   5  20
TORSDOF 3
ENDMDL
MODEL 2
REMARK VINA RESULT:      -7.2      1.638      6.170
REMARK  Name = NuBBE_1285
REMARK  6 active torsions:
REMARK  status: ('A' for Active; 'I' for Inactive)
REMARK    1  A    between atoms: C_5  and  O_6
REMARK    2  A    between atoms: O_6  and  C_7
REMARK    3  A    between atoms: C_11  and  C_13
REMARK    4  A    between atoms: C_13  and  C_14
REMARK    5  A    between atoms: C_13  and  O_15
REMARK    6  A    between atoms: C_13  and  C_16
REMARK                            x       y       z     vdW  Elec       q    Type
REMARK                         _______ _______ _______ _____ _____    ______ ____
ROOT
ATOM      1  O   LIG A   1     -10.994   7.730 125.383  0.00  0.00    -0.245 OA
ATOM      2  C   LIG A   1     -11.053   7.568 126.591  0.00  0.00    +0.337 A 
ATOM      3  O   LIG A   1     -10.115   6.830 127.300  0.00  0.00    -0.418 OA
ATOM      4  C   LIG A   1     -10.190   6.665 128.707  0.00  0.00    +0.184 A 
ATOM      5  C   LIG A   1      -9.209   5.878 129.333  0.00  0.00    +0.205 A 
ATOM      6  C   LIG A   1      -9.296   5.763 130.713  0.00  0.00    +0.170 A 
ATOM      7  C   LIG A   1     -10.318   6.374 131.434  0.00  0.00    +0.002 A 
ATOM      8  C   LIG A   1     -10.191   6.043 132.873  0.00  0.00    +0.086 C 
ATOM      9  C   LIG A   1      -8.762   5.477 132.879  0.00  0.00    +0.209 C 
ATOM     10  O   LIG A   1      -8.445   5.050 131.521  0.00  0.00    -0.482 OA
ATOM     11  C   LIG A   1     -11.311   7.111 130.806  0.00  0.00    +0.019 A 
ATOM     12  C   LIG A   1     -11.243   7.264 129.421  0.00  0.00    +0.022 A 
ATOM     13  C   LIG A   1     -12.254   8.017 128.697  0.00  0.00    +0.019 A 
ATOM     14  C   LIG A   1     -12.159   8.153 127.373  0.00  0.00    +0.092 A 
ENDROOT
BRANCH   9  15
ATOM     15  C   LIG A   1      -8.529   4.296 133.854  0.00  0.00    +0.097 C 
ATOM     16  C   LIG A   1      -7.772   4.708 135.121  0.00  0.00    +0.045 C 
ATOM     17  C   LIG A   1      -7.808   3.138 133.161  0.00  0.00    +0.045 C 
BRANCH  15  18
ATOM     18  O   LIG A   1      -9.803   3.782 134.277  0.00  0.00    -0.386 OA
ATOM     19  H   LIG A   1     -10.460   4.073 133.619  0.00  0.00    +0.210 HD
ENDBRANCH  15  18
ENDBRANCH   9  15
BRANCH   5  20
ATOM     20  O   LIG A   1      -8.242   5.338 128.534  0.00  0.00    -0.488 OA
ATOM     21  C   LIG A   1      -8.208   3.917 128.471  0.00  0.00    +0.277 C 
ENDBRANCH   5  20
TORSDOF 3
ENDMDL
MODEL 3
REMARK VINA RESULT:      -6.8      8.415     10.758
REMARK  Name = NuBBE_1285
REMARK  6 active torsions:
REMARK  status: ('A' for Active; 'I' for Inactive)
REMARK    1  A    between atoms: C_5  and  O_6
REMARK    2  A    between atoms: O_6  and  C_7
REMARK    3  A    between atoms: C_11  and  C_13
REMARK    4  A    between atoms: C_13  and  C_14
REMARK    5  A    between atoms: C_13  and  O_15
REMARK    6  A    between atoms: C_13  and  C_16
REMARK                            x       y       z     vdW  Elec       q    Type
REMARK                         _______ _______ _______ _____ _____    ______ ____
ROOT
ATOM      1  O   LIG A   1      -7.523  -1.823 122.079  0.00  0.00    -0.245 OA
ATOM      2  C   LIG A   1      -7.798  -2.187 123.211  0.00  0.00    +0.337 A 
ATOM      3  O   LIG A   1      -7.006  -1.892 124.311  0.00  0.00    -0.418 OA
ATOM      4  C   LIG A   1      -7.350  -2.307 125.623  0.00  0.00    +0.184 A 
ATOM      5  C   LIG A   1      -6.471  -1.985 126.670  0.00  0.00    +0.205 A 
ATOM      6  C   LIG A   1      -6.854  -2.382 127.944  0.00  0.00    +0.170 A 
ATOM      7  C   LIG A   1      -8.034  -3.085 128.165  0.00  0.00    +0.002 A 
ATOM      8  C   LIG A   1      -8.163  -3.419 129.604  0.00  0.00    +0.086 C 
ATOM      9  C   LIG A   1      -7.083  -2.488 130.178  0.00  0.00    +0.209 C 
ATOM     10  O   LIG A   1      -6.150  -2.168 129.103  0.00  0.00    -0.482 OA
ATOM     11  C   LIG A   1      -8.875  -3.443 127.122  0.00  0.00    +0.019 A 
ATOM     12  C   LIG A   1      -8.531  -3.042 125.831  0.00  0.00    +0.022 A 
ATOM     13  C   LIG A   1      -9.363  -3.388 124.690  0.00  0.00    +0.019 A 
ATOM     14  C   LIG A   1      -9.012  -2.985 123.467  0.00  0.00    +0.092 A 
ENDROOT
BRANCH   9  15
ATOM     15  C   LIG A   1      -6.296  -3.062 131.383  0.00  0.00    +0.097 C 
ATOM     16  C   LIG A   1      -5.653  -4.419 131.084  0.00  0.00    +0.045 C 
ATOM     17  C   LIG A   1      -7.180  -3.159 132.629  0.00  0.00    +0.045 C 
BRANCH  15  18
ATOM     18  O   LIG A   1      -5.229  -2.159 131.716  0.00  0.00    -0.386 OA
ATOM     19  H   LIG A   1      -5.345  -1.364 131.164  0.00  0.00    +0.210 HD
ENDBRANCH  15  18
ENDBRANCH   9  15
BRANCH   5  20
ATOM     20  O   LIG A   1      -5.348  -1.279 126.344  0.00  0.00    -0.488 OA
ATOM     21  C   LIG A   1      -5.429   0.132 126.513  0.00  0.00    +0.277 C 
ENDBRANCH   5  20
TORSDOF 3
ENDMDL
MODEL 4
REMARK VINA RESULT:      -6.8      7.440      9.472
REMARK  Name = NuBBE_1285
REMARK  6 active torsions:
REMARK  status: ('A' for Active; 'I' for Inactive)
REMARK    1  A    between atoms: C_5  and  O_6
REMARK    2  A    between atoms: O_6  and  C_7
REMARK    3  A    between atoms: C_11  and  C_13
REMARK    4  A    between atoms: C_13  and  C_14
REMARK    5  A    between atoms: C_13  and  O_15
REMARK    6  A    between atoms: C_13  and  C_16
REMARK                            x       y       z     vdW  Elec       q    Type
REMARK                         _______ _______ _______ _____ _____    ______ ____
ROOT
ATOM      1  O   LIG A   1      -6.155   6.144 125.133  0.00  0.00    -0.245 OA
ATOM      2  C   LIG A   1      -6.067   4.933 125.251  0.00  0.00    +0.337 A 
ATOM      3  O   LIG A   1      -7.020   4.054 124.755  0.00  0.00    -0.418 OA
ATOM      4  C   LIG A   1      -6.893   2.648 124.886  0.00  0.00    +0.184 A 
ATOM      5  C   LIG A   1      -7.923   1.841 124.375  0.00  0.00    +0.205 A 
ATOM      6  C   LIG A   1      -7.751   0.469 124.495  0.00  0.00    +0.170 A 
ATOM      7  C   LIG A   1      -6.629  -0.075 125.113  0.00  0.00    +0.002 A 
ATOM      8  C   LIG A   1      -6.734  -1.553 125.142  0.00  0.00    +0.086 C 
ATOM      9  C   LIG A   1      -7.880  -1.747 124.137  0.00  0.00    +0.209 C 
ATOM     10  O   LIG A   1      -8.627  -0.496 124.063  0.00  0.00    -0.482 OA
ATOM     11  C   LIG A   1      -5.638   0.727 125.658  0.00  0.00    +0.019 A 
ATOM     12  C   LIG A   1      -5.768   2.111 125.537  0.00  0.00    +0.022 A 
ATOM     13  C   LIG A   1      -4.770   3.011 126.091  0.00  0.00    +0.019 A 
ATOM     14  C   LIG A   1      -4.918   4.331 125.954  0.00  0.00    +0.092 A 
ENDROOT
BRANCH   9  15
ATOM     15  C   LIG A   1      -8.854  -2.905 124.469  0.00  0.00    +0.097 C 
ATOM     16  C   LIG A   1      -8.146  -4.131 125.055  0.00  0.00    +0.045 C 
ATOM     17  C   LIG A   1      -9.678  -3.307 123.244  0.00  0.00    +0.045 C 
BRANCH  15  18
ATOM     18  O   LIG A   1      -9.795  -2.455 125.458  0.00  0.00    -0.386 OA
ATOM     19  H   LIG A   1     -10.303  -3.235 125.744  0.00  0.00    +0.210 HD
ENDBRANCH  15  18
ENDBRANCH   9  15
BRANCH   5  20
ATOM     20  O   LIG A   1      -8.972   2.477 123.774  0.00  0.00    -0.488 OA
ATOM     21  C   LIG A   1      -8.924   2.552 122.355  0.00  0.00    +0.277 C 
ENDBRANCH   5  20
TORSDOF 3
ENDMDL
MODEL 5
REMARK VINA RESULT:      -6.4      5.781      9.252
REMARK  Name = NuBBE_1285
REMARK  6 active torsions:
REMARK  status: ('A' for Active; 'I' for Inactive)
REMARK    1  A    between atoms: C_5  and  O_6
REMARK    2  A    between atoms: O_6  and  C_7
REMARK    3  A    between atoms: C_11  and  C_13
REMARK    4  A    between atoms: C_13  and  C_14
REMARK    5  A    between atoms: C_13  and  O_15
REMARK    6  A    between atoms: C_13  and  C_16
REMARK                            x       y       z     vdW  Elec       q    Type
REMARK                         _______ _______ _______ _____ _____    ______ ____
ROOT
ATOM      1  O   LIG A   1      -5.123   5.589 126.583  0.00  0.00    -0.245 OA
ATOM      2  C   LIG A   1      -5.555   4.677 125.897  0.00  0.00    +0.337 A 
ATOM      3  O   LIG A   1      -6.160   3.549 126.435  0.00  0.00    -0.418 OA
ATOM      4  C   LIG A   1      -6.672   2.506 125.622  0.00  0.00    +0.184 A 
ATOM      5  C   LIG A   1      -7.242   1.391 126.259  0.00  0.00    +0.205 A 
ATOM      6  C   LIG A   1      -7.760   0.404 125.432  0.00  0.00    +0.170 A 
ATOM      7  C   LIG A   1      -7.692   0.503 124.045  0.00  0.00    +0.002 A 
ATOM      8  C   LIG A   1      -8.274  -0.709 123.422  0.00  0.00    +0.086 C 
ATOM      9  C   LIG A   1      -8.992  -1.303 124.643  0.00  0.00    +0.209 C 
ATOM     10  O   LIG A   1      -8.362  -0.760 125.841  0.00  0.00    -0.482 OA
ATOM     11  C   LIG A   1      -7.085   1.583 123.422  0.00  0.00    +0.019 A 
ATOM     12  C   LIG A   1      -6.573   2.604 124.222  0.00  0.00    +0.022 A 
ATOM     13  C   LIG A   1      -5.917   3.762 123.636  0.00  0.00    +0.019 A 
ATOM     14  C   LIG A   1      -5.443   4.727 124.427  0.00  0.00    +0.092 A 
ENDROOT
BRANCH   9  15
ATOM     15  C   LIG A   1      -8.984  -2.851 124.719  0.00  0.00    +0.097 C 
ATOM     16  C   LIG A   1      -9.292  -3.381 126.123  0.00  0.00    +0.045 C 
ATOM     17  C   LIG A   1      -7.659  -3.426 124.216  0.00  0.00    +0.045 C 
BRANCH  15  18
ATOM     18  O   LIG A   1     -10.004  -3.366 123.847  0.00  0.00    -0.386 OA
ATOM     19  H   LIG A   1      -9.595  -4.075 123.317  0.00  0.00    +0.210 HD
ENDBRANCH  15  18
ENDBRANCH   9  15
BRANCH   5  20
ATOM     20  O   LIG A   1      -7.272   1.403 127.624  0.00  0.00    -0.488 OA
ATOM     21  C   LIG A   1      -8.516   1.756 128.217  0.00  0.00    +0.277 C 
ENDBRANCH   5  20
TORSDOF 3
ENDMDL
MODEL 6
REMARK VINA RESULT:      -6.3      4.773      7.925
REMARK  Name = NuBBE_1285
REMARK  6 active torsions:
REMARK  status: ('A' for Active; 'I' for Inactive)
REMARK    1  A    between atoms: C_5  and  O_6
REMARK    2  A    between atoms: O_6  and  C_7
REMARK    3  A    between atoms: C_11  and  C_13
REMARK    4  A    between atoms: C_13  and  C_14
REMARK    5  A    between atoms: C_13  and  O_15
REMARK    6  A    between atoms: C_13  and  C_16
REMARK                            x       y       z     vdW  Elec       q    Type
REMARK                         _______ _______ _______ _____ _____    ______ ____
ROOT
ATOM      1  O   LIG A   1      -8.288   5.451 129.237  0.00  0.00    -0.245 OA
ATOM      2  C   LIG A   1      -8.154   4.249 129.071  0.00  0.00    +0.337 A 
ATOM      3  O   LIG A   1      -8.449   3.616 127.872  0.00  0.00    -0.418 OA
ATOM      4  C   LIG A   1      -8.270   2.221 127.690  0.00  0.00    +0.184 A 
ATOM      5  C   LIG A   1      -8.623   1.666 126.449  0.00  0.00    +0.205 A 
ATOM      6  C   LIG A   1      -8.408   0.303 126.297  0.00  0.00    +0.170 A 
ATOM      7  C   LIG A   1      -7.894  -0.474 127.330  0.00  0.00    +0.002 A 
ATOM      8  C   LIG A   1      -7.816  -1.893 126.906  0.00  0.00    +0.086 C 
ATOM      9  C   LIG A   1      -8.010  -1.717 125.392  0.00  0.00    +0.209 C 
ATOM     10  O   LIG A   1      -8.676  -0.437 125.172  0.00  0.00    -0.482 OA
ATOM     11  C   LIG A   1      -7.592   0.069 128.570  0.00  0.00    +0.019 A 
ATOM     12  C   LIG A   1      -7.777   1.440 128.751  0.00  0.00    +0.022 A 
ATOM     13  C   LIG A   1      -7.488   2.076 130.026  0.00  0.00    +0.019 A 
ATOM     14  C   LIG A   1      -7.668   3.391 130.168  0.00  0.00    +0.092 A 
ENDROOT
BRANCH   9  15
ATOM     15  C   LIG A   1      -8.823  -2.840 124.700  0.00  0.00    +0.097 C 
ATOM     16  C   LIG A   1      -8.124  -4.203 124.756  0.00  0.00    +0.045 C 
ATOM     17  C   LIG A   1      -9.154  -2.476 123.252  0.00  0.00    +0.045 C 
BRANCH  15  18
ATOM     18  O   LIG A   1     -10.082  -2.990 125.377  0.00  0.00    -0.386 OA
ATOM     19  H   LIG A   1     -10.343  -2.106 125.692  0.00  0.00    +0.210 HD
ENDBRANCH  15  18
ENDBRANCH   9  15
BRANCH   5  20
ATOM     20  O   LIG A   1      -9.103   2.522 125.498  0.00  0.00    -0.488 OA
ATOM     21  C   LIG A   1      -8.181   2.909 124.486  0.00  0.00    +0.277 C 
ENDBRANCH   5  20
TORSDOF 3
ENDMDL
MODEL 7
REMARK VINA RESULT:      -6.2      3.832      4.757
REMARK  Name = NuBBE_1285
REMARK  6 active torsions:
REMARK  status: ('A' for Active; 'I' for Inactive)
REMARK    1  A    between atoms: C_5  and  O_6
REMARK    2  A    between atoms: O_6  and  C_7
REMARK    3  A    between atoms: C_11  and  C_13
REMARK    4  A    between atoms: C_13  and  C_14
REMARK    5  A    between atoms: C_13  and  O_15
REMARK    6  A    between atoms: C_13  and  C_16
REMARK                            x       y       z     vdW  Elec       q    Type
REMARK                         _______ _______ _______ _____ _____    ______ ____
ROOT
ATOM      1  O   LIG A   1      -1.929   5.009 133.371  0.00  0.00    -0.245 OA
ATOM      2  C   LIG A   1      -2.904   5.480 132.808  0.00  0.00    +0.337 A 
ATOM      3  O   LIG A   1      -4.198   5.035 133.042  0.00  0.00    -0.418 OA
ATOM      4  C   LIG A   1      -5.322   5.605 132.392  0.00  0.00    +0.184 A 
ATOM      5  C   LIG A   1      -6.590   5.070 132.673  0.00  0.00    +0.205 A 
ATOM      6  C   LIG A   1      -7.670   5.672 132.041  0.00  0.00    +0.170 A 
ATOM      7  C   LIG A   1      -7.499   6.731 131.155  0.00  0.00    +0.002 A 
ATOM      8  C   LIG A   1      -8.810   7.140 130.596  0.00  0.00    +0.086 C 
ATOM      9  C   LIG A   1      -9.743   6.405 131.572  0.00  0.00    +0.209 C 
ATOM     10  O   LIG A   1      -8.988   5.312 132.175  0.00  0.00    -0.482 OA
ATOM     11  C   LIG A   1      -6.241   7.225 130.844  0.00  0.00    +0.019 A 
ATOM     12  C   LIG A   1      -5.135   6.657 131.477  0.00  0.00    +0.022 A 
ATOM     13  C   LIG A   1      -3.787   7.121 131.193  0.00  0.00    +0.019 A 
ATOM     14  C   LIG A   1      -2.748   6.563 131.819  0.00  0.00    +0.092 A 
ENDROOT
BRANCH   9  15
ATOM     15  C   LIG A   1     -11.040   5.841 130.939  0.00  0.00    +0.097 C 
ATOM     16  C   LIG A   1     -10.926   4.361 130.562  0.00  0.00    +0.045 C 
ATOM     17  C   LIG A   1     -11.469   6.665 129.723  0.00  0.00    +0.045 C 
BRANCH  15  18
ATOM     18  O   LIG A   1     -12.109   5.946 131.895  0.00  0.00    -0.386 OA
ATOM     19  H   LIG A   1     -12.870   6.338 131.429  0.00  0.00    +0.210 HD
ENDBRANCH  15  18
ENDBRANCH   9  15
BRANCH   5  20
ATOM     20  O   LIG A   1      -6.646   4.041 133.570  0.00  0.00    -0.488 OA
ATOM     21  C   LIG A   1      -7.058   4.385 134.887  0.00  0.00    +0.277 C 
ENDBRANCH   5  20
TORSDOF 3
ENDMDL
MODEL 8
REMARK VINA RESULT:      -6.2      7.146      8.614
REMARK  Name = NuBBE_1285
REMARK  6 active torsions:
REMARK  status: ('A' for Active; 'I' for Inactive)
REMARK    1  A    between atoms: C_5  and  O_6
REMARK    2  A    between atoms: O_6  and  C_7
REMARK    3  A    between atoms: C_11  and  C_13
REMARK    4  A    between atoms: C_13  and  C_14
REMARK    5  A    between atoms: C_13  and  O_15
REMARK    6  A    between atoms: C_13  and  C_16
REMARK                            x       y       z     vdW  Elec       q    Type
REMARK                         _______ _______ _______ _____ _____    ______ ____
ROOT
ATOM      1  O   LIG A   1      -6.252  -0.116 132.622  0.00  0.00    -0.245 OA
ATOM      2  C   LIG A   1      -6.671  -0.808 131.709  0.00  0.00    +0.337 A 
ATOM      3  O   LIG A   1      -6.683  -0.386 130.386  0.00  0.00    -0.418 OA
ATOM      4  C   LIG A   1      -7.158  -1.210 129.335  0.00  0.00    +0.184 A 
ATOM      5  C   LIG A   1      -7.156  -0.685 128.031  0.00  0.00    +0.205 A 
ATOM      6  C   LIG A   1      -7.600  -1.530 127.023  0.00  0.00    +0.170 A 
ATOM      7  C   LIG A   1      -8.049  -2.819 127.296  0.00  0.00    +0.002 A 
ATOM      8  C   LIG A   1      -8.506  -3.471 126.045  0.00  0.00    +0.086 C 
ATOM      9  C   LIG A   1      -7.904  -2.500 125.018  0.00  0.00    +0.209 C 
ATOM     10  O   LIG A   1      -7.677  -1.224 125.687  0.00  0.00    -0.482 OA
ATOM     11  C   LIG A   1      -8.094  -3.316 128.590  0.00  0.00    +0.019 A 
ATOM     12  C   LIG A   1      -7.635  -2.501 129.625  0.00  0.00    +0.022 A 
ATOM     13  C   LIG A   1      -7.661  -2.955 131.006  0.00  0.00    +0.019 A 
ATOM     14  C   LIG A   1      -7.209  -2.156 131.976  0.00  0.00    +0.092 A 
ENDROOT
BRANCH   9  15
ATOM     15  C   LIG A   1      -8.768  -2.266 123.753  0.00  0.00    +0.097 C 
ATOM     16  C   LIG A   1      -9.679  -3.453 123.425  0.00  0.00    +0.045 C 
ATOM     17  C   LIG A   1      -7.899  -1.917 122.542  0.00  0.00    +0.045 C 
BRANCH  15  18
ATOM     18  O   LIG A   1      -9.623  -1.132 123.975  0.00  0.00    -0.386 OA
ATOM     19  H   LIG A   1     -10.103  -0.970 123.142  0.00  0.00    +0.210 HD
ENDBRANCH  15  18
ENDBRANCH   9  15
BRANCH   5  20
ATOM     20  O   LIG A   1      -6.680   0.585 127.873  0.00  0.00    -0.488 OA
ATOM     21  C   LIG A   1      -5.373   0.696 127.322  0.00  0.00    +0.277 C 
ENDBRANCH   5  20
TORSDOF 3
ENDMDL
MODEL 9
REMARK VINA RESULT:      -6.1      2.807      6.912
REMARK  Name = NuBBE_1285
REMARK  6 active torsions:
REMARK  status: ('A' for Active; 'I' for Inactive)
REMARK    1  A    between atoms: C_5  and  O_6
REMARK    2  A    between atoms: O_6  and  C_7
REMARK    3  A    between atoms: C_11  and  C_13
REMARK    4  A    between atoms: C_13  and  C_14
REMARK    5  A    between atoms: C_13  and  O_15
REMARK    6  A    between atoms: C_13  and  C_16
REMARK                            x       y       z     vdW  Elec       q    Type
REMARK                         _______ _______ _______ _____ _____    ______ ____
ROOT
ATOM      1  O   LIG A   1     -10.146   8.372 128.230  0.00  0.00    -0.245 OA
ATOM      2  C   LIG A   1     -10.000   7.762 129.277  0.00  0.00    +0.337 A 
ATOM      3  O   LIG A   1      -8.754   7.501 129.830  0.00  0.00    -0.418 OA
ATOM      4  C   LIG A   1      -8.602   6.805 131.057  0.00  0.00    +0.184 A 
ATOM      5  C   LIG A   1      -7.300   6.564 131.523  0.00  0.00    +0.205 A 
ATOM      6  C   LIG A   1      -7.190   5.907 132.741  0.00  0.00    +0.170 A 
ATOM      7  C   LIG A   1      -8.313   5.487 133.447  0.00  0.00    +0.002 A 
ATOM      8  C   LIG A   1      -7.899   4.775 134.680  0.00  0.00    +0.086 C 
ATOM      9  C   LIG A   1      -6.420   5.187 134.727  0.00  0.00    +0.209 C 
ATOM     10  O   LIG A   1      -6.020   5.575 133.379  0.00  0.00    -0.482 OA
ATOM     11  C   LIG A   1      -9.596   5.686 132.960  0.00  0.00    +0.019 A 
ATOM     12  C   LIG A   1      -9.744   6.361 131.748  0.00  0.00    +0.022 A 
ATOM     13  C   LIG A   1     -11.059   6.598 131.175  0.00  0.00    +0.019 A 
ATOM     14  C   LIG A   1     -11.170   7.253 130.017  0.00  0.00    +0.092 A 
ENDROOT
BRANCH   9  15
ATOM     15  C   LIG A   1      -5.452   4.096 135.252  0.00  0.00    +0.097 C 
ATOM     16  C   LIG A   1      -5.339   4.085 136.780  0.00  0.00    +0.045 C 
ATOM     17  C   LIG A   1      -4.065   4.233 134.620  0.00  0.00    +0.045 C 
BRANCH  15  18
ATOM     18  O   LIG A   1      -5.948   2.805 134.861  0.00  0.00    -0.386 OA
ATOM     19  H   LIG A   1      -6.444   2.449 135.620  0.00  0.00    +0.210 HD
ENDBRANCH  15  18
ENDBRANCH   9  15
BRANCH   5  20
ATOM     20  O   LIG A   1      -6.269   7.032 130.759  0.00  0.00    -0.488 OA
ATOM     21  C   LIG A   1      -5.430   6.045 130.173  0.00  0.00    +0.277 C 
ENDBRANCH   5  20
TORSDOF 3
ENDMDL
