MODEL 1
REMARK VINA RESULT:      -8.3      0.000      0.000
REMARK  Name = NuBBE_432
REMARK  14 active torsions:
REMARK  status: ('A' for Active; 'I' for Inactive)
REMARK    1  A    between atoms: C_1  and  C_2
REMARK    2  A    between atoms: C_6  and  C_41
REMARK    3  A    between atoms: C_9  and  C_40
REMARK    4  A    between atoms: C_10  and  C_39
REMARK    5  A    between atoms: C_15  and  C_16
REMARK    6  A    between atoms: C_15  and  C_37
REMARK    7  A    between atoms: C_16  and  O_17
REMARK    8  A    between atoms: C_18  and  O_36
REMARK    9  A    between atoms: C_20  and  O_35
REMARK   10  A    between atoms: C_23  and  C_34
REMARK   11  A    between atoms: C_31  and  C_32
REMARK   12  A    between atoms: C_31  and  O_33
REMARK   13  A    between atoms: C_37  and  O_38
REMARK   14  A    between atoms: C_41  and  O_42
REMARK                            x       y       z     vdW  Elec       q    Type
REMARK                         _______ _______ _______ _____ _____    ______ ____
ROOT
ATOM      1  C   LIG A   1      -4.996  -4.896 135.671  0.00  0.00    +0.010 C 
ATOM      2  C   LIG A   1      -4.515  -3.898 134.597  0.00  0.00    +0.018 C 
ATOM      3  C   LIG A   1      -4.436  -2.530 135.273  0.00  0.00    +0.007 C 
ATOM      4  C   LIG A   1      -4.074  -1.436 134.293  0.00  0.00    +0.019 C 
ATOM      5  C   LIG A   1      -5.084  -1.317 133.139  0.00  0.00    +0.077 C 
ATOM      6  C   LIG A   1      -4.523  -0.235 132.194  0.00  0.00    +0.019 C 
ATOM      7  C   LIG A   1      -5.464   0.066 131.046  0.00  0.00    +0.012 C 
ATOM      8  C   LIG A   1      -5.956  -1.172 130.240  0.00  0.00    -0.005 C 
ATOM      9  C   LIG A   1      -7.406  -0.836 129.588  0.00  0.00    -0.019 C 
ATOM     10  C   LIG A   1      -7.492   0.558 128.902  0.00  0.00    +0.008 C 
ATOM     11  C   LIG A   1      -7.231   0.607 127.413  0.00  0.00    +0.005 C 
ATOM     12  C   LIG A   1      -8.164  -0.370 126.683  0.00  0.00    +0.008 C 
ATOM     13  C   LIG A   1      -8.361  -0.035 125.152  0.00  0.00    +0.049 C 
ATOM     14  C   LIG A   1      -9.309  -1.106 124.535  0.00  0.00    +0.154 C 
ATOM     15  C   LIG A   1      -8.928  -2.554 124.858  0.00  0.00    +0.144 C 
ATOM     16  C   LIG A   1      -8.806  -2.796 126.365  0.00  0.00    +0.041 C 
ATOM     17  C   LIG A   1      -7.786  -1.852 127.068  0.00  0.00    -0.022 C 
ATOM     18  C   LIG A   1      -7.948  -1.994 128.660  0.00  0.00    +0.006 C 
ATOM     19  C   LIG A   1      -7.655  -3.393 129.262  0.00  0.00    +0.031 C 
ATOM     20  C   LIG A   1      -6.887  -3.442 130.564  0.00  0.00    -0.026 C 
ATOM     21  C   LIG A   1      -6.073  -2.485 131.060  0.00  0.00    -0.060 C 
ATOM     22  C   LIG A   1      -5.185  -2.656 132.337  0.00  0.00    +0.064 C 
ATOM     23  C   LIG A   1      -5.364  -3.946 133.274  0.00  0.00    +0.073 C 
ATOM     24  C   LIG A   1      -4.919  -5.228 132.520  0.00  0.00    +0.042 C 
ATOM     25  C   LIG A   1      -6.388  -2.280 126.571  0.00  0.00    +0.012 C 
ATOM     26  C   LIG A   1      -8.468  -0.722 130.768  0.00  0.00    +0.012 C 
ATOM     27  C   LIG A   1      -4.828  -1.439 129.221  0.00  0.00    +0.016 C 
ENDROOT
BRANCH  23  28
ATOM     28  O   LIG A   1      -6.737  -4.142 133.621  0.00  0.00    -0.388 OA
ATOM     29  H   LIG A   1      -7.008  -3.434 134.244  0.00  0.00    +0.210 HD
ENDBRANCH  23  28
BRANCH  15  30
ATOM     30  O   LIG A   1      -9.950  -3.419 124.343  0.00  0.00    -0.389 OA
ATOM     31  H   LIG A   1     -10.644  -2.815 124.011  0.00  0.00    +0.210 HD
ENDBRANCH  15  30
BRANCH  14  32
ATOM     32  O   LIG A   1      -9.412  -1.002 123.108  0.00  0.00    -0.389 OA
ATOM     33  H   LIG A   1     -10.340  -1.246 122.893  0.00  0.00    +0.210 HD
ENDBRANCH  14  32
BRANCH   5  34
ATOM     34  C   LIG A   1      -6.438  -0.904 133.734  0.00  0.00    +0.312 C 
ATOM     35  O   LIG A   1      -7.455  -1.561 133.726  0.00  0.00    -0.250 OA
BRANCH  34  36
ATOM     36  O   LIG A   1      -6.424   0.279 134.382  0.00  0.00    -0.480 OA
ATOM     37  H   LIG A   1      -7.196   0.760 134.011  0.00  0.00    +0.295 HD
ENDBRANCH  34  36
ENDBRANCH   5  34
BRANCH  13  38
ATOM     38  C   LIG A   1      -9.118   1.333 125.027  0.00  0.00    +0.167 C 
BRANCH  38  39
ATOM     39  O   LIG A   1     -10.450   1.167 124.543  0.00  0.00    -0.394 OA
ATOM     40  H   LIG A   1     -10.923   2.003 124.757  0.00  0.00    +0.209 HD
ENDBRANCH  38  39
ENDBRANCH  13  38
BRANCH  13  41
ATOM     41  C   LIG A   1      -7.001   0.118 124.418  0.00  0.00    +0.167 C 
BRANCH  41  42
ATOM     42  O   LIG A   1      -7.071   0.919 123.241  0.00  0.00    -0.394 OA
ATOM     43  H   LIG A   1      -7.402   0.338 122.527  0.00  0.00    +0.209 HD
ENDBRANCH  41  42
ENDBRANCH  13  41
TORSDOF 9
ENDMDL
MODEL 2
REMARK VINA RESULT:      -8.2      1.715      8.791
REMARK  Name = NuBBE_432
REMARK  14 active torsions:
REMARK  status: ('A' for Active; 'I' for Inactive)
REMARK    1  A    between atoms: C_1  and  C_2
REMARK    2  A    between atoms: C_6  and  C_41
REMARK    3  A    between atoms: C_9  and  C_40
REMARK    4  A    between atoms: C_10  and  C_39
REMARK    5  A    between atoms: C_15  and  C_16
REMARK    6  A    between atoms: C_15  and  C_37
REMARK    7  A    between atoms: C_16  and  O_17
REMARK    8  A    between atoms: C_18  and  O_36
REMARK    9  A    between atoms: C_20  and  O_35
REMARK   10  A    between atoms: C_23  and  C_34
REMARK   11  A    between atoms: C_31  and  C_32
REMARK   12  A    between atoms: C_31  and  O_33
REMARK   13  A    between atoms: C_37  and  O_38
REMARK   14  A    between atoms: C_41  and  O_42
REMARK                            x       y       z     vdW  Elec       q    Type
REMARK                         _______ _______ _______ _____ _____    ______ ____
ROOT
ATOM      1  C   LIG A   1     -10.694   0.868 122.837  0.00  0.00    +0.010 C 
ATOM      2  C   LIG A   1      -9.292   0.393 123.271  0.00  0.00    +0.018 C 
ATOM      3  C   LIG A   1      -9.083  -0.987 122.649  0.00  0.00    +0.007 C 
ATOM      4  C   LIG A   1      -7.778  -1.612 123.088  0.00  0.00    +0.019 C 
ATOM      5  C   LIG A   1      -7.686  -1.782 124.614  0.00  0.00    +0.077 C 
ATOM      6  C   LIG A   1      -6.275  -2.337 124.896  0.00  0.00    +0.019 C 
ATOM      7  C   LIG A   1      -6.065  -2.649 126.363  0.00  0.00    +0.012 C 
ATOM      8  C   LIG A   1      -6.414  -1.497 127.350  0.00  0.00    -0.005 C 
ATOM      9  C   LIG A   1      -6.833  -2.137 128.783  0.00  0.00    -0.019 C 
ATOM     10  C   LIG A   1      -5.882  -3.261 129.286  0.00  0.00    +0.008 C 
ATOM     11  C   LIG A   1      -4.767  -2.848 130.222  0.00  0.00    +0.005 C 
ATOM     12  C   LIG A   1      -5.346  -2.102 131.432  0.00  0.00    +0.008 C 
ATOM     13  C   LIG A   1      -4.390  -2.096 132.689  0.00  0.00    +0.049 C 
ATOM     14  C   LIG A   1      -5.088  -1.297 133.831  0.00  0.00    +0.154 C 
ATOM     15  C   LIG A   1      -5.643   0.066 133.406  0.00  0.00    +0.144 C 
ATOM     16  C   LIG A   1      -6.595  -0.044 132.212  0.00  0.00    +0.041 C 
ATOM     17  C   LIG A   1      -5.955  -0.724 130.965  0.00  0.00    -0.022 C 
ATOM     18  C   LIG A   1      -7.105  -1.044 129.891  0.00  0.00    +0.006 C 
ATOM     19  C   LIG A   1      -7.870   0.177 129.313  0.00  0.00    +0.031 C 
ATOM     20  C   LIG A   1      -8.185   0.163 127.835  0.00  0.00    -0.026 C 
ATOM     21  C   LIG A   1      -7.548  -0.549 126.878  0.00  0.00    -0.060 C 
ATOM     22  C   LIG A   1      -7.820  -0.404 125.344  0.00  0.00    +0.064 C 
ATOM     23  C   LIG A   1      -9.059   0.472 124.825  0.00  0.00    +0.073 C 
ATOM     24  C   LIG A   1      -8.835   1.973 125.153  0.00  0.00    +0.042 C 
ATOM     25  C   LIG A   1      -4.898   0.266 130.427  0.00  0.00    +0.012 C 
ATOM     26  C   LIG A   1      -8.221  -2.896 128.601  0.00  0.00    +0.012 C 
ATOM     27  C   LIG A   1      -5.145  -0.616 127.374  0.00  0.00    +0.016 C 
ENDROOT
BRANCH  23  28
ATOM     28  O   LIG A   1     -10.268   0.093 125.486  0.00  0.00    -0.388 OA
ATOM     29  H   LIG A   1     -10.073  -0.645 126.102  0.00  0.00    +0.210 HD
ENDBRANCH  23  28
BRANCH  15  30
ATOM     30  O   LIG A   1      -6.367   0.627 134.509  0.00  0.00    -0.389 OA
ATOM     31  H   LIG A   1      -5.833   0.402 135.298  0.00  0.00    +0.210 HD
ENDBRANCH  15  30
BRANCH  14  32
ATOM     32  O   LIG A   1      -4.232  -1.074 134.959  0.00  0.00    -0.389 OA
ATOM     33  H   LIG A   1      -3.800  -1.939 135.137  0.00  0.00    +0.210 HD
ENDBRANCH  14  32
BRANCH   5  34
ATOM     34  C   LIG A   1      -8.780  -2.767 125.049  0.00  0.00    +0.312 C 
ATOM     35  O   LIG A   1      -9.762  -2.503 125.708  0.00  0.00    -0.250 OA
BRANCH  34  36
ATOM     36  O   LIG A   1      -8.630  -4.017 124.565  0.00  0.00    -0.480 OA
ATOM     37  H   LIG A   1      -7.685  -4.223 124.734  0.00  0.00    +0.295 HD
ENDBRANCH  34  36
ENDBRANCH   5  34
BRANCH  13  38
ATOM     38  C   LIG A   1      -4.242  -3.564 133.221  0.00  0.00    +0.167 C 
BRANCH  38  39
ATOM     39  O   LIG A   1      -3.018  -4.165 132.803  0.00  0.00    -0.394 OA
ATOM     40  H   LIG A   1      -2.335  -3.460 132.864  0.00  0.00    +0.209 HD
ENDBRANCH  38  39
ENDBRANCH  13  38
BRANCH  13  41
ATOM     41  C   LIG A   1      -2.968  -1.587 132.328  0.00  0.00    +0.167 C 
BRANCH  41  42
ATOM     42  O   LIG A   1      -2.025  -1.719 133.388  0.00  0.00    -0.394 OA
ATOM     43  H   LIG A   1      -1.156  -1.457 133.022  0.00  0.00    +0.209 HD
ENDBRANCH  41  42
ENDBRANCH  13  41
TORSDOF 9
ENDMDL
MODEL 3
REMARK VINA RESULT:      -8.2      1.847      3.364
REMARK  Name = NuBBE_432
REMARK  14 active torsions:
REMARK  status: ('A' for Active; 'I' for Inactive)
REMARK    1  A    between atoms: C_1  and  C_2
REMARK    2  A    between atoms: C_6  and  C_41
REMARK    3  A    between atoms: C_9  and  C_40
REMARK    4  A    between atoms: C_10  and  C_39
REMARK    5  A    between atoms: C_15  and  C_16
REMARK    6  A    between atoms: C_15  and  C_37
REMARK    7  A    between atoms: C_16  and  O_17
REMARK    8  A    between atoms: C_18  and  O_36
REMARK    9  A    between atoms: C_20  and  O_35
REMARK   10  A    between atoms: C_23  and  C_34
REMARK   11  A    between atoms: C_31  and  C_32
REMARK   12  A    between atoms: C_31  and  O_33
REMARK   13  A    between atoms: C_37  and  O_38
REMARK   14  A    between atoms: C_41  and  O_42
REMARK                            x       y       z     vdW  Elec       q    Type
REMARK                         _______ _______ _______ _____ _____    ______ ____
ROOT
ATOM      1  C   LIG A   1      -1.580  -3.028 135.980  0.00  0.00    +0.010 C 
ATOM      2  C   LIG A   1      -2.911  -2.446 135.462  0.00  0.00    +0.018 C 
ATOM      3  C   LIG A   1      -4.028  -3.162 136.219  0.00  0.00    +0.007 C 
ATOM      4  C   LIG A   1      -5.398  -2.752 135.725  0.00  0.00    +0.019 C 
ATOM      5  C   LIG A   1      -5.600  -3.046 134.229  0.00  0.00    +0.077 C 
ATOM      6  C   LIG A   1      -6.993  -2.490 133.872  0.00  0.00    +0.019 C 
ATOM      7  C   LIG A   1      -7.379  -2.791 132.438  0.00  0.00    +0.012 C 
ATOM      8  C   LIG A   1      -6.328  -2.388 131.362  0.00  0.00    -0.005 C 
ATOM      9  C   LIG A   1      -6.501  -3.354 130.067  0.00  0.00    -0.019 C 
ATOM     10  C   LIG A   1      -7.975  -3.549 129.606  0.00  0.00    +0.008 C 
ATOM     11  C   LIG A   1      -8.480  -2.629 128.517  0.00  0.00    +0.005 C 
ATOM     12  C   LIG A   1      -7.557  -2.706 127.293  0.00  0.00    +0.008 C 
ATOM     13  C   LIG A   1      -8.242  -2.231 125.951  0.00  0.00    +0.049 C 
ATOM     14  C   LIG A   1      -7.197  -2.343 124.801  0.00  0.00    +0.154 C 
ATOM     15  C   LIG A   1      -5.835  -1.716 125.115  0.00  0.00    +0.144 C 
ATOM     16  C   LIG A   1      -5.227  -2.271 126.407  0.00  0.00    +0.041 C 
ATOM     17  C   LIG A   1      -6.147  -2.100 127.652  0.00  0.00    -0.022 C 
ATOM     18  C   LIG A   1      -5.548  -2.959 128.871  0.00  0.00    +0.006 C 
ATOM     19  C   LIG A   1      -4.138  -2.554 129.374  0.00  0.00    +0.031 C 
ATOM     20  C   LIG A   1      -3.908  -2.551 130.869  0.00  0.00    -0.026 C 
ATOM     21  C   LIG A   1      -4.850  -2.449 131.833  0.00  0.00    -0.060 C 
ATOM     22  C   LIG A   1      -4.539  -2.297 133.358  0.00  0.00    +0.064 C 
ATOM     23  C   LIG A   1      -3.037  -2.472 133.894  0.00  0.00    +0.073 C 
ATOM     24  C   LIG A   1      -2.137  -1.323 133.368  0.00  0.00    +0.042 C 
ATOM     25  C   LIG A   1      -6.186  -0.585 127.956  0.00  0.00    +0.012 C 
ATOM     26  C   LIG A   1      -6.057  -4.825 130.481  0.00  0.00    +0.012 C 
ATOM     27  C   LIG A   1      -6.600  -0.891 131.101  0.00  0.00    +0.016 C 
ENDROOT
BRANCH  23  28
ATOM     28  O   LIG A   1      -2.459  -3.688 133.412  0.00  0.00    -0.388 OA
ATOM     29  H   LIG A   1      -2.697  -3.796 132.467  0.00  0.00    +0.210 HD
ENDBRANCH  23  28
BRANCH  15  30
ATOM     30  O   LIG A   1      -4.940  -2.007 124.034  0.00  0.00    -0.389 OA
ATOM     31  H   LIG A   1      -5.489  -2.476 123.374  0.00  0.00    +0.210 HD
ENDBRANCH  15  30
BRANCH  14  32
ATOM     32  O   LIG A   1      -7.657  -1.767 123.572  0.00  0.00    -0.389 OA
ATOM     33  H   LIG A   1      -8.459  -2.279 123.324  0.00  0.00    +0.210 HD
ENDBRANCH  14  32
BRANCH   5  34
ATOM     34  C   LIG A   1      -5.529  -4.567 134.031  0.00  0.00    +0.312 C 
ATOM     35  O   LIG A   1      -4.681  -5.172 133.413  0.00  0.00    -0.250 OA
BRANCH  34  36
ATOM     36  O   LIG A   1      -6.482  -5.260 134.689  0.00  0.00    -0.480 OA
ATOM     37  H   LIG A   1      -6.990  -4.569 135.166  0.00  0.00    +0.295 HD
ENDBRANCH  34  36
ENDBRANCH   5  34
BRANCH  13  38
ATOM     38  C   LIG A   1      -9.392  -3.233 125.587  0.00  0.00    +0.167 C 
BRANCH  38  39
ATOM     39  O   LIG A   1      -9.886  -3.025 124.265  0.00  0.00    -0.394 OA
ATOM     40  H   LIG A   1      -9.595  -3.805 123.740  0.00  0.00    +0.209 HD
ENDBRANCH  38  39
ENDBRANCH  13  38
BRANCH  13  41
ATOM     41  C   LIG A   1      -8.882  -0.823 126.100  0.00  0.00    +0.167 C 
BRANCH  41  42
ATOM     42  O   LIG A   1      -9.700  -0.445 124.997  0.00  0.00    -0.394 OA
ATOM     43  H   LIG A   1      -9.229   0.278 124.535  0.00  0.00    +0.209 HD
ENDBRANCH  41  42
ENDBRANCH  13  41
TORSDOF 9
ENDMDL
MODEL 4
REMARK VINA RESULT:      -8.0      2.058      4.012
REMARK  Name = NuBBE_432
REMARK  14 active torsions:
REMARK  status: ('A' for Active; 'I' for Inactive)
REMARK    1  A    between atoms: C_1  and  C_2
REMARK    2  A    between atoms: C_6  and  C_41
REMARK    3  A    between atoms: C_9  and  C_40
REMARK    4  A    between atoms: C_10  and  C_39
REMARK    5  A    between atoms: C_15  and  C_16
REMARK    6  A    between atoms: C_15  and  C_37
REMARK    7  A    between atoms: C_16  and  O_17
REMARK    8  A    between atoms: C_18  and  O_36
REMARK    9  A    between atoms: C_20  and  O_35
REMARK   10  A    between atoms: C_23  and  C_34
REMARK   11  A    between atoms: C_31  and  C_32
REMARK   12  A    between atoms: C_31  and  O_33
REMARK   13  A    between atoms: C_37  and  O_38
REMARK   14  A    between atoms: C_41  and  O_42
REMARK                            x       y       z     vdW  Elec       q    Type
REMARK                         _______ _______ _______ _____ _____    ______ ____
ROOT
ATOM      1  C   LIG A   1      -2.571  -2.280 133.735  0.00  0.00    +0.010 C 
ATOM      2  C   LIG A   1      -4.029  -2.138 133.252  0.00  0.00    +0.018 C 
ATOM      3  C   LIG A   1      -4.639  -3.538 133.280  0.00  0.00    +0.007 C 
ATOM      4  C   LIG A   1      -6.047  -3.552 132.725  0.00  0.00    +0.019 C 
ATOM      5  C   LIG A   1      -6.115  -3.055 131.271  0.00  0.00    +0.077 C 
ATOM      6  C   LIG A   1      -7.610  -3.043 130.896  0.00  0.00    +0.019 C 
ATOM      7  C   LIG A   1      -7.835  -2.662 129.447  0.00  0.00    +0.012 C 
ATOM      8  C   LIG A   1      -7.137  -1.349 128.984  0.00  0.00    -0.005 C 
ATOM      9  C   LIG A   1      -6.849  -1.439 127.388  0.00  0.00    -0.019 C 
ATOM     10  C   LIG A   1      -8.051  -1.958 126.548  0.00  0.00    +0.008 C 
ATOM     11  C   LIG A   1      -8.966  -0.915 125.942  0.00  0.00    +0.005 C 
ATOM     12  C   LIG A   1      -8.150   0.071 125.095  0.00  0.00    +0.008 C 
ATOM     13  C   LIG A   1      -9.010   0.847 124.021  0.00  0.00    +0.049 C 
ATOM     14  C   LIG A   1      -8.069   1.819 123.249  0.00  0.00    +0.154 C 
ATOM     15  C   LIG A   1      -7.177   2.686 124.143  0.00  0.00    +0.144 C 
ATOM     16  C   LIG A   1      -6.347   1.846 125.118  0.00  0.00    +0.041 C 
ATOM     17  C   LIG A   1      -7.204   0.919 126.030  0.00  0.00    -0.022 C 
ATOM     18  C   LIG A   1      -6.236  -0.109 126.796  0.00  0.00    +0.006 C 
ATOM     19  C   LIG A   1      -5.189   0.515 127.757  0.00  0.00    +0.031 C 
ATOM     20  C   LIG A   1      -4.955  -0.184 129.077  0.00  0.00    -0.026 C 
ATOM     21  C   LIG A   1      -5.806  -1.021 129.712  0.00  0.00    -0.060 C 
ATOM     22  C   LIG A   1      -5.573  -1.593 131.150  0.00  0.00    +0.064 C 
ATOM     23  C   LIG A   1      -4.163  -1.374 131.883  0.00  0.00    +0.073 C 
ATOM     24  C   LIG A   1      -3.947   0.129 132.204  0.00  0.00    +0.042 C 
ATOM     25  C   LIG A   1      -7.968   1.850 126.997  0.00  0.00    +0.012 C 
ATOM     26  C   LIG A   1      -5.735  -2.550 127.145  0.00  0.00    +0.012 C 
ATOM     27  C   LIG A   1      -8.109  -0.228 129.410  0.00  0.00    +0.016 C 
ENDROOT
BRANCH  23  28
ATOM     28  O   LIG A   1      -3.078  -1.763 131.037  0.00  0.00    -0.388 OA
ATOM     29  H   LIG A   1      -2.371  -1.085 131.099  0.00  0.00    +0.210 HD
ENDBRANCH  23  28
BRANCH  15  30
ATOM     30  O   LIG A   1      -6.279   3.428 123.308  0.00  0.00    -0.389 OA
ATOM     31  H   LIG A   1      -5.522   3.647 123.889  0.00  0.00    +0.210 HD
ENDBRANCH  15  30
BRANCH  14  32
ATOM     32  O   LIG A   1      -8.779   2.704 122.373  0.00  0.00    -0.389 OA
ATOM     33  H   LIG A   1      -8.372   3.589 122.504  0.00  0.00    +0.210 HD
ENDBRANCH  14  32
BRANCH   5  34
ATOM     34  C   LIG A   1      -5.318  -4.033 130.397  0.00  0.00    +0.312 C 
ATOM     35  O   LIG A   1      -4.340  -3.770 129.733  0.00  0.00    -0.250 OA
BRANCH  34  36
ATOM     36  O   LIG A   1      -5.741  -5.313 130.465  0.00  0.00    -0.480 OA
ATOM     37  H   LIG A   1      -5.385  -5.723 129.648  0.00  0.00    +0.295 HD
ENDBRANCH  34  36
ENDBRANCH   5  34
BRANCH  13  38
ATOM     38  C   LIG A   1      -9.536  -0.179 122.957  0.00  0.00    +0.167 C 
BRANCH  38  39
ATOM     39  O   LIG A   1     -10.204   0.467 121.874  0.00  0.00    -0.394 OA
ATOM     40  H   LIG A   1      -9.694   1.288 121.691  0.00  0.00    +0.209 HD
ENDBRANCH  38  39
ENDBRANCH  13  38
BRANCH  13  41
ATOM     41  C   LIG A   1     -10.250   1.529 124.662  0.00  0.00    +0.167 C 
BRANCH  41  42
ATOM     42  O   LIG A   1     -11.481   1.194 124.027  0.00  0.00    -0.394 OA
ATOM     43  H   LIG A   1     -11.309   1.199 123.064  0.00  0.00    +0.209 HD
ENDBRANCH  41  42
ENDBRANCH  13  41
TORSDOF 9
ENDMDL
MODEL 5
REMARK VINA RESULT:      -7.9      4.066      6.327
REMARK  Name = NuBBE_432
REMARK  14 active torsions:
REMARK  status: ('A' for Active; 'I' for Inactive)
REMARK    1  A    between atoms: C_1  and  C_2
REMARK    2  A    between atoms: C_6  and  C_41
REMARK    3  A    between atoms: C_9  and  C_40
REMARK    4  A    between atoms: C_10  and  C_39
REMARK    5  A    between atoms: C_15  and  C_16
REMARK    6  A    between atoms: C_15  and  C_37
REMARK    7  A    between atoms: C_16  and  O_17
REMARK    8  A    between atoms: C_18  and  O_36
REMARK    9  A    between atoms: C_20  and  O_35
REMARK   10  A    between atoms: C_23  and  C_34
REMARK   11  A    between atoms: C_31  and  C_32
REMARK   12  A    between atoms: C_31  and  O_33
REMARK   13  A    between atoms: C_37  and  O_38
REMARK   14  A    between atoms: C_41  and  O_42
REMARK                            x       y       z     vdW  Elec       q    Type
REMARK                         _______ _______ _______ _____ _____    ______ ____
ROOT
ATOM      1  C   LIG A   1      -2.159   7.059 131.477  0.00  0.00    +0.010 C 
ATOM      2  C   LIG A   1      -3.488   6.866 130.719  0.00  0.00    +0.018 C 
ATOM      3  C   LIG A   1      -4.606   7.010 131.751  0.00  0.00    +0.007 C 
ATOM      4  C   LIG A   1      -5.968   6.737 131.150  0.00  0.00    +0.019 C 
ATOM      5  C   LIG A   1      -6.079   5.324 130.552  0.00  0.00    +0.077 C 
ATOM      6  C   LIG A   1      -7.477   5.245 129.907  0.00  0.00    +0.019 C 
ATOM      7  C   LIG A   1      -7.774   3.867 129.351  0.00  0.00    +0.012 C 
ATOM      8  C   LIG A   1      -6.690   3.280 128.400  0.00  0.00    -0.005 C 
ATOM      9  C   LIG A   1      -6.750   1.658 128.469  0.00  0.00    -0.019 C 
ATOM     10  C   LIG A   1      -8.186   1.065 128.388  0.00  0.00    +0.008 C 
ATOM     11  C   LIG A   1      -8.680   0.649 127.020  0.00  0.00    +0.005 C 
ATOM     12  C   LIG A   1      -7.693  -0.339 126.383  0.00  0.00    +0.008 C 
ATOM     13  C   LIG A   1      -8.330  -1.225 125.241  0.00  0.00    +0.049 C 
ATOM     14  C   LIG A   1      -7.223  -2.163 124.674  0.00  0.00    +0.154 C 
ATOM     15  C   LIG A   1      -5.912  -1.457 124.317  0.00  0.00    +0.144 C 
ATOM     16  C   LIG A   1      -5.345  -0.662 125.496  0.00  0.00    +0.041 C 
ATOM     17  C   LIG A   1      -6.334   0.397 126.068  0.00  0.00    -0.022 C 
ATOM     18  C   LIG A   1      -5.757   0.960 127.457  0.00  0.00    +0.006 C 
ATOM     19  C   LIG A   1      -4.396   1.702 127.390  0.00  0.00    +0.031 C 
ATOM     20  C   LIG A   1      -4.243   2.951 128.228  0.00  0.00    -0.026 C 
ATOM     21  C   LIG A   1      -5.237   3.737 128.698  0.00  0.00    -0.060 C 
ATOM     22  C   LIG A   1      -5.012   5.102 129.429  0.00  0.00    +0.064 C 
ATOM     23  C   LIG A   1      -3.533   5.550 129.859  0.00  0.00    +0.073 C 
ATOM     24  C   LIG A   1      -2.665   5.825 128.602  0.00  0.00    +0.042 C 
ATOM     25  C   LIG A   1      -6.463   1.495 124.989  0.00  0.00    +0.012 C 
ATOM     26  C   LIG A   1      -6.255   1.203 129.912  0.00  0.00    +0.012 C 
ATOM     27  C   LIG A   1      -7.022   3.887 127.020  0.00  0.00    +0.016 C 
ENDROOT
BRANCH  23  28
ATOM     28  O   LIG A   1      -2.872   4.510 130.583  0.00  0.00    -0.388 OA
ATOM     29  H   LIG A   1      -2.303   4.007 129.963  0.00  0.00    +0.210 HD
ENDBRANCH  23  28
BRANCH  15  30
ATOM     30  O   LIG A   1      -4.949  -2.449 123.936  0.00  0.00    -0.389 OA
ATOM     31  H   LIG A   1      -5.425  -3.301 124.012  0.00  0.00    +0.210 HD
ENDBRANCH  15  30
BRANCH  14  32
ATOM     32  O   LIG A   1      -7.648  -2.885 123.510  0.00  0.00    -0.389 OA
ATOM     33  H   LIG A   1      -7.065  -2.576 122.781  0.00  0.00    +0.210 HD
ENDBRANCH  14  32
BRANCH   5  34
ATOM     34  C   LIG A   1      -5.923   4.311 131.695  0.00  0.00    +0.312 C 
ATOM     35  O   LIG A   1      -5.015   3.522 131.836  0.00  0.00    -0.250 OA
BRANCH  34  36
ATOM     36  O   LIG A   1      -6.873   4.397 132.649  0.00  0.00    -0.480 OA
ATOM     37  H   LIG A   1      -6.638   3.685 133.282  0.00  0.00    +0.295 HD
ENDBRANCH  34  36
ENDBRANCH   5  34
BRANCH  13  38
ATOM     38  C   LIG A   1      -9.410  -2.170 125.877  0.00  0.00    +0.167 C 
BRANCH  38  39
ATOM     39  O   LIG A   1      -9.928  -3.105 124.933  0.00  0.00    -0.394 OA
ATOM     40  H   LIG A   1     -10.621  -2.625 124.427  0.00  0.00    +0.209 HD
ENDBRANCH  38  39
ENDBRANCH  13  38
BRANCH  13  41
ATOM     41  C   LIG A   1      -9.045  -0.357 124.171  0.00  0.00    +0.167 C 
BRANCH  41  42
ATOM     42  O   LIG A   1      -9.656  -1.115 123.131  0.00  0.00    -0.394 OA
ATOM     43  H   LIG A   1     -10.596  -1.222 123.378  0.00  0.00    +0.209 HD
ENDBRANCH  41  42
ENDBRANCH  13  41
TORSDOF 9
ENDMDL
MODEL 6
REMARK VINA RESULT:      -7.8      1.963      2.760
REMARK  Name = NuBBE_432
REMARK  14 active torsions:
REMARK  status: ('A' for Active; 'I' for Inactive)
REMARK    1  A    between atoms: C_1  and  C_2
REMARK    2  A    between atoms: C_6  and  C_41
REMARK    3  A    between atoms: C_9  and  C_40
REMARK    4  A    between atoms: C_10  and  C_39
REMARK    5  A    between atoms: C_15  and  C_16
REMARK    6  A    between atoms: C_15  and  C_37
REMARK    7  A    between atoms: C_16  and  O_17
REMARK    8  A    between atoms: C_18  and  O_36
REMARK    9  A    between atoms: C_20  and  O_35
REMARK   10  A    between atoms: C_23  and  C_34
REMARK   11  A    between atoms: C_31  and  C_32
REMARK   12  A    between atoms: C_31  and  O_33
REMARK   13  A    between atoms: C_37  and  O_38
REMARK   14  A    between atoms: C_41  and  O_42
REMARK                            x       y       z     vdW  Elec       q    Type
REMARK                         _______ _______ _______ _____ _____    ______ ____
ROOT
ATOM      1  C   LIG A   1      -6.153  -5.035 133.750  0.00  0.00    +0.010 C 
ATOM      2  C   LIG A   1      -5.385  -3.865 133.102  0.00  0.00    +0.018 C 
ATOM      3  C   LIG A   1      -5.110  -2.851 134.211  0.00  0.00    +0.007 C 
ATOM      4  C   LIG A   1      -4.448  -1.598 133.681  0.00  0.00    +0.019 C 
ATOM      5  C   LIG A   1      -5.297  -0.886 132.614  0.00  0.00    +0.077 C 
ATOM      6  C   LIG A   1      -4.448   0.301 132.118  0.00  0.00    +0.019 C 
ATOM      7  C   LIG A   1      -5.195   1.163 131.121  0.00  0.00    +0.012 C 
ATOM      8  C   LIG A   1      -5.836   0.400 129.924  0.00  0.00    -0.005 C 
ATOM      9  C   LIG A   1      -7.121   1.239 129.391  0.00  0.00    -0.019 C 
ATOM     10  C   LIG A   1      -6.868   2.765 129.229  0.00  0.00    +0.008 C 
ATOM     11  C   LIG A   1      -6.458   3.250 127.856  0.00  0.00    +0.005 C 
ATOM     12  C   LIG A   1      -7.485   2.798 126.810  0.00  0.00    +0.008 C 
ATOM     13  C   LIG A   1      -7.462   3.658 125.485  0.00  0.00    +0.049 C 
ATOM     14  C   LIG A   1      -8.534   3.085 124.510  0.00  0.00    +0.154 C 
ATOM     15  C   LIG A   1      -8.475   1.566 124.321  0.00  0.00    +0.144 C 
ATOM     16  C   LIG A   1      -8.551   0.815 125.654  0.00  0.00    +0.041 C 
ATOM     17  C   LIG A   1      -7.441   1.228 126.666  0.00  0.00    -0.022 C 
ATOM     18  C   LIG A   1      -7.783   0.602 128.106  0.00  0.00    +0.006 C 
ATOM     19  C   LIG A   1      -7.827  -0.946 128.193  0.00  0.00    +0.031 C 
ATOM     20  C   LIG A   1      -7.215  -1.591 129.416  0.00  0.00    -0.026 C 
ATOM     21  C   LIG A   1      -6.284  -1.053 130.235  0.00  0.00    -0.060 C 
ATOM     22  C   LIG A   1      -5.576  -1.827 131.396  0.00  0.00    +0.064 C 
ATOM     23  C   LIG A   1      -6.093  -3.285 131.822  0.00  0.00    +0.073 C 
ATOM     24  C   LIG A   1      -5.832  -4.306 130.683  0.00  0.00    +0.042 C 
ATOM     25  C   LIG A   1      -6.110   0.699 126.089  0.00  0.00    +0.012 C 
ATOM     26  C   LIG A   1      -8.252   1.179 130.510  0.00  0.00    +0.012 C 
ATOM     27  C   LIG A   1      -4.685   0.252 128.905  0.00  0.00    +0.016 C 
ENDROOT
BRANCH  23  28
ATOM     28  O   LIG A   1      -7.505  -3.284 132.045  0.00  0.00    -0.388 OA
ATOM     29  H   LIG A   1      -7.912  -2.591 131.482  0.00  0.00    +0.210 HD
ENDBRANCH  23  28
BRANCH  15  30
ATOM     30  O   LIG A   1      -9.588   1.164 123.513  0.00  0.00    -0.389 OA
ATOM     31  H   LIG A   1      -9.987   2.002 123.202  0.00  0.00    +0.210 HD
ENDBRANCH  15  30
BRANCH  14  32
ATOM     32  O   LIG A   1      -8.474   3.678 123.206  0.00  0.00    -0.389 OA
ATOM     33  H   LIG A   1      -8.471   2.925 122.574  0.00  0.00    +0.210 HD
ENDBRANCH  14  32
BRANCH   5  34
ATOM     34  C   LIG A   1      -6.598  -0.414 133.280  0.00  0.00    +0.312 C 
ATOM     35  O   LIG A   1      -7.719  -0.774 132.999  0.00  0.00    -0.250 OA
BRANCH  34  36
ATOM     36  O   LIG A   1      -6.417   0.425 134.321  0.00  0.00    -0.480 OA
ATOM     37  H   LIG A   1      -5.451   0.391 134.487  0.00  0.00    +0.295 HD
ENDBRANCH  34  36
ENDBRANCH   5  34
BRANCH  13  38
ATOM     38  C   LIG A   1      -7.924   5.119 125.822  0.00  0.00    +0.167 C 
BRANCH  38  39
ATOM     39  O   LIG A   1      -9.345   5.252 125.796  0.00  0.00    -0.394 OA
ATOM     40  H   LIG A   1      -9.629   4.950 124.904  0.00  0.00    +0.209 HD
ENDBRANCH  38  39
ENDBRANCH  13  38
BRANCH  13  41
ATOM     41  C   LIG A   1      -6.033   3.750 124.884  0.00  0.00    +0.167 C 
BRANCH  41  42
ATOM     42  O   LIG A   1      -5.864   4.827 123.967  0.00  0.00    -0.394 OA
ATOM     43  H   LIG A   1      -5.021   4.666 123.499  0.00  0.00    +0.209 HD
ENDBRANCH  41  42
ENDBRANCH  13  41
TORSDOF 9
ENDMDL
MODEL 7
REMARK VINA RESULT:      -7.5      3.900      5.450
REMARK  Name = NuBBE_432
REMARK  14 active torsions:
REMARK  status: ('A' for Active; 'I' for Inactive)
REMARK    1  A    between atoms: C_1  and  C_2
REMARK    2  A    between atoms: C_6  and  C_41
REMARK    3  A    between atoms: C_9  and  C_40
REMARK    4  A    between atoms: C_10  and  C_39
REMARK    5  A    between atoms: C_15  and  C_16
REMARK    6  A    between atoms: C_15  and  C_37
REMARK    7  A    between atoms: C_16  and  O_17
REMARK    8  A    between atoms: C_18  and  O_36
REMARK    9  A    between atoms: C_20  and  O_35
REMARK   10  A    between atoms: C_23  and  C_34
REMARK   11  A    between atoms: C_31  and  C_32
REMARK   12  A    between atoms: C_31  and  O_33
REMARK   13  A    between atoms: C_37  and  O_38
REMARK   14  A    between atoms: C_41  and  O_42
REMARK                            x       y       z     vdW  Elec       q    Type
REMARK                         _______ _______ _______ _____ _____    ______ ____
ROOT
ATOM      1  C   LIG A   1      -6.824   5.668 134.113  0.00  0.00    +0.010 C 
ATOM      2  C   LIG A   1      -5.859   4.797 133.282  0.00  0.00    +0.018 C 
ATOM      3  C   LIG A   1      -4.870   5.751 132.615  0.00  0.00    +0.007 C 
ATOM      4  C   LIG A   1      -3.926   5.025 131.682  0.00  0.00    +0.019 C 
ATOM      5  C   LIG A   1      -4.664   4.276 130.559  0.00  0.00    +0.077 C 
ATOM      6  C   LIG A   1      -3.577   3.524 129.765  0.00  0.00    +0.019 C 
ATOM      7  C   LIG A   1      -4.144   2.808 128.556  0.00  0.00    +0.012 C 
ATOM      8  C   LIG A   1      -5.366   1.884 128.836  0.00  0.00    -0.005 C 
ATOM      9  C   LIG A   1      -6.268   1.779 127.489  0.00  0.00    -0.019 C 
ATOM     10  C   LIG A   1      -5.452   1.530 126.189  0.00  0.00    +0.008 C 
ATOM     11  C   LIG A   1      -5.295   0.093 125.742  0.00  0.00    +0.005 C 
ATOM     12  C   LIG A   1      -6.673  -0.568 125.604  0.00  0.00    +0.008 C 
ATOM     13  C   LIG A   1      -6.675  -1.840 124.667  0.00  0.00    +0.049 C 
ATOM     14  C   LIG A   1      -8.122  -2.418 124.630  0.00  0.00    +0.154 C 
ATOM     15  C   LIG A   1      -8.770  -2.600 126.005  0.00  0.00    +0.144 C 
ATOM     16  C   LIG A   1      -8.765  -1.305 126.823  0.00  0.00    +0.041 C 
ATOM     17  C   LIG A   1      -7.343  -0.702 127.026  0.00  0.00    -0.022 C 
ATOM     18  C   LIG A   1      -7.481   0.778 127.636  0.00  0.00    +0.006 C 
ATOM     19  C   LIG A   1      -8.149   0.890 129.031  0.00  0.00    +0.031 C 
ATOM     20  C   LIG A   1      -7.541   1.862 130.017  0.00  0.00    -0.026 C 
ATOM     21  C   LIG A   1      -6.275   2.336 130.010  0.00  0.00    -0.060 C 
ATOM     22  C   LIG A   1      -5.658   3.220 131.144  0.00  0.00    +0.064 C 
ATOM     23  C   LIG A   1      -6.594   3.803 132.309  0.00  0.00    +0.073 C 
ATOM     24  C   LIG A   1      -7.136   2.650 133.195  0.00  0.00    +0.042 C 
ATOM     25  C   LIG A   1      -6.595  -1.668 127.971  0.00  0.00    +0.012 C 
ATOM     26  C   LIG A   1      -6.936   3.201 127.227  0.00  0.00    +0.012 C 
ATOM     27  C   LIG A   1      -4.740   0.554 129.308  0.00  0.00    +0.016 C 
ENDROOT
BRANCH  23  28
ATOM     28  O   LIG A   1      -7.739   4.463 131.764  0.00  0.00    -0.388 OA
ATOM     29  H   LIG A   1      -7.442   5.265 131.283  0.00  0.00    +0.210 HD
ENDBRANCH  23  28
BRANCH  15  30
ATOM     30  O   LIG A   1     -10.132  -3.008 125.816  0.00  0.00    -0.389 OA
ATOM     31  H   LIG A   1     -10.150  -3.411 124.925  0.00  0.00    +0.210 HD
ENDBRANCH  15  30
BRANCH  14  32
ATOM     32  O   LIG A   1      -8.201  -3.679 123.952  0.00  0.00    -0.389 OA
ATOM     33  H   LIG A   1      -7.367  -3.753 123.436  0.00  0.00    +0.210 HD
ENDBRANCH  14  32
BRANCH   5  34
ATOM     34  C   LIG A   1      -5.384   5.316 129.689  0.00  0.00    +0.312 C 
ATOM     35  O   LIG A   1      -6.582   5.432 129.552  0.00  0.00    -0.250 OA
BRANCH  34  36
ATOM     36  O   LIG A   1      -4.566   6.213 129.099  0.00  0.00    -0.480 OA
ATOM     37  H   LIG A   1      -4.941   6.319 128.199  0.00  0.00    +0.295 HD
ENDBRANCH  34  36
ENDBRANCH   5  34
BRANCH  13  38
ATOM     38  C   LIG A   1      -6.354  -1.388 123.200  0.00  0.00    +0.167 C 
BRANCH  38  39
ATOM     39  O   LIG A   1      -7.419  -1.691 122.300  0.00  0.00    -0.394 OA
ATOM     40  H   LIG A   1      -7.522  -2.669 122.320  0.00  0.00    +0.209 HD
ENDBRANCH  38  39
ENDBRANCH  13  38
BRANCH  13  41
ATOM     41  C   LIG A   1      -5.587  -2.865 125.087  0.00  0.00    +0.167 C 
BRANCH  41  42
ATOM     42  O   LIG A   1      -5.225  -3.774 124.051  0.00  0.00    -0.394 OA
ATOM     43  H   LIG A   1      -5.826  -3.596 123.300  0.00  0.00    +0.209 HD
ENDBRANCH  41  42
ENDBRANCH  13  41
TORSDOF 9
ENDMDL
MODEL 8
REMARK VINA RESULT:      -7.5      4.333      6.117
REMARK  Name = NuBBE_432
REMARK  14 active torsions:
REMARK  status: ('A' for Active; 'I' for Inactive)
REMARK    1  A    between atoms: C_1  and  C_2
REMARK    2  A    between atoms: C_6  and  C_41
REMARK    3  A    between atoms: C_9  and  C_40
REMARK    4  A    between atoms: C_10  and  C_39
REMARK    5  A    between atoms: C_15  and  C_16
REMARK    6  A    between atoms: C_15  and  C_37
REMARK    7  A    between atoms: C_16  and  O_17
REMARK    8  A    between atoms: C_18  and  O_36
REMARK    9  A    between atoms: C_20  and  O_35
REMARK   10  A    between atoms: C_23  and  C_34
REMARK   11  A    between atoms: C_31  and  C_32
REMARK   12  A    between atoms: C_31  and  O_33
REMARK   13  A    between atoms: C_37  and  O_38
REMARK   14  A    between atoms: C_41  and  O_42
REMARK                            x       y       z     vdW  Elec       q    Type
REMARK                         _______ _______ _______ _____ _____    ______ ____
ROOT
ATOM      1  C   LIG A   1      -2.442   5.784 133.897  0.00  0.00    +0.010 C 
ATOM      2  C   LIG A   1      -2.207   5.419 132.417  0.00  0.00    +0.018 C 
ATOM      3  C   LIG A   1      -2.178   6.734 131.640  0.00  0.00    +0.007 C 
ATOM      4  C   LIG A   1      -2.057   6.507 130.149  0.00  0.00    +0.019 C 
ATOM      5  C   LIG A   1      -3.216   5.669 129.582  0.00  0.00    +0.077 C 
ATOM      6  C   LIG A   1      -2.893   5.454 128.090  0.00  0.00    +0.019 C 
ATOM      7  C   LIG A   1      -4.002   4.717 127.365  0.00  0.00    +0.012 C 
ATOM      8  C   LIG A   1      -4.469   3.389 128.029  0.00  0.00    -0.005 C 
ATOM      9  C   LIG A   1      -6.017   3.111 127.622  0.00  0.00    -0.019 C 
ATOM     10  C   LIG A   1      -6.330   3.319 126.113  0.00  0.00    +0.008 C 
ATOM     11  C   LIG A   1      -6.272   2.095 125.225  0.00  0.00    +0.005 C 
ATOM     12  C   LIG A   1      -7.190   0.998 125.782  0.00  0.00    +0.008 C 
ATOM     13  C   LIG A   1      -7.618  -0.077 124.707  0.00  0.00    +0.049 C 
ATOM     14  C   LIG A   1      -8.527  -1.133 125.405  0.00  0.00    +0.154 C 
ATOM     15  C   LIG A   1      -7.965  -1.688 126.718  0.00  0.00    +0.144 C 
ATOM     16  C   LIG A   1      -7.624  -0.577 127.715  0.00  0.00    +0.041 C 
ATOM     17  C   LIG A   1      -6.620   0.475 127.157  0.00  0.00    -0.022 C 
ATOM     18  C   LIG A   1      -6.558   1.728 128.161  0.00  0.00    +0.006 C 
ATOM     19  C   LIG A   1      -6.051   1.437 129.598  0.00  0.00    +0.031 C 
ATOM     20  C   LIG A   1      -5.119   2.450 130.224  0.00  0.00    -0.026 C 
ATOM     21  C   LIG A   1      -4.346   3.349 129.575  0.00  0.00    -0.060 C 
ATOM     22  C   LIG A   1      -3.287   4.267 130.271  0.00  0.00    +0.064 C 
ATOM     23  C   LIG A   1      -3.213   4.339 131.872  0.00  0.00    +0.073 C 
ATOM     24  C   LIG A   1      -2.745   2.979 132.454  0.00  0.00    +0.042 C 
ATOM     25  C   LIG A   1      -5.262  -0.249 127.025  0.00  0.00    +0.012 C 
ATOM     26  C   LIG A   1      -6.922   4.213 128.332  0.00  0.00    +0.012 C 
ATOM     27  C   LIG A   1      -3.462   2.333 127.523  0.00  0.00    +0.016 C 
ENDROOT
BRANCH  23  28
ATOM     28  O   LIG A   1      -4.502   4.593 132.434  0.00  0.00    -0.388 OA
ATOM     29  H   LIG A   1      -4.767   3.821 132.977  0.00  0.00    +0.210 HD
ENDBRANCH  23  28
BRANCH  15  30
ATOM     30  O   LIG A   1      -8.954  -2.539 127.312  0.00  0.00    -0.389 OA
ATOM     31  H   LIG A   1      -9.450  -1.957 127.922  0.00  0.00    +0.210 HD
ENDBRANCH  15  30
BRANCH  14  32
ATOM     32  O   LIG A   1      -8.825  -2.255 124.563  0.00  0.00    -0.389 OA
ATOM     33  H   LIG A   1      -9.622  -2.676 124.957  0.00  0.00    +0.210 HD
ENDBRANCH  14  32
BRANCH   5  34
ATOM     34  C   LIG A   1      -4.515   6.465 129.773  0.00  0.00    +0.312 C 
ATOM     35  O   LIG A   1      -5.472   6.128 130.433  0.00  0.00    -0.250 OA
BRANCH  34  36
ATOM     36  O   LIG A   1      -4.512   7.683 129.192  0.00  0.00    -0.480 OA
ATOM     37  H   LIG A   1      -3.646   8.066 129.450  0.00  0.00    +0.295 HD
ENDBRANCH  34  36
ENDBRANCH   5  34
BRANCH  13  38
ATOM     38  C   LIG A   1      -8.517   0.617 123.626  0.00  0.00    +0.167 C 
BRANCH  38  39
ATOM     39  O   LIG A   1      -9.887   0.236 123.742  0.00  0.00    -0.394 OA
ATOM     40  H   LIG A   1     -10.306   0.465 122.882  0.00  0.00    +0.209 HD
ENDBRANCH  38  39
ENDBRANCH  13  38
BRANCH  13  41
ATOM     41  C   LIG A   1      -6.387  -0.676 123.973  0.00  0.00    +0.167 C 
BRANCH  41  42
ATOM     42  O   LIG A   1      -6.717  -1.366 122.770  0.00  0.00    -0.394 OA
ATOM     43  H   LIG A   1      -6.141  -0.997 122.070  0.00  0.00    +0.209 HD
ENDBRANCH  41  42
ENDBRANCH  13  41
TORSDOF 9
ENDMDL
MODEL 9
REMARK VINA RESULT:      -7.5      1.924      8.665
REMARK  Name = NuBBE_432
REMARK  14 active torsions:
REMARK  status: ('A' for Active; 'I' for Inactive)
REMARK    1  A    between atoms: C_1  and  C_2
REMARK    2  A    between atoms: C_6  and  C_41
REMARK    3  A    between atoms: C_9  and  C_40
REMARK    4  A    between atoms: C_10  and  C_39
REMARK    5  A    between atoms: C_15  and  C_16
REMARK    6  A    between atoms: C_15  and  C_37
REMARK    7  A    between atoms: C_16  and  O_17
REMARK    8  A    between atoms: C_18  and  O_36
REMARK    9  A    between atoms: C_20  and  O_35
REMARK   10  A    between atoms: C_23  and  C_34
REMARK   11  A    between atoms: C_31  and  C_32
REMARK   12  A    between atoms: C_31  and  O_33
REMARK   13  A    between atoms: C_37  and  O_38
REMARK   14  A    between atoms: C_41  and  O_42
REMARK                            x       y       z     vdW  Elec       q    Type
REMARK                         _______ _______ _______ _____ _____    ______ ____
ROOT
ATOM      1  C   LIG A   1      -6.338  -1.787 122.075  0.00  0.00    +0.010 C 
ATOM      2  C   LIG A   1      -6.953  -2.592 123.239  0.00  0.00    +0.018 C 
ATOM      3  C   LIG A   1      -8.440  -2.242 123.278  0.00  0.00    +0.007 C 
ATOM      4  C   LIG A   1      -9.142  -2.890 124.451  0.00  0.00    +0.019 C 
ATOM      5  C   LIG A   1      -8.541  -2.476 125.804  0.00  0.00    +0.077 C 
ATOM      6  C   LIG A   1      -9.300  -3.287 126.872  0.00  0.00    +0.019 C 
ATOM      7  C   LIG A   1      -8.881  -2.915 128.280  0.00  0.00    +0.012 C 
ATOM      8  C   LIG A   1      -7.348  -2.939 128.551  0.00  0.00    -0.005 C 
ATOM      9  C   LIG A   1      -7.006  -1.892 129.746  0.00  0.00    -0.019 C 
ATOM     10  C   LIG A   1      -7.962  -1.983 130.970  0.00  0.00    +0.008 C 
ATOM     11  C   LIG A   1      -7.520  -2.859 132.122  0.00  0.00    +0.005 C 
ATOM     12  C   LIG A   1      -6.127  -2.430 132.603  0.00  0.00    +0.008 C 
ATOM     13  C   LIG A   1      -5.798  -2.888 134.079  0.00  0.00    +0.049 C 
ATOM     14  C   LIG A   1      -4.359  -2.406 134.432  0.00  0.00    +0.154 C 
ATOM     15  C   LIG A   1      -3.300  -2.741 133.377  0.00  0.00    +0.144 C 
ATOM     16  C   LIG A   1      -3.682  -2.218 131.989  0.00  0.00    +0.041 C 
ATOM     17  C   LIG A   1      -5.060  -2.740 131.484  0.00  0.00    -0.022 C 
ATOM     18  C   LIG A   1      -5.485  -1.917 130.171  0.00  0.00    +0.006 C 
ATOM     19  C   LIG A   1      -4.550  -2.048 128.941  0.00  0.00    +0.031 C 
ATOM     20  C   LIG A   1      -5.202  -2.175 127.582  0.00  0.00    -0.026 C 
ATOM     21  C   LIG A   1      -6.459  -2.600 127.325  0.00  0.00    -0.060 C 
ATOM     22  C   LIG A   1      -7.027  -2.857 125.889  0.00  0.00    +0.064 C 
ATOM     23  C   LIG A   1      -6.184  -2.410 124.599  0.00  0.00    +0.073 C 
ATOM     24  C   LIG A   1      -4.888  -3.255 124.480  0.00  0.00    +0.042 C 
ATOM     25  C   LIG A   1      -4.877  -4.248 131.207  0.00  0.00    +0.012 C 
ATOM     26  C   LIG A   1      -7.259  -0.417 129.202  0.00  0.00    +0.012 C 
ATOM     27  C   LIG A   1      -7.038  -4.417 128.870  0.00  0.00    +0.016 C 
ENDROOT
BRANCH  23  28
ATOM     28  O   LIG A   1      -5.766  -1.047 124.707  0.00  0.00    -0.388 OA
ATOM     29  H   LIG A   1      -5.118  -0.859 123.994  0.00  0.00    +0.210 HD
ENDBRANCH  23  28
BRANCH  15  30
ATOM     30  O   LIG A   1      -2.062  -2.129 133.764  0.00  0.00    -0.389 OA
ATOM     31  H   LIG A   1      -1.372  -2.764 133.485  0.00  0.00    +0.210 HD
ENDBRANCH  15  30
BRANCH  14  32
ATOM     32  O   LIG A   1      -3.890  -2.923 135.684  0.00  0.00    -0.389 OA
ATOM     33  H   LIG A   1      -4.695  -3.057 136.232  0.00  0.00    +0.210 HD
ENDBRANCH  14  32
BRANCH   5  34
ATOM     34  C   LIG A   1      -8.760  -0.966 125.978  0.00  0.00    +0.312 C 
ATOM     35  O   LIG A   1      -7.899  -0.131 126.146  0.00  0.00    -0.250 OA
BRANCH  34  36
ATOM     36  O   LIG A   1     -10.043  -0.570 125.847  0.00  0.00    -0.480 OA
ATOM     37  H   LIG A   1     -10.030   0.019 125.063  0.00  0.00    +0.295 HD
ENDBRANCH  34  36
ENDBRANCH   5  34
BRANCH  13  38
ATOM     38  C   LIG A   1      -6.757  -2.136 135.067  0.00  0.00    +0.167 C 
BRANCH  38  39
ATOM     39  O   LIG A   1      -6.221  -0.883 135.486  0.00  0.00    -0.394 OA
ATOM     40  H   LIG A   1      -6.463  -0.236 134.785  0.00  0.00    +0.209 HD
ENDBRANCH  38  39
ENDBRANCH  13  38
BRANCH  13  41
ATOM     41  C   LIG A   1      -6.030  -4.411 134.274  0.00  0.00    +0.167 C 
BRANCH  41  42
ATOM     42  O   LIG A   1      -6.147  -4.803 135.639  0.00  0.00    -0.394 OA
ATOM     43  H   LIG A   1      -7.052  -5.158 135.751  0.00  0.00    +0.209 HD
ENDBRANCH  41  42
ENDBRANCH  13  41
TORSDOF 9
ENDMDL
