MODEL 1
REMARK VINA RESULT:      -6.0      0.000      0.000
REMARK  Name = NuBBE_2028
REMARK  5 active torsions:
REMARK  status: ('A' for Active; 'I' for Inactive)
REMARK    1  A    between atoms: O_1  and  C_2
REMARK    2  A    between atoms: C_3  and  C_4
REMARK    3  A    between atoms: C_4  and  C_5
REMARK    4  A    between atoms: C_4  and  C_6
REMARK    5  A    between atoms: C_9  and  C_10
REMARK                            x       y       z     vdW  Elec       q    Type
REMARK                         _______ _______ _______ _____ _____    ______ ____
ROOT
ATOM      1  C   LIG A   1     -10.653   7.696 129.381  0.00  0.00    +0.120 A 
ATOM      2  C   LIG A   1     -12.048   7.842 129.440  0.00  0.00    -0.003 A 
ATOM      3  C   LIG A   1     -12.709   7.269 130.541  0.00  0.00    +0.008 A 
ATOM      4  C   LIG A   1     -12.001   6.621 131.560  0.00  0.00    +0.004 A 
ATOM      5  C   LIG A   1     -10.609   6.530 131.509  0.00  0.00    -0.047 A 
ATOM      6  C   LIG A   1      -9.848   5.814 132.584  0.00  0.00    +0.044 C 
ATOM      7  C   LIG A   1      -9.942   7.062 130.403  0.00  0.00    +0.049 A 
ENDROOT
BRANCH   2   8
ATOM      8  C   LIG A   1     -12.832   8.566 128.356  0.00  0.00    +0.016 C 
ATOM      9  C   LIG A   1     -13.887   7.636 127.754  0.00  0.00    +0.012 C 
ATOM     10  C   LIG A   1     -13.480   9.876 128.821  0.00  0.00    +0.012 C 
ENDBRANCH   2   8
BRANCH   1  11
ATOM     11  O   LIG A   1      -9.896   8.145 128.336  0.00  0.00    -0.506 OA
ATOM     12  H   LIG A   1      -9.102   8.576 128.685  0.00  0.00    +0.292 HD
ENDBRANCH   1  11
TORSDOF 2
ENDMDL
MODEL 2
REMARK VINA RESULT:      -5.8      1.851      2.659
REMARK  Name = NuBBE_2028
REMARK  5 active torsions:
REMARK  status: ('A' for Active; 'I' for Inactive)
REMARK    1  A    between atoms: O_1  and  C_2
REMARK    2  A    between atoms: C_3  and  C_4
REMARK    3  A    between atoms: C_4  and  C_5
REMARK    4  A    between atoms: C_4  and  C_6
REMARK    5  A    between atoms: C_9  and  C_10
REMARK                            x       y       z     vdW  Elec       q    Type
REMARK                         _______ _______ _______ _____ _____    ______ ____
ROOT
ATOM      1  C   LIG A   1     -11.329   6.634 131.252  0.00  0.00    +0.120 A 
ATOM      2  C   LIG A   1     -11.478   7.368 130.065  0.00  0.00    -0.003 A 
ATOM      3  C   LIG A   1     -10.304   7.805 129.427  0.00  0.00    +0.008 A 
ATOM      4  C   LIG A   1      -9.038   7.482 129.928  0.00  0.00    +0.004 A 
ATOM      5  C   LIG A   1      -8.909   6.707 131.082  0.00  0.00    -0.047 A 
ATOM      6  C   LIG A   1      -7.556   6.379 131.639  0.00  0.00    +0.044 C 
ATOM      7  C   LIG A   1     -10.067   6.298 131.748  0.00  0.00    +0.049 A 
ENDROOT
BRANCH   2   8
ATOM      8  C   LIG A   1     -12.845   7.708 129.490  0.00  0.00    +0.016 C 
ATOM      9  C   LIG A   1     -12.899   9.183 129.088  0.00  0.00    +0.012 C 
ATOM     10  C   LIG A   1     -13.267   6.819 128.313  0.00  0.00    +0.012 C 
ENDBRANCH   2   8
BRANCH   1  11
ATOM     11  O   LIG A   1     -12.384   6.208 132.007  0.00  0.00    -0.506 OA
ATOM     12  H   LIG A   1     -13.129   6.813 131.878  0.00  0.00    +0.292 HD
ENDBRANCH   1  11
TORSDOF 2
ENDMDL
MODEL 3
REMARK VINA RESULT:      -5.8      1.857      4.505
REMARK  Name = NuBBE_2028
REMARK  5 active torsions:
REMARK  status: ('A' for Active; 'I' for Inactive)
REMARK    1  A    between atoms: O_1  and  C_2
REMARK    2  A    between atoms: C_3  and  C_4
REMARK    3  A    between atoms: C_4  and  C_5
REMARK    4  A    between atoms: C_4  and  C_6
REMARK    5  A    between atoms: C_9  and  C_10
REMARK                            x       y       z     vdW  Elec       q    Type
REMARK                         _______ _______ _______ _____ _____    ______ ____
ROOT
ATOM      1  C   LIG A   1     -11.697   6.953 130.887  0.00  0.00    +0.120 A 
ATOM      2  C   LIG A   1     -10.377   6.950 130.410  0.00  0.00    -0.003 A 
ATOM      3  C   LIG A   1     -10.103   7.728 129.271  0.00  0.00    +0.008 A 
ATOM      4  C   LIG A   1     -11.094   8.510 128.666  0.00  0.00    +0.004 A 
ATOM      5  C   LIG A   1     -12.389   8.539 129.186  0.00  0.00    -0.047 A 
ATOM      6  C   LIG A   1     -13.461   9.354 128.527  0.00  0.00    +0.044 C 
ATOM      7  C   LIG A   1     -12.686   7.742 130.294  0.00  0.00    +0.049 A 
ENDROOT
BRANCH   2   8
ATOM      8  C   LIG A   1      -9.280   6.127 131.070  0.00  0.00    +0.016 C 
ATOM      9  C   LIG A   1      -9.183   4.750 130.411  0.00  0.00    +0.012 C 
ATOM     10  C   LIG A   1      -7.907   6.811 131.081  0.00  0.00    +0.012 C 
ENDBRANCH   2   8
BRANCH   1  11
ATOM     11  O   LIG A   1     -12.115   6.191 131.942  0.00  0.00    -0.506 OA
ATOM     12  H   LIG A   1     -12.877   6.620 132.358  0.00  0.00    +0.292 HD
ENDBRANCH   1  11
TORSDOF 2
ENDMDL
MODEL 4
REMARK VINA RESULT:      -5.3      1.343      4.108
REMARK  Name = NuBBE_2028
REMARK  5 active torsions:
REMARK  status: ('A' for Active; 'I' for Inactive)
REMARK    1  A    between atoms: O_1  and  C_2
REMARK    2  A    between atoms: C_3  and  C_4
REMARK    3  A    between atoms: C_4  and  C_5
REMARK    4  A    between atoms: C_4  and  C_6
REMARK    5  A    between atoms: C_9  and  C_10
REMARK                            x       y       z     vdW  Elec       q    Type
REMARK                         _______ _______ _______ _____ _____    ______ ____
ROOT
ATOM      1  C   LIG A   1     -10.826   6.926 128.902  0.00  0.00    +0.120 A 
ATOM      2  C   LIG A   1     -11.011   6.381 130.182  0.00  0.00    -0.003 A 
ATOM      3  C   LIG A   1     -11.981   6.982 131.003  0.00  0.00    +0.008 A 
ATOM      4  C   LIG A   1     -12.764   8.049 130.546  0.00  0.00    +0.004 A 
ATOM      5  C   LIG A   1     -12.601   8.544 129.251  0.00  0.00    -0.047 A 
ATOM      6  C   LIG A   1     -13.417   9.704 128.764  0.00  0.00    +0.044 C 
ATOM      7  C   LIG A   1     -11.614   7.981 128.437  0.00  0.00    +0.049 A 
ENDROOT
BRANCH   2   8
ATOM      8  C   LIG A   1     -10.189   5.205 130.687  0.00  0.00    +0.016 C 
ATOM      9  C   LIG A   1      -9.842   5.397 132.165  0.00  0.00    +0.012 C 
ATOM     10  C   LIG A   1     -10.851   3.839 130.469  0.00  0.00    +0.012 C 
ENDBRANCH   2   8
BRANCH   1  11
ATOM     11  O   LIG A   1      -9.873   6.482 128.029  0.00  0.00    -0.506 OA
ATOM     12  H   LIG A   1      -9.459   7.246 127.600  0.00  0.00    +0.292 HD
ENDBRANCH   1  11
TORSDOF 2
ENDMDL
MODEL 5
REMARK VINA RESULT:      -5.2     11.122     11.859
REMARK  Name = NuBBE_2028
REMARK  5 active torsions:
REMARK  status: ('A' for Active; 'I' for Inactive)
REMARK    1  A    between atoms: O_1  and  C_2
REMARK    2  A    between atoms: C_3  and  C_4
REMARK    3  A    between atoms: C_4  and  C_5
REMARK    4  A    between atoms: C_4  and  C_6
REMARK    5  A    between atoms: C_9  and  C_10
REMARK                            x       y       z     vdW  Elec       q    Type
REMARK                         _______ _______ _______ _____ _____    ______ ____
ROOT
ATOM      1  C   LIG A   1      -9.021  -2.683 124.650  0.00  0.00    +0.120 A 
ATOM      2  C   LIG A   1      -7.825  -1.967 124.493  0.00  0.00    -0.003 A 
ATOM      3  C   LIG A   1      -6.998  -1.841 125.624  0.00  0.00    +0.008 A 
ATOM      4  C   LIG A   1      -7.331  -2.445 126.842  0.00  0.00    +0.004 A 
ATOM      5  C   LIG A   1      -8.501  -3.196 126.964  0.00  0.00    -0.047 A 
ATOM      6  C   LIG A   1      -8.877  -3.824 128.273  0.00  0.00    +0.044 C 
ATOM      7  C   LIG A   1      -9.351  -3.299 125.860  0.00  0.00    +0.049 A 
ENDROOT
BRANCH   2   8
ATOM      8  C   LIG A   1      -7.432  -1.325 123.171  0.00  0.00    +0.016 C 
ATOM      9  C   LIG A   1      -7.194   0.174 123.359  0.00  0.00    +0.012 C 
ATOM     10  C   LIG A   1      -6.218  -1.977 122.496  0.00  0.00    +0.012 C 
ENDBRANCH   2   8
BRANCH   1  11
ATOM     11  O   LIG A   1      -9.946  -2.824 123.653  0.00  0.00    -0.506 OA
ATOM     12  H   LIG A   1      -9.698  -3.578 123.098  0.00  0.00    +0.292 HD
ENDBRANCH   1  11
TORSDOF 2
ENDMDL
MODEL 6
REMARK VINA RESULT:      -5.1     11.528     12.439
REMARK  Name = NuBBE_2028
REMARK  5 active torsions:
REMARK  status: ('A' for Active; 'I' for Inactive)
REMARK    1  A    between atoms: O_1  and  C_2
REMARK    2  A    between atoms: C_3  and  C_4
REMARK    3  A    between atoms: C_4  and  C_5
REMARK    4  A    between atoms: C_4  and  C_6
REMARK    5  A    between atoms: C_9  and  C_10
REMARK                            x       y       z     vdW  Elec       q    Type
REMARK                         _______ _______ _______ _____ _____    ______ ____
ROOT
ATOM      1  C   LIG A   1      -6.213  -2.142 126.287  0.00  0.00    +0.120 A 
ATOM      2  C   LIG A   1      -6.500  -2.567 124.980  0.00  0.00    -0.003 A 
ATOM      3  C   LIG A   1      -7.620  -3.399 124.806  0.00  0.00    +0.008 A 
ATOM      4  C   LIG A   1      -8.442  -3.750 125.882  0.00  0.00    +0.004 A 
ATOM      5  C   LIG A   1      -8.171  -3.276 127.166  0.00  0.00    -0.047 A 
ATOM      6  C   LIG A   1      -9.033  -3.669 128.328  0.00  0.00    +0.044 C 
ATOM      7  C   LIG A   1      -7.040  -2.479 127.361  0.00  0.00    +0.049 A 
ENDROOT
BRANCH   2   8
ATOM      8  C   LIG A   1      -5.633  -2.175 123.793  0.00  0.00    +0.016 C 
ATOM      9  C   LIG A   1      -4.631  -3.288 123.478  0.00  0.00    +0.012 C 
ATOM     10  C   LIG A   1      -6.427  -1.800 122.535  0.00  0.00    +0.012 C 
ENDBRANCH   2   8
BRANCH   1  11
ATOM     11  O   LIG A   1      -5.120  -1.388 126.607  0.00  0.00    -0.506 OA
ATOM     12  H   LIG A   1      -5.328  -0.453 126.461  0.00  0.00    +0.292 HD
ENDBRANCH   1  11
TORSDOF 2
ENDMDL
MODEL 7
REMARK VINA RESULT:      -5.0      2.353      5.096
REMARK  Name = NuBBE_2028
REMARK  5 active torsions:
REMARK  status: ('A' for Active; 'I' for Inactive)
REMARK    1  A    between atoms: O_1  and  C_2
REMARK    2  A    between atoms: C_3  and  C_4
REMARK    3  A    between atoms: C_4  and  C_5
REMARK    4  A    between atoms: C_4  and  C_6
REMARK    5  A    between atoms: C_9  and  C_10
REMARK                            x       y       z     vdW  Elec       q    Type
REMARK                         _______ _______ _______ _____ _____    ______ ____
ROOT
ATOM      1  C   LIG A   1     -10.994   6.426 131.499  0.00  0.00    +0.120 A 
ATOM      2  C   LIG A   1      -9.684   6.158 131.923  0.00  0.00    -0.003 A 
ATOM      3  C   LIG A   1      -8.636   6.631 131.111  0.00  0.00    +0.008 A 
ATOM      4  C   LIG A   1      -8.890   7.378 129.955  0.00  0.00    +0.004 A 
ATOM      5  C   LIG A   1     -10.200   7.678 129.578  0.00  0.00    -0.047 A 
ATOM      6  C   LIG A   1     -10.478   8.455 128.327  0.00  0.00    +0.044 C 
ATOM      7  C   LIG A   1     -11.251   7.183 130.353  0.00  0.00    +0.049 A 
ENDROOT
BRANCH   2   8
ATOM      8  C   LIG A   1      -9.388   5.370 133.190  0.00  0.00    +0.016 C 
ATOM      9  C   LIG A   1      -9.265   3.879 132.870  0.00  0.00    +0.012 C 
ATOM     10  C   LIG A   1      -8.148   5.856 133.953  0.00  0.00    +0.012 C 
ENDBRANCH   2   8
BRANCH   1  11
ATOM     11  O   LIG A   1     -12.102   5.968 132.155  0.00  0.00    -0.506 OA
ATOM     12  H   LIG A   1     -11.835   5.614 133.016  0.00  0.00    +0.292 HD
ENDBRANCH   1  11
TORSDOF 2
ENDMDL
MODEL 8
REMARK VINA RESULT:      -4.9     11.248     11.880
REMARK  Name = NuBBE_2028
REMARK  5 active torsions:
REMARK  status: ('A' for Active; 'I' for Inactive)
REMARK    1  A    between atoms: O_1  and  C_2
REMARK    2  A    between atoms: C_3  and  C_4
REMARK    3  A    between atoms: C_4  and  C_5
REMARK    4  A    between atoms: C_4  and  C_6
REMARK    5  A    between atoms: C_9  and  C_10
REMARK                            x       y       z     vdW  Elec       q    Type
REMARK                         _______ _______ _______ _____ _____    ______ ____
ROOT
ATOM      1  C   LIG A   1      -8.592  -2.356 124.143  0.00  0.00    +0.120 A 
ATOM      2  C   LIG A   1      -8.313  -1.027 123.790  0.00  0.00    -0.003 A 
ATOM      3  C   LIG A   1      -6.971  -0.700 123.523  0.00  0.00    +0.008 A 
ATOM      4  C   LIG A   1      -5.963  -1.670 123.562  0.00  0.00    +0.004 A 
ATOM      5  C   LIG A   1      -6.268  -2.998 123.866  0.00  0.00    -0.047 A 
ATOM      6  C   LIG A   1      -5.188  -4.036 123.934  0.00  0.00    +0.044 C 
ATOM      7  C   LIG A   1      -7.590  -3.329 124.170  0.00  0.00    +0.049 A 
ENDROOT
BRANCH   2   8
ATOM      8  C   LIG A   1      -9.399   0.036 123.717  0.00  0.00    +0.016 C 
ATOM      9  C   LIG A   1      -8.833   1.401 124.114  0.00  0.00    +0.012 C 
ATOM     10  C   LIG A   1     -10.096   0.125 122.353  0.00  0.00    +0.012 C 
ENDBRANCH   2   8
BRANCH   1  11
ATOM     11  O   LIG A   1      -9.839  -2.793 124.492  0.00  0.00    -0.506 OA
ATOM     12  H   LIG A   1      -9.888  -3.750 124.351  0.00  0.00    +0.292 HD
ENDBRANCH   1  11
TORSDOF 2
ENDMDL
MODEL 9
REMARK VINA RESULT:      -4.8     10.805     11.547
REMARK  Name = NuBBE_2028
REMARK  5 active torsions:
REMARK  status: ('A' for Active; 'I' for Inactive)
REMARK    1  A    between atoms: O_1  and  C_2
REMARK    2  A    between atoms: C_3  and  C_4
REMARK    3  A    between atoms: C_4  and  C_5
REMARK    4  A    between atoms: C_4  and  C_6
REMARK    5  A    between atoms: C_9  and  C_10
REMARK                            x       y       z     vdW  Elec       q    Type
REMARK                         _______ _______ _______ _____ _____    ______ ____
ROOT
ATOM      1  C   LIG A   1      -7.209  -1.862 126.825  0.00  0.00    +0.120 A 
ATOM      2  C   LIG A   1      -8.028  -2.718 126.074  0.00  0.00    -0.003 A 
ATOM      3  C   LIG A   1      -8.763  -3.688 126.780  0.00  0.00    +0.008 A 
ATOM      4  C   LIG A   1      -8.715  -3.765 128.177  0.00  0.00    +0.004 A 
ATOM      5  C   LIG A   1      -7.933  -2.871 128.910  0.00  0.00    -0.047 A 
ATOM      6  C   LIG A   1      -7.858  -2.964 130.404  0.00  0.00    +0.044 C 
ATOM      7  C   LIG A   1      -7.169  -1.926 128.220  0.00  0.00    +0.049 A 
ENDROOT
BRANCH   2   8
ATOM      8  C   LIG A   1      -8.114  -2.633 124.557  0.00  0.00    +0.016 C 
ATOM      9  C   LIG A   1      -6.858  -3.233 123.921  0.00  0.00    +0.012 C 
ATOM     10  C   LIG A   1      -9.372  -3.281 123.964  0.00  0.00    +0.012 C 
ENDBRANCH   2   8
BRANCH   1  11
ATOM     11  O   LIG A   1      -6.393  -0.921 126.262  0.00  0.00    -0.506 OA
ATOM     12  H   LIG A   1      -6.880  -0.460 125.562  0.00  0.00    +0.292 HD
ENDBRANCH   1  11
TORSDOF 2
ENDMDL
