MODEL 1
REMARK VINA RESULT:      -7.8      0.000      0.000
REMARK  Name = NuBBE_2084
REMARK  5 active torsions:
REMARK  status: ('A' for Active; 'I' for Inactive)
REMARK    1  A    between atoms: C_1  and  C_2
REMARK    2  A    between atoms: C_1  and  C_18
REMARK    3  A    between atoms: C_11  and  O_13
REMARK    4  A    between atoms: O_13  and  C_14
REMARK    5  A    between atoms: C_21  and  O_24
REMARK                            x       y       z     vdW  Elec       q    Type
REMARK                         _______ _______ _______ _____ _____    ______ ____
ROOT
ATOM      1  C   LIG A   1      -7.677   5.506 133.496  0.00  0.00    +0.069 A 
ATOM      2  C   LIG A   1      -8.703   6.002 132.680  0.00  0.00    +0.069 A 
ATOM      3  C   LIG A   1      -8.475   6.620 131.454  0.00  0.00    +0.011 A 
ATOM      4  C   LIG A   1      -9.751   6.911 130.871  0.00  0.00    +0.011 A 
ATOM      5  C   LIG A   1     -10.723   6.480 131.767  0.00  0.00    +0.048 A 
ATOM      6  N   LIG A   1     -10.069   5.982 132.864  0.00  0.00    -0.353 N 
ATOM      7  H   LIG A   1     -10.534   5.602 133.671  0.00  0.00    +0.166 HD
ATOM      8  C   LIG A   1     -12.093   6.569 131.515  0.00  0.00    +0.030 A 
ATOM      9  C   LIG A   1     -12.489   7.127 130.296  0.00  0.00    +0.048 A 
ATOM     10  C   LIG A   1     -11.548   7.586 129.373  0.00  0.00    +0.121 A 
ATOM     11  C   LIG A   1     -10.178   7.484 129.654  0.00  0.00    +0.056 A 
ATOM     12  C   LIG A   1      -7.148   6.802 131.037  0.00  0.00    +0.030 A 
ATOM     13  C   LIG A   1      -6.164   6.335 131.891  0.00  0.00    +0.112 A 
ATOM     14  N   LIG A   1      -6.394   5.712 133.068  0.00  0.00    -0.258 NA
ENDROOT
BRANCH  10  15
ATOM     15  O   LIG A   1     -11.838   8.151 128.159  0.00  0.00    -0.495 OA
ATOM     16  C   LIG A   1     -10.917   7.901 127.104  0.00  0.00    +0.277 C 
ENDBRANCH  10  15
BRANCH   1  17
ATOM     17  C   LIG A   1      -7.858   4.804 134.825  0.00  0.00    +0.092 C 
BRANCH  17  18
ATOM     18  C   LIG A   1      -7.415   5.571 136.058  0.00  0.00    -0.041 A 
ATOM     19  C   LIG A   1      -8.203   6.612 136.579  0.00  0.00    +0.007 A 
ATOM     20  C   LIG A   1      -7.799   7.311 137.719  0.00  0.00    +0.045 A 
ATOM     21  C   LIG A   1      -6.610   6.962 138.350  0.00  0.00    +0.117 A 
ATOM     22  C   LIG A   1      -5.814   5.939 137.850  0.00  0.00    +0.045 A 
ATOM     23  C   LIG A   1      -6.211   5.247 136.703  0.00  0.00    +0.007 A 
BRANCH  21  24
ATOM     24  O   LIG A   1      -6.186   7.604 139.476  0.00  0.00    -0.507 OA
ATOM     25  H   LIG A   1      -5.335   8.032 139.286  0.00  0.00    +0.292 HD
ENDBRANCH  21  24
ENDBRANCH  17  18
ENDBRANCH   1  17
TORSDOF 4
ENDMDL
MODEL 2
REMARK VINA RESULT:      -7.5      1.749      2.242
REMARK  Name = NuBBE_2084
REMARK  5 active torsions:
REMARK  status: ('A' for Active; 'I' for Inactive)
REMARK    1  A    between atoms: C_1  and  C_2
REMARK    2  A    between atoms: C_1  and  C_18
REMARK    3  A    between atoms: C_11  and  O_13
REMARK    4  A    between atoms: O_13  and  C_14
REMARK    5  A    between atoms: C_21  and  O_24
REMARK                            x       y       z     vdW  Elec       q    Type
REMARK                         _______ _______ _______ _____ _____    ______ ____
ROOT
ATOM      1  C   LIG A   1      -7.651   5.504 133.408  0.00  0.00    +0.069 A 
ATOM      2  C   LIG A   1      -8.694   5.997 132.611  0.00  0.00    +0.069 A 
ATOM      3  C   LIG A   1      -8.488   6.649 131.399  0.00  0.00    +0.011 A 
ATOM      4  C   LIG A   1      -9.775   6.926 130.833  0.00  0.00    +0.011 A 
ATOM      5  C   LIG A   1     -10.730   6.452 131.725  0.00  0.00    +0.048 A 
ATOM      6  N   LIG A   1     -10.057   5.942 132.805  0.00  0.00    -0.353 N 
ATOM      7  H   LIG A   1     -10.508   5.533 133.606  0.00  0.00    +0.166 HD
ATOM      8  C   LIG A   1     -12.104   6.518 131.486  0.00  0.00    +0.030 A 
ATOM      9  C   LIG A   1     -12.521   7.096 130.284  0.00  0.00    +0.048 A 
ATOM     10  C   LIG A   1     -11.598   7.598 129.365  0.00  0.00    +0.121 A 
ATOM     11  C   LIG A   1     -10.224   7.519 129.634  0.00  0.00    +0.056 A 
ATOM     12  C   LIG A   1      -7.169   6.870 130.977  0.00  0.00    +0.030 A 
ATOM     13  C   LIG A   1      -6.168   6.405 131.812  0.00  0.00    +0.112 A 
ATOM     14  N   LIG A   1      -6.376   5.748 132.976  0.00  0.00    -0.258 NA
ENDROOT
BRANCH  10  15
ATOM     15  O   LIG A   1     -11.910   8.185 128.167  0.00  0.00    -0.495 OA
ATOM     16  C   LIG A   1     -10.941   8.072 127.131  0.00  0.00    +0.277 C 
ENDBRANCH  10  15
BRANCH   1  17
ATOM     17  C   LIG A   1      -7.806   4.767 134.720  0.00  0.00    +0.092 C 
BRANCH  17  18
ATOM     18  C   LIG A   1      -6.528   4.257 135.363  0.00  0.00    -0.041 A 
ATOM     19  C   LIG A   1      -5.931   4.953 136.429  0.00  0.00    +0.007 A 
ATOM     20  C   LIG A   1      -4.760   4.478 137.025  0.00  0.00    +0.045 A 
ATOM     21  C   LIG A   1      -4.188   3.298 136.564  0.00  0.00    +0.117 A 
ATOM     22  C   LIG A   1      -4.758   2.597 135.508  0.00  0.00    +0.045 A 
ATOM     23  C   LIG A   1      -5.922   3.077 134.904  0.00  0.00    +0.007 A 
BRANCH  21  24
ATOM     24  O   LIG A   1      -3.056   2.788 137.127  0.00  0.00    -0.507 OA
ATOM     25  H   LIG A   1      -3.250   1.894 137.455  0.00  0.00    +0.292 HD
ENDBRANCH  21  24
ENDBRANCH  17  18
ENDBRANCH   1  17
TORSDOF 4
ENDMDL
MODEL 3
REMARK VINA RESULT:      -7.5      7.532     12.242
REMARK  Name = NuBBE_2084
REMARK  5 active torsions:
REMARK  status: ('A' for Active; 'I' for Inactive)
REMARK    1  A    between atoms: C_1  and  C_2
REMARK    2  A    between atoms: C_1  and  C_18
REMARK    3  A    between atoms: C_11  and  O_13
REMARK    4  A    between atoms: O_13  and  C_14
REMARK    5  A    between atoms: C_21  and  O_24
REMARK                            x       y       z     vdW  Elec       q    Type
REMARK                         _______ _______ _______ _____ _____    ______ ____
ROOT
ATOM      1  C   LIG A   1      -6.920   3.322 123.978  0.00  0.00    +0.069 A 
ATOM      2  C   LIG A   1      -5.959   3.664 124.940  0.00  0.00    +0.069 A 
ATOM      3  C   LIG A   1      -6.273   4.270 126.153  0.00  0.00    +0.011 A 
ATOM      4  C   LIG A   1      -5.059   4.385 126.906  0.00  0.00    +0.011 A 
ATOM      5  C   LIG A   1      -4.036   3.862 126.123  0.00  0.00    +0.048 A 
ATOM      6  N   LIG A   1      -4.593   3.480 124.931  0.00  0.00    -0.353 N 
ATOM      7  H   LIG A   1      -4.074   3.069 124.174  0.00  0.00    +0.166 HD
ATOM      8  C   LIG A   1      -2.711   3.775 126.552  0.00  0.00    +0.030 A 
ATOM      9  C   LIG A   1      -2.416   4.245 127.835  0.00  0.00    +0.048 A 
ATOM     10  C   LIG A   1      -3.409   4.791 128.649  0.00  0.00    +0.121 A 
ATOM     11  C   LIG A   1      -4.733   4.866 128.191  0.00  0.00    +0.056 A 
ATOM     12  C   LIG A   1      -7.613   4.603 126.404  0.00  0.00    +0.030 A 
ATOM     13  C   LIG A   1      -8.523   4.286 125.411  0.00  0.00    +0.112 A 
ATOM     14  N   LIG A   1      -8.215   3.672 124.246  0.00  0.00    -0.258 NA
ENDROOT
BRANCH  10  15
ATOM     15  O   LIG A   1      -3.217   5.280 129.915  0.00  0.00    -0.495 OA
ATOM     16  C   LIG A   1      -4.386   5.630 130.647  0.00  0.00    +0.277 C 
ENDBRANCH  10  15
BRANCH   1  17
ATOM     17  C   LIG A   1      -6.650   2.641 122.653  0.00  0.00    +0.092 C 
BRANCH  17  18
ATOM     18  C   LIG A   1      -6.402   3.552 121.464  0.00  0.00    -0.041 A 
ATOM     19  C   LIG A   1      -7.371   3.701 120.457  0.00  0.00    +0.007 A 
ATOM     20  C   LIG A   1      -7.144   4.547 119.369  0.00  0.00    +0.045 A 
ATOM     21  C   LIG A   1      -5.952   5.256 119.290  0.00  0.00    +0.117 A 
ATOM     22  C   LIG A   1      -4.978   5.120 120.272  0.00  0.00    +0.045 A 
ATOM     23  C   LIG A   1      -5.198   4.267 121.355  0.00  0.00    +0.007 A 
BRANCH  21  24
ATOM     24  O   LIG A   1      -5.696   6.106 118.255  0.00  0.00    -0.507 OA
ATOM     25  H   LIG A   1      -4.750   6.329 118.264  0.00  0.00    +0.292 HD
ENDBRANCH  21  24
ENDBRANCH  17  18
ENDBRANCH   1  17
TORSDOF 4
ENDMDL
MODEL 4
REMARK VINA RESULT:      -7.4      9.361     12.799
REMARK  Name = NuBBE_2084
REMARK  5 active torsions:
REMARK  status: ('A' for Active; 'I' for Inactive)
REMARK    1  A    between atoms: C_1  and  C_2
REMARK    2  A    between atoms: C_1  and  C_18
REMARK    3  A    between atoms: C_11  and  O_13
REMARK    4  A    between atoms: O_13  and  C_14
REMARK    5  A    between atoms: C_21  and  O_24
REMARK                            x       y       z     vdW  Elec       q    Type
REMARK                         _______ _______ _______ _____ _____    ______ ____
ROOT
ATOM      1  C   LIG A   1      -9.219   0.632 123.752  0.00  0.00    +0.069 A 
ATOM      2  C   LIG A   1      -8.872   0.059 124.983  0.00  0.00    +0.069 A 
ATOM      3  C   LIG A   1      -8.704  -1.310 125.171  0.00  0.00    +0.011 A 
ATOM      4  C   LIG A   1      -8.269  -1.512 126.521  0.00  0.00    +0.011 A 
ATOM      5  C   LIG A   1      -8.202  -0.262 127.126  0.00  0.00    +0.048 A 
ATOM      6  N   LIG A   1      -8.614   0.659 126.197  0.00  0.00    -0.353 N 
ATOM      7  H   LIG A   1      -8.665   1.648 126.372  0.00  0.00    +0.166 HD
ATOM      8  C   LIG A   1      -7.777  -0.068 128.441  0.00  0.00    +0.030 A 
ATOM      9  C   LIG A   1      -7.408  -1.200 129.173  0.00  0.00    +0.048 A 
ATOM     10  C   LIG A   1      -7.473  -2.475 128.610  0.00  0.00    +0.121 A 
ATOM     11  C   LIG A   1      -7.905  -2.640 127.286  0.00  0.00    +0.056 A 
ATOM     12  C   LIG A   1      -8.944  -2.165 124.084  0.00  0.00    +0.030 A 
ATOM     13  C   LIG A   1      -9.324  -1.562 122.898  0.00  0.00    +0.112 A 
ATOM     14  N   LIG A   1      -9.459  -0.229 122.716  0.00  0.00    -0.258 NA
ENDROOT
BRANCH  10  15
ATOM     15  O   LIG A   1      -7.138  -3.641 129.248  0.00  0.00    -0.495 OA
ATOM     16  C   LIG A   1      -6.188  -3.540 130.302  0.00  0.00    +0.277 C 
ENDBRANCH  10  15
BRANCH   1  17
ATOM     17  C   LIG A   1      -9.392   2.110 123.475  0.00  0.00    +0.092 C 
BRANCH  17  18
ATOM     18  C   LIG A   1      -8.385   2.743 122.531  0.00  0.00    -0.041 A 
ATOM     19  C   LIG A   1      -8.800   3.320 121.318  0.00  0.00    +0.007 A 
ATOM     20  C   LIG A   1      -7.873   3.909 120.455  0.00  0.00    +0.045 A 
ATOM     21  C   LIG A   1      -6.529   3.934 120.808  0.00  0.00    +0.117 A 
ATOM     22  C   LIG A   1      -6.096   3.365 121.999  0.00  0.00    +0.045 A 
ATOM     23  C   LIG A   1      -7.020   2.765 122.858  0.00  0.00    +0.007 A 
BRANCH  21  24
ATOM     24  O   LIG A   1      -5.592   4.514 120.005  0.00  0.00    -0.507 OA
ATOM     25  H   LIG A   1      -6.046   5.093 119.369  0.00  0.00    +0.292 HD
ENDBRANCH  21  24
ENDBRANCH  17  18
ENDBRANCH   1  17
TORSDOF 4
ENDMDL
MODEL 5
REMARK VINA RESULT:      -7.4      8.597     11.092
REMARK  Name = NuBBE_2084
REMARK  5 active torsions:
REMARK  status: ('A' for Active; 'I' for Inactive)
REMARK    1  A    between atoms: C_1  and  C_2
REMARK    2  A    between atoms: C_1  and  C_18
REMARK    3  A    between atoms: C_11  and  O_13
REMARK    4  A    between atoms: O_13  and  C_14
REMARK    5  A    between atoms: C_21  and  O_24
REMARK                            x       y       z     vdW  Elec       q    Type
REMARK                         _______ _______ _______ _____ _____    ______ ____
ROOT
ATOM      1  C   LIG A   1      -6.630  -2.133 128.624  0.00  0.00    +0.069 A 
ATOM      2  C   LIG A   1      -7.293  -1.060 129.236  0.00  0.00    +0.069 A 
ATOM      3  C   LIG A   1      -7.670  -1.059 130.576  0.00  0.00    +0.011 A 
ATOM      4  C   LIG A   1      -8.237   0.226 130.864  0.00  0.00    +0.011 A 
ATOM      5  C   LIG A   1      -8.207   0.965 129.687  0.00  0.00    +0.048 A 
ATOM      6  N   LIG A   1      -7.681   0.155 128.714  0.00  0.00    -0.353 N 
ATOM      7  H   LIG A   1      -7.547   0.439 127.759  0.00  0.00    +0.166 HD
ATOM      8  C   LIG A   1      -8.648   2.286 129.599  0.00  0.00    +0.030 A 
ATOM      9  C   LIG A   1      -9.145   2.878 130.764  0.00  0.00    +0.048 A 
ATOM     10  C   LIG A   1      -9.206   2.169 131.964  0.00  0.00    +0.121 A 
ATOM     11  C   LIG A   1      -8.757   0.842 132.022  0.00  0.00    +0.056 A 
ATOM     12  C   LIG A   1      -7.420  -2.208 131.340  0.00  0.00    +0.030 A 
ATOM     13  C   LIG A   1      -6.802  -3.260 130.687  0.00  0.00    +0.112 A 
ATOM     14  N   LIG A   1      -6.414  -3.245 129.391  0.00  0.00    -0.258 NA
ENDROOT
BRANCH  10  15
ATOM     15  O   LIG A   1      -9.680   2.661 133.153  0.00  0.00    -0.495 OA
ATOM     16  C   LIG A   1      -8.861   3.617 133.817  0.00  0.00    +0.277 C 
ENDBRANCH  10  15
BRANCH   1  17
ATOM     17  C   LIG A   1      -6.172  -2.190 127.183  0.00  0.00    +0.092 C 
BRANCH  17  18
ATOM     18  C   LIG A   1      -7.232  -2.534 126.151  0.00  0.00    -0.041 A 
ATOM     19  C   LIG A   1      -6.902  -2.637 124.788  0.00  0.00    +0.007 A 
ATOM     20  C   LIG A   1      -7.876  -2.962 123.841  0.00  0.00    +0.045 A 
ATOM     21  C   LIG A   1      -9.182  -3.198 124.256  0.00  0.00    +0.117 A 
ATOM     22  C   LIG A   1      -9.531  -3.096 125.597  0.00  0.00    +0.045 A 
ATOM     23  C   LIG A   1      -8.560  -2.760 126.543  0.00  0.00    +0.007 A 
BRANCH  21  24
ATOM     24  O   LIG A   1     -10.161  -3.536 123.369  0.00  0.00    -0.507 OA
ATOM     25  H   LIG A   1     -10.626  -4.320 123.705  0.00  0.00    +0.292 HD
ENDBRANCH  21  24
ENDBRANCH  17  18
ENDBRANCH   1  17
TORSDOF 4
ENDMDL
MODEL 6
REMARK VINA RESULT:      -7.4      9.667     10.812
REMARK  Name = NuBBE_2084
REMARK  5 active torsions:
REMARK  status: ('A' for Active; 'I' for Inactive)
REMARK    1  A    between atoms: C_1  and  C_2
REMARK    2  A    between atoms: C_1  and  C_18
REMARK    3  A    between atoms: C_11  and  O_13
REMARK    4  A    between atoms: O_13  and  C_14
REMARK    5  A    between atoms: C_21  and  O_24
REMARK                            x       y       z     vdW  Elec       q    Type
REMARK                         _______ _______ _______ _____ _____    ______ ____
ROOT
ATOM      1  C   LIG A   1      -8.435  -2.641 126.807  0.00  0.00    +0.069 A 
ATOM      2  C   LIG A   1      -8.437  -1.408 126.140  0.00  0.00    +0.069 A 
ATOM      3  C   LIG A   1      -8.571  -1.285 124.760  0.00  0.00    +0.011 A 
ATOM      4  C   LIG A   1      -8.618   0.114 124.453  0.00  0.00    +0.011 A 
ATOM      5  C   LIG A   1      -8.493   0.805 125.652  0.00  0.00    +0.048 A 
ATOM      6  N   LIG A   1      -8.338  -0.129 126.643  0.00  0.00    -0.353 N 
ATOM      7  H   LIG A   1      -8.224   0.098 127.616  0.00  0.00    +0.166 HD
ATOM      8  C   LIG A   1      -8.533   2.197 125.743  0.00  0.00    +0.030 A 
ATOM      9  C   LIG A   1      -8.705   2.916 124.557  0.00  0.00    +0.048 A 
ATOM     10  C   LIG A   1      -8.821   2.264 123.328  0.00  0.00    +0.121 A 
ATOM     11  C   LIG A   1      -8.776   0.863 123.268  0.00  0.00    +0.056 A 
ATOM     12  C   LIG A   1      -8.656  -2.456 123.992  0.00  0.00    +0.030 A 
ATOM     13  C   LIG A   1      -8.609  -3.653 124.685  0.00  0.00    +0.112 A 
ATOM     14  N   LIG A   1      -8.506  -3.765 126.029  0.00  0.00    -0.258 NA
ENDROOT
BRANCH  10  15
ATOM     15  O   LIG A   1      -8.987   2.880 122.116  0.00  0.00    -0.495 OA
ATOM     16  C   LIG A   1      -7.820   3.427 121.514  0.00  0.00    +0.277 C 
ENDBRANCH  10  15
BRANCH   1  17
ATOM     17  C   LIG A   1      -8.319  -2.843 128.302  0.00  0.00    +0.092 C 
BRANCH  17  18
ATOM     18  C   LIG A   1      -6.917  -3.052 128.848  0.00  0.00    -0.041 A 
ATOM     19  C   LIG A   1      -6.694  -3.884 129.958  0.00  0.00    +0.007 A 
ATOM     20  C   LIG A   1      -5.402  -4.081 130.453  0.00  0.00    +0.045 A 
ATOM     21  C   LIG A   1      -4.328  -3.456 129.831  0.00  0.00    +0.117 A 
ATOM     22  C   LIG A   1      -4.527  -2.625 128.735  0.00  0.00    +0.045 A 
ATOM     23  C   LIG A   1      -5.818  -2.418 128.246  0.00  0.00    +0.007 A 
BRANCH  21  24
ATOM     24  O   LIG A   1      -3.049  -3.635 130.269  0.00  0.00    -0.507 OA
ATOM     25  H   LIG A   1      -2.830  -2.917 130.886  0.00  0.00    +0.292 HD
ENDBRANCH  21  24
ENDBRANCH  17  18
ENDBRANCH   1  17
TORSDOF 4
ENDMDL
MODEL 7
REMARK VINA RESULT:      -7.1      5.300      8.182
REMARK  Name = NuBBE_2084
REMARK  5 active torsions:
REMARK  status: ('A' for Active; 'I' for Inactive)
REMARK    1  A    between atoms: C_1  and  C_2
REMARK    2  A    between atoms: C_1  and  C_18
REMARK    3  A    between atoms: C_11  and  O_13
REMARK    4  A    between atoms: O_13  and  C_14
REMARK    5  A    between atoms: C_21  and  O_24
REMARK                            x       y       z     vdW  Elec       q    Type
REMARK                         _______ _______ _______ _____ _____    ______ ____
ROOT
ATOM      1  C   LIG A   1      -8.851   4.840 129.367  0.00  0.00    +0.069 A 
ATOM      2  C   LIG A   1      -8.767   3.504 129.784  0.00  0.00    +0.069 A 
ATOM      3  C   LIG A   1      -8.223   2.490 129.000  0.00  0.00    +0.011 A 
ATOM      4  C   LIG A   1      -8.226   1.290 129.783  0.00  0.00    +0.011 A 
ATOM      5  C   LIG A   1      -8.789   1.600 131.015  0.00  0.00    +0.048 A 
ATOM      6  N   LIG A   1      -9.149   2.922 130.973  0.00  0.00    -0.353 N 
ATOM      7  H   LIG A   1      -9.584   3.410 131.738  0.00  0.00    +0.166 HD
ATOM      8  C   LIG A   1      -8.922   0.676 132.052  0.00  0.00    +0.030 A 
ATOM      9  C   LIG A   1      -8.463  -0.623 131.821  0.00  0.00    +0.048 A 
ATOM     10  C   LIG A   1      -7.904  -0.983 130.594  0.00  0.00    +0.121 A 
ATOM     11  C   LIG A   1      -7.784  -0.033 129.569  0.00  0.00    +0.056 A 
ATOM     12  C   LIG A   1      -7.782   2.812 127.708  0.00  0.00    +0.030 A 
ATOM     13  C   LIG A   1      -7.921   4.133 127.320  0.00  0.00    +0.112 A 
ATOM     14  N   LIG A   1      -8.426   5.118 128.096  0.00  0.00    -0.258 NA
ENDROOT
BRANCH  10  15
ATOM     15  O   LIG A   1      -7.431  -2.229 130.272  0.00  0.00    -0.495 OA
ATOM     16  C   LIG A   1      -8.239  -3.010 129.399  0.00  0.00    +0.277 C 
ENDBRANCH  10  15
BRANCH   1  17
ATOM     17  C   LIG A   1      -9.407   5.991 130.176  0.00  0.00    +0.092 C 
BRANCH  17  18
ATOM     18  C   LIG A   1     -10.611   6.708 129.591  0.00  0.00    -0.041 A 
ATOM     19  C   LIG A   1     -11.894   6.140 129.668  0.00  0.00    +0.007 A 
ATOM     20  C   LIG A   1     -13.002   6.805 129.138  0.00  0.00    +0.045 A 
ATOM     21  C   LIG A   1     -12.832   8.047 128.538  0.00  0.00    +0.117 A 
ATOM     22  C   LIG A   1     -11.571   8.625 128.446  0.00  0.00    +0.045 A 
ATOM     23  C   LIG A   1     -10.461   7.956 128.966  0.00  0.00    +0.007 A 
BRANCH  21  24
ATOM     24  O   LIG A   1     -13.887   8.740 128.023  0.00  0.00    -0.507 OA
ATOM     25  H   LIG A   1     -13.855   8.677 127.053  0.00  0.00    +0.292 HD
ENDBRANCH  21  24
ENDBRANCH  17  18
ENDBRANCH   1  17
TORSDOF 4
ENDMDL
MODEL 8
REMARK VINA RESULT:      -7.0      8.582     10.950
REMARK  Name = NuBBE_2084
REMARK  5 active torsions:
REMARK  status: ('A' for Active; 'I' for Inactive)
REMARK    1  A    between atoms: C_1  and  C_2
REMARK    2  A    between atoms: C_1  and  C_18
REMARK    3  A    between atoms: C_11  and  O_13
REMARK    4  A    between atoms: O_13  and  C_14
REMARK    5  A    between atoms: C_21  and  O_24
REMARK                            x       y       z     vdW  Elec       q    Type
REMARK                         _______ _______ _______ _____ _____    ______ ____
ROOT
ATOM      1  C   LIG A   1      -6.192   0.169 125.026  0.00  0.00    +0.069 A 
ATOM      2  C   LIG A   1      -5.524   1.234 125.647  0.00  0.00    +0.069 A 
ATOM      3  C   LIG A   1      -5.865   2.570 125.451  0.00  0.00    +0.011 A 
ATOM      4  C   LIG A   1      -5.032   3.359 126.308  0.00  0.00    +0.011 A 
ATOM      5  C   LIG A   1      -4.193   2.485 126.990  0.00  0.00    +0.048 A 
ATOM      6  N   LIG A   1      -4.475   1.221 126.541  0.00  0.00    -0.353 N 
ATOM      7  H   LIG A   1      -4.010   0.392 126.868  0.00  0.00    +0.166 HD
ATOM      8  C   LIG A   1      -3.264   2.901 127.945  0.00  0.00    +0.030 A 
ATOM      9  C   LIG A   1      -3.185   4.270 128.213  0.00  0.00    +0.048 A 
ATOM     10  C   LIG A   1      -3.998   5.185 127.543  0.00  0.00    +0.121 A 
ATOM     11  C   LIG A   1      -4.922   4.738 126.587  0.00  0.00    +0.056 A 
ATOM     12  C   LIG A   1      -6.895   2.868 124.546  0.00  0.00    +0.030 A 
ATOM     13  C   LIG A   1      -7.500   1.790 123.924  0.00  0.00    +0.112 A 
ATOM     14  N   LIG A   1      -7.182   0.494 124.140  0.00  0.00    -0.258 NA
ENDROOT
BRANCH  10  15
ATOM     15  O   LIG A   1      -3.990   6.542 127.734  0.00  0.00    -0.495 OA
ATOM     16  C   LIG A   1      -2.782   7.108 128.231  0.00  0.00    +0.277 C 
ENDBRANCH  10  15
BRANCH   1  17
ATOM     17  C   LIG A   1      -5.889  -1.301 125.215  0.00  0.00    +0.092 C 
BRANCH  17  18
ATOM     18  C   LIG A   1      -6.890  -2.096 126.035  0.00  0.00    -0.041 A 
ATOM     19  C   LIG A   1      -7.847  -2.912 125.408  0.00  0.00    +0.007 A 
ATOM     20  C   LIG A   1      -8.761  -3.650 126.164  0.00  0.00    +0.045 A 
ATOM     21  C   LIG A   1      -8.713  -3.584 127.551  0.00  0.00    +0.117 A 
ATOM     22  C   LIG A   1      -7.778  -2.779 128.192  0.00  0.00    +0.045 A 
ATOM     23  C   LIG A   1      -6.871  -2.033 127.437  0.00  0.00    +0.007 A 
BRANCH  21  24
ATOM     24  O   LIG A   1      -9.573  -4.301 128.329  0.00  0.00    -0.507 OA
ATOM     25  H   LIG A   1     -10.464  -4.236 127.946  0.00  0.00    +0.292 HD
ENDBRANCH  21  24
ENDBRANCH  17  18
ENDBRANCH   1  17
TORSDOF 4
ENDMDL
MODEL 9
REMARK VINA RESULT:      -7.0      2.721      7.272
REMARK  Name = NuBBE_2084
REMARK  5 active torsions:
REMARK  status: ('A' for Active; 'I' for Inactive)
REMARK    1  A    between atoms: C_1  and  C_2
REMARK    2  A    between atoms: C_1  and  C_18
REMARK    3  A    between atoms: C_11  and  O_13
REMARK    4  A    between atoms: O_13  and  C_14
REMARK    5  A    between atoms: C_21  and  O_24
REMARK                            x       y       z     vdW  Elec       q    Type
REMARK                         _______ _______ _______ _____ _____    ______ ____
ROOT
ATOM      1  C   LIG A   1      -9.065   4.825 131.791  0.00  0.00    +0.069 A 
ATOM      2  C   LIG A   1      -7.820   5.469 131.829  0.00  0.00    +0.069 A 
ATOM      3  C   LIG A   1      -6.973   5.434 132.933  0.00  0.00    +0.011 A 
ATOM      4  C   LIG A   1      -5.768   6.121 132.575  0.00  0.00    +0.011 A 
ATOM      5  C   LIG A   1      -5.921   6.573 131.269  0.00  0.00    +0.048 A 
ATOM      6  N   LIG A   1      -7.178   6.210 130.860  0.00  0.00    -0.353 N 
ATOM      7  H   LIG A   1      -7.554   6.415 129.950  0.00  0.00    +0.166 HD
ATOM      8  C   LIG A   1      -4.924   7.258 130.572  0.00  0.00    +0.030 A 
ATOM      9  C   LIG A   1      -3.719   7.496 131.239  0.00  0.00    +0.048 A 
ATOM     10  C   LIG A   1      -3.527   7.074 132.555  0.00  0.00    +0.121 A 
ATOM     11  C   LIG A   1      -4.547   6.388 133.230  0.00  0.00    +0.056 A 
ATOM     12  C   LIG A   1      -7.409   4.764 134.085  0.00  0.00    +0.030 A 
ATOM     13  C   LIG A   1      -8.660   4.177 134.021  0.00  0.00    +0.112 A 
ATOM     14  N   LIG A   1      -9.467   4.192 132.936  0.00  0.00    -0.258 NA
ENDROOT
BRANCH  10  15
ATOM     15  O   LIG A   1      -2.387   7.264 133.291  0.00  0.00    -0.495 OA
ATOM     16  C   LIG A   1      -1.155   6.961 132.647  0.00  0.00    +0.277 C 
ENDBRANCH  10  15
BRANCH   1  17
ATOM     17  C   LIG A   1     -10.021   4.803 130.618  0.00  0.00    +0.092 C 
BRANCH  17  18
ATOM     18  C   LIG A   1     -10.830   6.066 130.384  0.00  0.00    -0.041 A 
ATOM     19  C   LIG A   1     -11.946   6.364 131.185  0.00  0.00    +0.007 A 
ATOM     20  C   LIG A   1     -12.684   7.531 130.973  0.00  0.00    +0.045 A 
ATOM     21  C   LIG A   1     -12.302   8.411 129.967  0.00  0.00    +0.117 A 
ATOM     22  C   LIG A   1     -11.205   8.133 129.160  0.00  0.00    +0.045 A 
ATOM     23  C   LIG A   1     -10.472   6.961 129.363  0.00  0.00    +0.007 A 
BRANCH  21  24
ATOM     24  O   LIG A   1     -12.981   9.570 129.737  0.00  0.00    -0.507 OA
ATOM     25  H   LIG A   1     -13.491   9.793 130.534  0.00  0.00    +0.292 HD
ENDBRANCH  21  24
ENDBRANCH  17  18
ENDBRANCH   1  17
TORSDOF 4
ENDMDL
