MODEL 1
REMARK VINA RESULT:      -7.6      0.000      0.000
REMARK  Name = NuBBE_2352
REMARK  8 active torsions:
REMARK  status: ('A' for Active; 'I' for Inactive)
REMARK    1  A    between atoms: C_1  and  C_2
REMARK    2  A    between atoms: C_2  and  C_3
REMARK    3  A    between atoms: C_2  and  C_4
REMARK    4  A    between atoms: C_5  and  O_6
REMARK    5  A    between atoms: C_15  and  C_16
REMARK    6  A    between atoms: C_19  and  O_21
REMARK    7  A    between atoms: C_22  and  C_23
REMARK    8  A    between atoms: C_22  and  C_24
REMARK                            x       y       z     vdW  Elec       q    Type
REMARK                         _______ _______ _______ _____ _____    ______ ____
ROOT
ATOM      1  C   LIG A   1      -8.349  -1.644 126.552  0.00  0.00    +0.000 A 
ATOM      2  C   LIG A   1      -9.163  -2.763 126.287  0.00  0.00    +0.120 A 
ATOM      3  C   LIG A   1      -9.167  -3.880 127.113  0.00  0.00    +0.046 A 
ATOM      4  C   LIG A   1      -8.358  -3.906 128.242  0.00  0.00    +0.008 A 
ATOM      5  C   LIG A   1      -7.494  -2.840 128.548  0.00  0.00    -0.037 A 
ATOM      6  C   LIG A   1      -7.470  -1.716 127.672  0.00  0.00    -0.037 A 
ATOM      7  C   LIG A   1      -6.483  -0.625 127.997  0.00  0.00    +0.036 C 
ATOM      8  C   LIG A   1      -5.174  -1.242 128.457  0.00  0.00    +0.009 C 
ATOM      9  C   LIG A   1      -5.331  -1.994 129.790  0.00  0.00    +0.008 C 
ATOM     10  C   LIG A   1      -6.672  -2.840 129.871  0.00  0.00    -0.003 C 
ATOM     11  C   LIG A   1      -7.613  -2.162 130.913  0.00  0.00    +0.016 C 
ATOM     12  C   LIG A   1      -6.405  -4.284 130.384  0.00  0.00    +0.014 C 
ATOM     13  C   LIG A   1      -5.460  -4.409 131.574  0.00  0.00    +0.033 C 
ATOM     14  C   LIG A   1      -4.227  -3.513 131.528  0.00  0.00    +0.121 C 
ATOM     15  C   LIG A   1      -4.009  -2.748 130.198  0.00  0.00    -0.005 C 
ATOM     16  C   LIG A   1      -2.864  -1.719 130.417  0.00  0.00    +0.014 C 
ATOM     17  C   LIG A   1      -3.504  -3.720 129.105  0.00  0.00    +0.014 C 
ENDROOT
BRANCH   1  19
ATOM     18  C   LIG A   1      -8.961   0.852 126.275  0.00  0.00    +0.012 C 
ATOM     19  C   LIG A   1      -8.473  -0.441 125.611  0.00  0.00    +0.017 C 
ATOM     20  C   LIG A   1      -7.214  -0.232 124.767  0.00  0.00    +0.012 C 
ENDBRANCH   1  19
BRANCH   2  21
ATOM     21  O   LIG A   1      -9.979  -2.761 125.187  0.00  0.00    -0.506 OA
ATOM     22  H   LIG A   1     -10.640  -3.465 125.282  0.00  0.00    +0.292 HD
ENDBRANCH   2  21
BRANCH  14  23
ATOM     23  O   LIG A   1      -4.300  -2.608 132.637  0.00  0.00    -0.391 OA
ATOM     24  H   LIG A   1      -4.796  -1.820 132.365  0.00  0.00    +0.210 HD
ENDBRANCH  14  23
TORSDOF 3
ENDMDL
MODEL 2
REMARK VINA RESULT:      -7.5      1.627      2.077
REMARK  Name = NuBBE_2352
REMARK  8 active torsions:
REMARK  status: ('A' for Active; 'I' for Inactive)
REMARK    1  A    between atoms: C_1  and  C_2
REMARK    2  A    between atoms: C_2  and  C_3
REMARK    3  A    between atoms: C_2  and  C_4
REMARK    4  A    between atoms: C_5  and  O_6
REMARK    5  A    between atoms: C_15  and  C_16
REMARK    6  A    between atoms: C_19  and  O_21
REMARK    7  A    between atoms: C_22  and  C_23
REMARK    8  A    between atoms: C_22  and  C_24
REMARK                            x       y       z     vdW  Elec       q    Type
REMARK                         _______ _______ _______ _____ _____    ______ ____
ROOT
ATOM      1  C   LIG A   1      -7.338  -2.706 125.173  0.00  0.00    +0.000 A 
ATOM      2  C   LIG A   1      -8.605  -3.319 125.092  0.00  0.00    +0.120 A 
ATOM      3  C   LIG A   1      -9.377  -3.562 126.221  0.00  0.00    +0.046 A 
ATOM      4  C   LIG A   1      -8.905  -3.187 127.472  0.00  0.00    +0.008 A 
ATOM      5  C   LIG A   1      -7.636  -2.604 127.633  0.00  0.00    -0.037 A 
ATOM      6  C   LIG A   1      -6.836  -2.396 126.471  0.00  0.00    -0.037 A 
ATOM      7  C   LIG A   1      -5.457  -1.831 126.690  0.00  0.00    +0.036 C 
ATOM      8  C   LIG A   1      -4.836  -2.468 127.921  0.00  0.00    +0.009 C 
ATOM      9  C   LIG A   1      -5.589  -2.087 129.207  0.00  0.00    +0.008 C 
ATOM     10  C   LIG A   1      -7.167  -2.095 129.028  0.00  0.00    -0.003 C 
ATOM     11  C   LIG A   1      -7.671  -0.622 129.094  0.00  0.00    +0.016 C 
ATOM     12  C   LIG A   1      -7.868  -2.860 130.186  0.00  0.00    +0.014 C 
ATOM     13  C   LIG A   1      -7.354  -2.567 131.591  0.00  0.00    +0.033 C 
ATOM     14  C   LIG A   1      -5.839  -2.461 131.726  0.00  0.00    +0.121 C 
ATOM     15  C   LIG A   1      -5.029  -2.854 130.464  0.00  0.00    -0.005 C 
ATOM     16  C   LIG A   1      -3.544  -2.459 130.703  0.00  0.00    +0.014 C 
ATOM     17  C   LIG A   1      -5.037  -4.392 130.288  0.00  0.00    +0.014 C 
ENDROOT
BRANCH   1  19
ATOM     18  C   LIG A   1      -6.525  -0.949 123.462  0.00  0.00    +0.012 C 
ATOM     19  C   LIG A   1      -6.602  -2.428 123.859  0.00  0.00    +0.017 C 
ATOM     20  C   LIG A   1      -5.244  -3.128 123.794  0.00  0.00    +0.012 C 
ENDBRANCH   1  19
BRANCH   2  21
ATOM     21  O   LIG A   1      -9.099  -3.690 123.870  0.00  0.00    -0.506 OA
ATOM     22  H   LIG A   1      -9.577  -2.940 123.481  0.00  0.00    +0.292 HD
ENDBRANCH   2  21
BRANCH  14  23
ATOM     23  O   LIG A   1      -5.527  -1.125 132.143  0.00  0.00    -0.391 OA
ATOM     24  H   LIG A   1      -5.509  -1.097 133.112  0.00  0.00    +0.210 HD
ENDBRANCH  14  23
TORSDOF 3
ENDMDL
MODEL 3
REMARK VINA RESULT:      -7.4      1.554      6.601
REMARK  Name = NuBBE_2352
REMARK  8 active torsions:
REMARK  status: ('A' for Active; 'I' for Inactive)
REMARK    1  A    between atoms: C_1  and  C_2
REMARK    2  A    between atoms: C_2  and  C_3
REMARK    3  A    between atoms: C_2  and  C_4
REMARK    4  A    between atoms: C_5  and  O_6
REMARK    5  A    between atoms: C_15  and  C_16
REMARK    6  A    between atoms: C_19  and  O_21
REMARK    7  A    between atoms: C_22  and  C_23
REMARK    8  A    between atoms: C_22  and  C_24
REMARK                            x       y       z     vdW  Elec       q    Type
REMARK                         _______ _______ _______ _____ _____    ______ ____
ROOT
ATOM      1  C   LIG A   1      -6.508  -2.549 129.420  0.00  0.00    +0.000 A 
ATOM      2  C   LIG A   1      -5.340  -1.792 129.640  0.00  0.00    +0.120 A 
ATOM      3  C   LIG A   1      -4.932  -0.798 128.759  0.00  0.00    +0.046 A 
ATOM      4  C   LIG A   1      -5.693  -0.524 127.629  0.00  0.00    +0.008 A 
ATOM      5  C   LIG A   1      -6.849  -1.264 127.327  0.00  0.00    -0.037 A 
ATOM      6  C   LIG A   1      -7.236  -2.308 128.218  0.00  0.00    -0.037 A 
ATOM      7  C   LIG A   1      -8.442  -3.121 127.826  0.00  0.00    +0.036 C 
ATOM      8  C   LIG A   1      -8.413  -3.387 126.332  0.00  0.00    +0.009 C 
ATOM      9  C   LIG A   1      -8.571  -2.093 125.515  0.00  0.00    +0.008 C 
ATOM     10  C   LIG A   1      -7.745  -0.876 126.114  0.00  0.00    -0.003 C 
ATOM     11  C   LIG A   1      -8.757   0.159 126.693  0.00  0.00    +0.016 C 
ATOM     12  C   LIG A   1      -6.934  -0.139 125.011  0.00  0.00    +0.014 C 
ATOM     13  C   LIG A   1      -7.671   0.129 123.703  0.00  0.00    +0.033 C 
ATOM     14  C   LIG A   1      -8.541  -1.015 123.194  0.00  0.00    +0.121 C 
ATOM     15  C   LIG A   1      -8.405  -2.350 123.970  0.00  0.00    -0.005 C 
ATOM     16  C   LIG A   1      -9.522  -3.311 123.473  0.00  0.00    +0.014 C 
ATOM     17  C   LIG A   1      -7.064  -3.036 123.610  0.00  0.00    +0.014 C 
ENDROOT
BRANCH   1  19
ATOM     18  C   LIG A   1      -5.885  -4.708 130.696  0.00  0.00    +0.012 C 
ATOM     19  C   LIG A   1      -6.897  -3.575 130.489  0.00  0.00    +0.017 C 
ATOM     20  C   LIG A   1      -7.320  -2.914 131.803  0.00  0.00    +0.012 C 
ENDBRANCH   1  19
BRANCH   2  21
ATOM     21  O   LIG A   1      -4.577  -2.033 130.752  0.00  0.00    -0.506 OA
ATOM     22  H   LIG A   1      -3.961  -1.294 130.879  0.00  0.00    +0.292 HD
ENDBRANCH   2  21
BRANCH  14  23
ATOM     23  O   LIG A   1      -9.901  -0.562 123.184  0.00  0.00    -0.391 OA
ATOM     24  H   LIG A   1     -10.458  -1.237 123.603  0.00  0.00    +0.210 HD
ENDBRANCH  14  23
TORSDOF 3
ENDMDL
MODEL 4
REMARK VINA RESULT:      -7.3      4.585      6.606
REMARK  Name = NuBBE_2352
REMARK  8 active torsions:
REMARK  status: ('A' for Active; 'I' for Inactive)
REMARK    1  A    between atoms: C_1  and  C_2
REMARK    2  A    between atoms: C_2  and  C_3
REMARK    3  A    between atoms: C_2  and  C_4
REMARK    4  A    between atoms: C_5  and  O_6
REMARK    5  A    between atoms: C_15  and  C_16
REMARK    6  A    between atoms: C_19  and  O_21
REMARK    7  A    between atoms: C_22  and  C_23
REMARK    8  A    between atoms: C_22  and  C_24
REMARK                            x       y       z     vdW  Elec       q    Type
REMARK                         _______ _______ _______ _____ _____    ______ ____
ROOT
ATOM      1  C   LIG A   1      -6.218   3.051 125.492  0.00  0.00    +0.000 A 
ATOM      2  C   LIG A   1      -6.995   3.911 124.690  0.00  0.00    +0.120 A 
ATOM      3  C   LIG A   1      -8.025   3.436 123.887  0.00  0.00    +0.046 A 
ATOM      4  C   LIG A   1      -8.314   2.077 123.870  0.00  0.00    +0.008 A 
ATOM      5  C   LIG A   1      -7.557   1.157 124.616  0.00  0.00    -0.037 A 
ATOM      6  C   LIG A   1      -6.479   1.652 125.406  0.00  0.00    -0.037 A 
ATOM      7  C   LIG A   1      -5.650   0.629 126.138  0.00  0.00    +0.036 C 
ATOM      8  C   LIG A   1      -5.429  -0.581 125.247  0.00  0.00    +0.009 C 
ATOM      9  C   LIG A   1      -6.744  -1.325 124.954  0.00  0.00    +0.008 C 
ATOM     10  C   LIG A   1      -7.961  -0.346 124.667  0.00  0.00    -0.003 C 
ATOM     11  C   LIG A   1      -8.955  -0.442 125.864  0.00  0.00    +0.016 C 
ATOM     12  C   LIG A   1      -8.749  -0.774 123.396  0.00  0.00    +0.014 C 
ATOM     13  C   LIG A   1      -9.040  -2.265 123.258  0.00  0.00    +0.033 C 
ATOM     14  C   LIG A   1      -7.891  -3.195 123.636  0.00  0.00    +0.121 C 
ATOM     15  C   LIG A   1      -6.537  -2.497 123.921  0.00  0.00    -0.005 C 
ATOM     16  C   LIG A   1      -5.566  -3.556 124.516  0.00  0.00    +0.014 C 
ATOM     17  C   LIG A   1      -5.893  -2.028 122.594  0.00  0.00    +0.014 C 
ENDROOT
BRANCH   1  19
ATOM     18  C   LIG A   1      -5.351   3.466 127.891  0.00  0.00    +0.012 C 
ATOM     19  C   LIG A   1      -5.152   3.691 126.387  0.00  0.00    +0.017 C 
ATOM     20  C   LIG A   1      -3.731   3.363 125.924  0.00  0.00    +0.012 C 
ENDBRANCH   1  19
BRANCH   2  21
ATOM     21  O   LIG A   1      -6.739   5.256 124.695  0.00  0.00    -0.506 OA
ATOM     22  H   LIG A   1      -7.458   5.713 125.160  0.00  0.00    +0.292 HD
ENDBRANCH   2  21
BRANCH  14  23
ATOM     23  O   LIG A   1      -8.313  -3.980 124.759  0.00  0.00    -0.391 OA
ATOM     24  H   LIG A   1      -8.169  -3.467 125.570  0.00  0.00    +0.210 HD
ENDBRANCH  14  23
TORSDOF 3
ENDMDL
MODEL 5
REMARK VINA RESULT:      -7.2      1.899      6.241
REMARK  Name = NuBBE_2352
REMARK  8 active torsions:
REMARK  status: ('A' for Active; 'I' for Inactive)
REMARK    1  A    between atoms: C_1  and  C_2
REMARK    2  A    between atoms: C_2  and  C_3
REMARK    3  A    between atoms: C_2  and  C_4
REMARK    4  A    between atoms: C_5  and  O_6
REMARK    5  A    between atoms: C_15  and  C_16
REMARK    6  A    between atoms: C_19  and  O_21
REMARK    7  A    between atoms: C_22  and  C_23
REMARK    8  A    between atoms: C_22  and  C_24
REMARK                            x       y       z     vdW  Elec       q    Type
REMARK                         _______ _______ _______ _____ _____    ______ ____
ROOT
ATOM      1  C   LIG A   1      -6.307  -2.622 128.966  0.00  0.00    +0.000 A 
ATOM      2  C   LIG A   1      -7.339  -3.248 129.693  0.00  0.00    +0.120 A 
ATOM      3  C   LIG A   1      -8.502  -3.697 129.080  0.00  0.00    +0.046 A 
ATOM      4  C   LIG A   1      -8.662  -3.541 127.709  0.00  0.00    +0.008 A 
ATOM      5  C   LIG A   1      -7.691  -2.892 126.926  0.00  0.00    -0.037 A 
ATOM      6  C   LIG A   1      -6.519  -2.401 127.574  0.00  0.00    -0.037 A 
ATOM      7  C   LIG A   1      -5.533  -1.654 126.714  0.00  0.00    +0.036 C 
ATOM      8  C   LIG A   1      -6.281  -0.759 125.741  0.00  0.00    +0.009 C 
ATOM      9  C   LIG A   1      -7.099  -1.575 124.725  0.00  0.00    +0.008 C 
ATOM     10  C   LIG A   1      -7.839  -2.819 125.378  0.00  0.00    -0.003 C 
ATOM     11  C   LIG A   1      -7.153  -4.119 124.859  0.00  0.00    +0.016 C 
ATOM     12  C   LIG A   1      -9.329  -2.892 124.938  0.00  0.00    +0.014 C 
ATOM     13  C   LIG A   1      -9.603  -2.650 123.457  0.00  0.00    +0.033 C 
ATOM     14  C   LIG A   1      -8.807  -1.516 122.820  0.00  0.00    +0.121 C 
ATOM     15  C   LIG A   1      -7.980  -0.648 123.803  0.00  0.00    -0.005 C 
ATOM     16  C   LIG A   1      -7.062   0.286 122.965  0.00  0.00    +0.014 C 
ATOM     17  C   LIG A   1      -8.920   0.285 124.604  0.00  0.00    +0.014 C 
ENDROOT
BRANCH   1  19
ATOM     18  C   LIG A   1      -3.765  -2.948 129.294  0.00  0.00    +0.012 C 
ATOM     19  C   LIG A   1      -5.043  -2.224 129.734  0.00  0.00    +0.017 C 
ATOM     20  C   LIG A   1      -4.863  -0.706 129.813  0.00  0.00    +0.012 C 
ENDBRANCH   1  19
BRANCH   2  21
ATOM     21  O   LIG A   1      -7.203  -3.425 131.044  0.00  0.00    -0.506 OA
ATOM     22  H   LIG A   1      -7.064  -2.561 131.464  0.00  0.00    +0.292 HD
ENDBRANCH   2  21
BRANCH  14  23
ATOM     23  O   LIG A   1      -7.970  -2.082 121.804  0.00  0.00    -0.391 OA
ATOM     24  H   LIG A   1      -8.067  -1.560 120.992  0.00  0.00    +0.210 HD
ENDBRANCH  14  23
TORSDOF 3
ENDMDL
MODEL 6
REMARK VINA RESULT:      -7.0      7.002      8.797
REMARK  Name = NuBBE_2352
REMARK  8 active torsions:
REMARK  status: ('A' for Active; 'I' for Inactive)
REMARK    1  A    between atoms: C_1  and  C_2
REMARK    2  A    between atoms: C_2  and  C_3
REMARK    3  A    between atoms: C_2  and  C_4
REMARK    4  A    between atoms: C_5  and  O_6
REMARK    5  A    between atoms: C_15  and  C_16
REMARK    6  A    between atoms: C_19  and  O_21
REMARK    7  A    between atoms: C_22  and  C_23
REMARK    8  A    between atoms: C_22  and  C_24
REMARK                            x       y       z     vdW  Elec       q    Type
REMARK                         _______ _______ _______ _____ _____    ______ ____
ROOT
ATOM      1  C   LIG A   1     -11.269   6.763 129.383  0.00  0.00    +0.000 A 
ATOM      2  C   LIG A   1     -12.246   7.312 130.237  0.00  0.00    +0.120 A 
ATOM      3  C   LIG A   1     -12.216   7.112 131.612  0.00  0.00    +0.046 A 
ATOM      4  C   LIG A   1     -11.196   6.357 132.176  0.00  0.00    +0.008 A 
ATOM      5  C   LIG A   1     -10.209   5.748 131.381  0.00  0.00    -0.037 A 
ATOM      6  C   LIG A   1     -10.272   5.929 129.969  0.00  0.00    -0.037 A 
ATOM      7  C   LIG A   1      -9.237   5.206 129.147  0.00  0.00    +0.036 C 
ATOM      8  C   LIG A   1      -9.017   3.815 129.712  0.00  0.00    +0.009 C 
ATOM      9  C   LIG A   1      -8.393   3.859 131.118  0.00  0.00    +0.008 C 
ATOM     10  C   LIG A   1      -9.015   4.994 132.038  0.00  0.00    -0.003 C 
ATOM     11  C   LIG A   1      -7.931   6.093 132.253  0.00  0.00    +0.016 C 
ATOM     12  C   LIG A   1      -9.383   4.448 133.447  0.00  0.00    +0.014 C 
ATOM     13  C   LIG A   1      -8.349   3.542 134.106  0.00  0.00    +0.033 C 
ATOM     14  C   LIG A   1      -7.686   2.524 133.184  0.00  0.00    +0.121 C 
ATOM     15  C   LIG A   1      -8.291   2.424 131.760  0.00  0.00    -0.005 C 
ATOM     16  C   LIG A   1      -7.353   1.529 130.901  0.00  0.00    +0.014 C 
ATOM     17  C   LIG A   1      -9.650   1.685 131.813  0.00  0.00    +0.014 C 
ENDROOT
BRANCH   1  19
ATOM     18  C   LIG A   1     -12.766   6.975 127.287  0.00  0.00    +0.012 C 
ATOM     19  C   LIG A   1     -11.363   7.102 127.892  0.00  0.00    +0.017 C 
ATOM     20  C   LIG A   1     -10.694   8.436 127.556  0.00  0.00    +0.012 C 
ENDBRANCH   1  19
BRANCH   2  21
ATOM     21  O   LIG A   1     -13.257   8.069 129.709  0.00  0.00    -0.506 OA
ATOM     22  H   LIG A   1     -13.632   7.607 128.943  0.00  0.00    +0.292 HD
ENDBRANCH   2  21
BRANCH  14  23
ATOM     23  O   LIG A   1      -6.286   2.826 133.129  0.00  0.00    -0.391 OA
ATOM     24  H   LIG A   1      -6.075   3.454 133.837  0.00  0.00    +0.210 HD
ENDBRANCH  14  23
TORSDOF 3
ENDMDL
MODEL 7
REMARK VINA RESULT:      -6.6      4.036      6.682
REMARK  Name = NuBBE_2352
REMARK  8 active torsions:
REMARK  status: ('A' for Active; 'I' for Inactive)
REMARK    1  A    between atoms: C_1  and  C_2
REMARK    2  A    between atoms: C_2  and  C_3
REMARK    3  A    between atoms: C_2  and  C_4
REMARK    4  A    between atoms: C_5  and  O_6
REMARK    5  A    between atoms: C_15  and  C_16
REMARK    6  A    between atoms: C_19  and  O_21
REMARK    7  A    between atoms: C_22  and  C_23
REMARK    8  A    between atoms: C_22  and  C_24
REMARK                            x       y       z     vdW  Elec       q    Type
REMARK                         _______ _______ _______ _____ _____    ______ ____
ROOT
ATOM      1  C   LIG A   1      -6.776   2.830 126.901  0.00  0.00    +0.000 A 
ATOM      2  C   LIG A   1      -6.016   3.544 125.954  0.00  0.00    +0.120 A 
ATOM      3  C   LIG A   1      -5.932   3.143 124.626  0.00  0.00    +0.046 A 
ATOM      4  C   LIG A   1      -6.617   2.011 124.203  0.00  0.00    +0.008 A 
ATOM      5  C   LIG A   1      -7.365   1.229 125.101  0.00  0.00    -0.037 A 
ATOM      6  C   LIG A   1      -7.412   1.630 126.469  0.00  0.00    -0.037 A 
ATOM      7  C   LIG A   1      -8.168   0.730 127.412  0.00  0.00    +0.036 C 
ATOM      8  C   LIG A   1      -7.885  -0.722 127.068  0.00  0.00    +0.009 C 
ATOM      9  C   LIG A   1      -8.441  -1.102 125.685  0.00  0.00    +0.008 C 
ATOM     10  C   LIG A   1      -8.211   0.026 124.591  0.00  0.00    -0.003 C 
ATOM     11  C   LIG A   1      -9.595   0.646 124.234  0.00  0.00    +0.016 C 
ATOM     12  C   LIG A   1      -7.634  -0.567 123.274  0.00  0.00    +0.014 C 
ATOM     13  C   LIG A   1      -8.278  -1.858 122.781  0.00  0.00    +0.033 C 
ATOM     14  C   LIG A   1      -8.586  -2.891 123.860  0.00  0.00    +0.121 C 
ATOM     15  C   LIG A   1      -8.030  -2.566 125.270  0.00  0.00    -0.005 C 
ATOM     16  C   LIG A   1      -8.637  -3.587 126.273  0.00  0.00    +0.014 C 
ATOM     17  C   LIG A   1      -6.500  -2.798 125.301  0.00  0.00    +0.014 C 
ENDROOT
BRANCH   1  19
ATOM     18  C   LIG A   1      -8.261   3.779 128.792  0.00  0.00    +0.012 C 
ATOM     19  C   LIG A   1      -6.851   3.399 128.322  0.00  0.00    +0.017 C 
ATOM     20  C   LIG A   1      -6.105   2.531 129.336  0.00  0.00    +0.012 C 
ENDBRANCH   1  19
BRANCH   2  21
ATOM     21  O   LIG A   1      -5.339   4.670 126.340  0.00  0.00    -0.506 OA
ATOM     22  H   LIG A   1      -5.951   5.265 126.803  0.00  0.00    +0.292 HD
ENDBRANCH   2  21
BRANCH  14  23
ATOM     23  O   LIG A   1     -10.007  -3.077 123.897  0.00  0.00    -0.391 OA
ATOM     24  H   LIG A   1     -10.438  -2.225 123.722  0.00  0.00    +0.210 HD
ENDBRANCH  14  23
TORSDOF 3
ENDMDL
MODEL 8
REMARK VINA RESULT:      -6.6      1.891      3.747
REMARK  Name = NuBBE_2352
REMARK  8 active torsions:
REMARK  status: ('A' for Active; 'I' for Inactive)
REMARK    1  A    between atoms: C_1  and  C_2
REMARK    2  A    between atoms: C_2  and  C_3
REMARK    3  A    between atoms: C_2  and  C_4
REMARK    4  A    between atoms: C_5  and  O_6
REMARK    5  A    between atoms: C_15  and  C_16
REMARK    6  A    between atoms: C_19  and  O_21
REMARK    7  A    between atoms: C_22  and  C_23
REMARK    8  A    between atoms: C_22  and  C_24
REMARK                            x       y       z     vdW  Elec       q    Type
REMARK                         _______ _______ _______ _____ _____    ______ ____
ROOT
ATOM      1  C   LIG A   1      -8.673  -0.928 124.448  0.00  0.00    +0.000 A 
ATOM      2  C   LIG A   1      -9.510   0.206 124.446  0.00  0.00    +0.120 A 
ATOM      3  C   LIG A   1      -9.527   1.108 125.503  0.00  0.00    +0.046 A 
ATOM      4  C   LIG A   1      -8.695   0.904 126.597  0.00  0.00    +0.008 A 
ATOM      5  C   LIG A   1      -7.861  -0.226 126.683  0.00  0.00    -0.037 A 
ATOM      6  C   LIG A   1      -7.881  -1.164 125.609  0.00  0.00    -0.037 A 
ATOM      7  C   LIG A   1      -7.024  -2.393 125.768  0.00  0.00    +0.036 C 
ATOM      8  C   LIG A   1      -7.112  -2.893 127.199  0.00  0.00    +0.009 C 
ATOM      9  C   LIG A   1      -6.496  -1.894 128.195  0.00  0.00    +0.008 C 
ATOM     10  C   LIG A   1      -6.860  -0.384 127.865  0.00  0.00    -0.003 C 
ATOM     11  C   LIG A   1      -5.564   0.332 127.376  0.00  0.00    +0.016 C 
ATOM     12  C   LIG A   1      -7.340   0.377 129.133  0.00  0.00    +0.014 C 
ATOM     13  C   LIG A   1      -6.527   0.145 130.402  0.00  0.00    +0.033 C 
ATOM     14  C   LIG A   1      -6.098  -1.297 130.651  0.00  0.00    +0.121 C 
ATOM     15  C   LIG A   1      -6.707  -2.349 129.688  0.00  0.00    -0.005 C 
ATOM     16  C   LIG A   1      -5.983  -3.702 129.934  0.00  0.00    +0.014 C 
ATOM     17  C   LIG A   1      -8.194  -2.592 130.043  0.00  0.00    +0.014 C 
ENDROOT
BRANCH   1  19
ATOM     18  C   LIG A   1      -7.332  -1.978 122.504  0.00  0.00    +0.012 C 
ATOM     19  C   LIG A   1      -8.688  -1.819 123.202  0.00  0.00    +0.017 C 
ATOM     20  C   LIG A   1      -9.383  -3.159 123.453  0.00  0.00    +0.012 C 
ENDBRANCH   1  19
BRANCH   2  21
ATOM     21  O   LIG A   1     -10.332   0.438 123.377  0.00  0.00    -0.506 OA
ATOM     22  H   LIG A   1      -9.946   0.030 122.586  0.00  0.00    +0.292 HD
ENDBRANCH   2  21
BRANCH  14  23
ATOM     23  O   LIG A   1      -4.666  -1.341 130.622  0.00  0.00    -0.391 OA
ATOM     24  H   LIG A   1      -4.353  -0.831 129.859  0.00  0.00    +0.210 HD
ENDBRANCH  14  23
TORSDOF 3
ENDMDL
MODEL 9
REMARK VINA RESULT:      -6.5      7.237      8.806
REMARK  Name = NuBBE_2352
REMARK  8 active torsions:
REMARK  status: ('A' for Active; 'I' for Inactive)
REMARK    1  A    between atoms: C_1  and  C_2
REMARK    2  A    between atoms: C_2  and  C_3
REMARK    3  A    between atoms: C_2  and  C_4
REMARK    4  A    between atoms: C_5  and  O_6
REMARK    5  A    between atoms: C_15  and  C_16
REMARK    6  A    between atoms: C_19  and  O_21
REMARK    7  A    between atoms: C_22  and  C_23
REMARK    8  A    between atoms: C_22  and  C_24
REMARK                            x       y       z     vdW  Elec       q    Type
REMARK                         _______ _______ _______ _____ _____    ______ ____
ROOT
ATOM      1  C   LIG A   1      -8.388   4.292 131.105  0.00  0.00    +0.000 A 
ATOM      2  C   LIG A   1      -8.804   3.768 129.865  0.00  0.00    +0.120 A 
ATOM      3  C   LIG A   1      -7.929   3.629 128.795  0.00  0.00    +0.046 A 
ATOM      4  C   LIG A   1      -6.600   4.005 128.939  0.00  0.00    +0.008 A 
ATOM      5  C   LIG A   1      -6.124   4.571 130.135  0.00  0.00    -0.037 A 
ATOM      6  C   LIG A   1      -7.041   4.744 131.213  0.00  0.00    -0.037 A 
ATOM      7  C   LIG A   1      -6.508   5.413 132.453  0.00  0.00    +0.036 C 
ATOM      8  C   LIG A   1      -5.591   6.558 132.061  0.00  0.00    +0.009 C 
ATOM      9  C   LIG A   1      -4.322   6.058 131.349  0.00  0.00    +0.008 C 
ATOM     10  C   LIG A   1      -4.610   4.889 130.314  0.00  0.00    -0.003 C 
ATOM     11  C   LIG A   1      -3.999   3.574 130.884  0.00  0.00    +0.016 C 
ATOM     12  C   LIG A   1      -3.911   5.152 128.949  0.00  0.00    +0.014 C 
ATOM     13  C   LIG A   1      -2.471   5.647 129.018  0.00  0.00    +0.033 C 
ATOM     14  C   LIG A   1      -2.189   6.697 130.088  0.00  0.00    +0.121 C 
ATOM     15  C   LIG A   1      -3.437   7.250 130.822  0.00  0.00    -0.005 C 
ATOM     16  C   LIG A   1      -2.947   8.112 132.021  0.00  0.00    +0.014 C 
ATOM     17  C   LIG A   1      -4.212   8.216 129.894  0.00  0.00    +0.014 C 
ENDROOT
BRANCH   1  19
ATOM     18  C   LIG A   1      -9.074   3.492 133.464  0.00  0.00    +0.012 C 
ATOM     19  C   LIG A   1      -9.422   4.340 132.235  0.00  0.00    +0.017 C 
ATOM     20  C   LIG A   1      -9.820   5.772 132.599  0.00  0.00    +0.012 C 
ENDBRANCH   1  19
BRANCH   2  21
ATOM     21  O   LIG A   1     -10.107   3.378 129.698  0.00  0.00    -0.506 OA
ATOM     22  H   LIG A   1     -10.153   2.728 128.979  0.00  0.00    +0.292 HD
ENDBRANCH   2  21
BRANCH  14  23
ATOM     23  O   LIG A   1      -1.251   6.138 131.017  0.00  0.00    -0.391 OA
ATOM     24  H   LIG A   1      -1.428   5.188 131.106  0.00  0.00    +0.210 HD
ENDBRANCH  14  23
TORSDOF 3
ENDMDL
