MODEL 1
REMARK VINA RESULT:      -7.1      0.000      0.000
REMARK  Name = NuBBE_150
REMARK  5 active torsions:
REMARK  status: ('A' for Active; 'I' for Inactive)
REMARK    1  A    between atoms: C_2  and  C_3
REMARK    2  A    between atoms: C_2  and  O_15
REMARK    3  A    between atoms: C_8  and  C_9
REMARK    4  A    between atoms: C_8  and  C_14
REMARK    5  A    between atoms: O_15  and  C_16
REMARK                            x       y       z     vdW  Elec       q    Type
REMARK                         _______ _______ _______ _____ _____    ______ ____
ROOT
ATOM      1  C   LIG A   1      -9.394   6.347 131.799  0.00  0.00    +0.060 A 
ATOM      2  C   LIG A   1     -10.671   6.174 132.351  0.00  0.00    +0.018 A 
ATOM      3  C   LIG A   1     -11.797   6.618 131.663  0.00  0.00    +0.047 A 
ATOM      4  C   LIG A   1     -11.658   7.238 130.423  0.00  0.00    +0.129 A 
ATOM      5  O   LIG A   1     -12.824   7.634 129.836  0.00  0.00    -0.482 OA
ATOM      6  C   LIG A   1     -12.776   8.276 128.549  0.00  0.00    +0.123 C 
ATOM      7  C   LIG A   1     -13.614   7.405 127.608  0.00  0.00    +0.060 C 
ATOM      8  C   LIG A   1     -11.396   8.471 127.959  0.00  0.00    +0.020 C 
ATOM      9  C   LIG A   1     -10.273   8.071 128.564  0.00  0.00    +0.011 C 
ATOM     10  C   LIG A   1     -10.393   7.419 129.858  0.00  0.00    +0.017 A 
ATOM     11  C   LIG A   1      -9.259   6.971 130.550  0.00  0.00    +0.026 A 
ATOM     12  C   LIG A   1     -13.450   9.641 128.732  0.00  0.00    +0.060 C 
ENDROOT
BRANCH   1  14
ATOM     13  O   LIG A   1      -7.147   5.522 131.937  0.00  0.00    -0.245 OA
ATOM     14  C   LIG A   1      -8.173   5.868 132.502  0.00  0.00    +0.339 C 
BRANCH  14  15
ATOM     15  O   LIG A   1      -8.389   5.864 133.840  0.00  0.00    -0.465 OA
ATOM     16  C   LIG A   1      -8.073   4.639 134.501  0.00  0.00    +0.280 C 
ENDBRANCH  14  15
ENDBRANCH   1  14
TORSDOF 2
ENDMDL
MODEL 2
REMARK VINA RESULT:      -6.8      1.445      5.810
REMARK  Name = NuBBE_150
REMARK  5 active torsions:
REMARK  status: ('A' for Active; 'I' for Inactive)
REMARK    1  A    between atoms: C_2  and  C_3
REMARK    2  A    between atoms: C_2  and  O_15
REMARK    3  A    between atoms: C_8  and  C_9
REMARK    4  A    between atoms: C_8  and  C_14
REMARK    5  A    between atoms: O_15  and  C_16
REMARK                            x       y       z     vdW  Elec       q    Type
REMARK                         _______ _______ _______ _____ _____    ______ ____
ROOT
ATOM      1  C   LIG A   1     -11.150   7.718 129.681  0.00  0.00    +0.060 A 
ATOM      2  C   LIG A   1     -12.035   7.163 130.615  0.00  0.00    +0.018 A 
ATOM      3  C   LIG A   1     -11.545   6.433 131.696  0.00  0.00    +0.047 A 
ATOM      4  C   LIG A   1     -10.173   6.251 131.850  0.00  0.00    +0.129 A 
ATOM      5  O   LIG A   1      -9.802   5.520 132.941  0.00  0.00    -0.482 OA
ATOM      6  C   LIG A   1      -8.402   5.289 133.184  0.00  0.00    +0.123 C 
ATOM      7  C   LIG A   1      -8.108   5.881 134.567  0.00  0.00    +0.060 C 
ATOM      8  C   LIG A   1      -7.449   5.882 132.170  0.00  0.00    +0.020 C 
ATOM      9  C   LIG A   1      -7.849   6.592 131.110  0.00  0.00    +0.011 C 
ATOM     10  C   LIG A   1      -9.276   6.797 130.929  0.00  0.00    +0.017 A 
ATOM     11  C   LIG A   1      -9.769   7.534 129.842  0.00  0.00    +0.026 A 
ATOM     12  C   LIG A   1      -8.225   3.767 133.223  0.00  0.00    +0.060 C 
ENDROOT
BRANCH   1  14
ATOM     13  O   LIG A   1     -12.720   9.091 128.499  0.00  0.00    -0.245 OA
ATOM     14  C   LIG A   1     -11.641   8.518 128.526  0.00  0.00    +0.339 C 
BRANCH  14  15
ATOM     15  O   LIG A   1     -10.723   8.493 127.530  0.00  0.00    -0.465 OA
ATOM     16  C   LIG A   1     -11.032   7.620 126.444  0.00  0.00    +0.280 C 
ENDBRANCH  14  15
ENDBRANCH   1  14
TORSDOF 2
ENDMDL
MODEL 3
REMARK VINA RESULT:      -6.5      2.198      5.805
REMARK  Name = NuBBE_150
REMARK  5 active torsions:
REMARK  status: ('A' for Active; 'I' for Inactive)
REMARK    1  A    between atoms: C_2  and  C_3
REMARK    2  A    between atoms: C_2  and  O_15
REMARK    3  A    between atoms: C_8  and  C_9
REMARK    4  A    between atoms: C_8  and  C_14
REMARK    5  A    between atoms: O_15  and  C_16
REMARK                            x       y       z     vdW  Elec       q    Type
REMARK                         _______ _______ _______ _____ _____    ______ ____
ROOT
ATOM      1  C   LIG A   1     -12.198   8.595 129.155  0.00  0.00    +0.060 A 
ATOM      2  C   LIG A   1     -11.530   8.215 127.982  0.00  0.00    +0.018 A 
ATOM      3  C   LIG A   1     -10.623   7.159 128.004  0.00  0.00    +0.047 A 
ATOM      4  C   LIG A   1     -10.372   6.478 129.193  0.00  0.00    +0.129 A 
ATOM      5  O   LIG A   1      -9.466   5.463 129.103  0.00  0.00    -0.482 OA
ATOM      6  C   LIG A   1      -9.153   4.699 130.282  0.00  0.00    +0.123 C 
ATOM      7  C   LIG A   1      -9.507   3.245 129.953  0.00  0.00    +0.060 C 
ATOM      8  C   LIG A   1      -9.866   5.116 131.549  0.00  0.00    +0.020 C 
ATOM      9  C   LIG A   1     -10.749   6.120 131.600  0.00  0.00    +0.011 C 
ATOM     10  C   LIG A   1     -11.028   6.844 130.371  0.00  0.00    +0.017 A 
ATOM     11  C   LIG A   1     -11.944   7.905 130.349  0.00  0.00    +0.026 A 
ATOM     12  C   LIG A   1      -7.638   4.832 130.481  0.00  0.00    +0.060 C 
ENDROOT
BRANCH   1  14
ATOM     13  O   LIG A   1     -13.887  10.005 128.204  0.00  0.00    -0.245 OA
ATOM     14  C   LIG A   1     -13.186   9.707 129.159  0.00  0.00    +0.339 C 
BRANCH  14  15
ATOM     15  O   LIG A   1     -13.169  10.328 130.364  0.00  0.00    -0.465 OA
ATOM     16  C   LIG A   1     -13.527  11.709 130.338  0.00  0.00    +0.280 C 
ENDBRANCH  14  15
ENDBRANCH   1  14
TORSDOF 2
ENDMDL
MODEL 4
REMARK VINA RESULT:      -6.4     10.017     11.258
REMARK  Name = NuBBE_150
REMARK  5 active torsions:
REMARK  status: ('A' for Active; 'I' for Inactive)
REMARK    1  A    between atoms: C_2  and  C_3
REMARK    2  A    between atoms: C_2  and  O_15
REMARK    3  A    between atoms: C_8  and  C_9
REMARK    4  A    between atoms: C_8  and  C_14
REMARK    5  A    between atoms: O_15  and  C_16
REMARK                            x       y       z     vdW  Elec       q    Type
REMARK                         _______ _______ _______ _____ _____    ______ ____
ROOT
ATOM      1  C   LIG A   1      -7.506   2.278 122.956  0.00  0.00    +0.060 A 
ATOM      2  C   LIG A   1      -8.901   2.288 123.097  0.00  0.00    +0.018 A 
ATOM      3  C   LIG A   1      -9.572   1.132 123.487  0.00  0.00    +0.047 A 
ATOM      4  C   LIG A   1      -8.860  -0.039 123.736  0.00  0.00    +0.129 A 
ATOM      5  O   LIG A   1      -9.615  -1.111 124.110  0.00  0.00    -0.482 OA
ATOM      6  C   LIG A   1      -8.961  -2.362 124.396  0.00  0.00    +0.123 C 
ATOM      7  C   LIG A   1      -9.320  -2.707 125.845  0.00  0.00    +0.060 C 
ATOM      8  C   LIG A   1      -7.457  -2.372 124.234  0.00  0.00    +0.020 C 
ATOM      9  C   LIG A   1      -6.749  -1.301 123.863  0.00  0.00    +0.011 C 
ATOM     10  C   LIG A   1      -7.470  -0.067 123.599  0.00  0.00    +0.017 A 
ATOM     11  C   LIG A   1      -6.793   1.098 123.209  0.00  0.00    +0.026 A 
ATOM     12  C   LIG A   1      -9.585  -3.391 123.447  0.00  0.00    +0.060 C 
ENDROOT
BRANCH   1  14
ATOM     13  O   LIG A   1      -6.055   4.153 123.316  0.00  0.00    -0.245 OA
ATOM     14  C   LIG A   1      -6.758   3.502 122.558  0.00  0.00    +0.339 C 
BRANCH  14  15
ATOM     15  O   LIG A   1      -6.992   3.775 121.251  0.00  0.00    -0.465 OA
ATOM     16  C   LIG A   1      -5.851   4.201 120.508  0.00  0.00    +0.280 C 
ENDBRANCH  14  15
ENDBRANCH   1  14
TORSDOF 2
ENDMDL
MODEL 5
REMARK VINA RESULT:      -6.0     10.161     11.925
REMARK  Name = NuBBE_150
REMARK  5 active torsions:
REMARK  status: ('A' for Active; 'I' for Inactive)
REMARK    1  A    between atoms: C_2  and  C_3
REMARK    2  A    between atoms: C_2  and  O_15
REMARK    3  A    between atoms: C_8  and  C_9
REMARK    4  A    between atoms: C_8  and  C_14
REMARK    5  A    between atoms: O_15  and  C_16
REMARK                            x       y       z     vdW  Elec       q    Type
REMARK                         _______ _______ _______ _____ _____    ______ ____
ROOT
ATOM      1  C   LIG A   1      -8.254  -1.783 124.445  0.00  0.00    +0.060 A 
ATOM      2  C   LIG A   1      -7.225  -0.937 124.881  0.00  0.00    +0.018 A 
ATOM      3  C   LIG A   1      -6.780  -0.999 126.200  0.00  0.00    +0.047 A 
ATOM      4  C   LIG A   1      -7.358  -1.900 127.090  0.00  0.00    +0.129 A 
ATOM      5  O   LIG A   1      -6.849  -1.877 128.355  0.00  0.00    -0.482 OA
ATOM      6  C   LIG A   1      -7.381  -2.781 129.340  0.00  0.00    +0.123 C 
ATOM      7  C   LIG A   1      -6.200  -3.634 129.817  0.00  0.00    +0.060 C 
ATOM      8  C   LIG A   1      -8.498  -3.687 128.870  0.00  0.00    +0.020 C 
ATOM      9  C   LIG A   1      -8.974  -3.681 127.621  0.00  0.00    +0.011 C 
ATOM     10  C   LIG A   1      -8.385  -2.750 126.673  0.00  0.00    +0.017 A 
ATOM     11  C   LIG A   1      -8.832  -2.691 125.345  0.00  0.00    +0.026 A 
ATOM     12  C   LIG A   1      -7.886  -1.903 130.491  0.00  0.00    +0.060 C 
ENDROOT
BRANCH   1  14
ATOM     13  O   LIG A   1      -8.087  -2.140 122.080  0.00  0.00    -0.245 OA
ATOM     14  C   LIG A   1      -8.739  -1.754 123.038  0.00  0.00    +0.339 C 
BRANCH  14  15
ATOM     15  O   LIG A   1      -9.987  -1.226 122.997  0.00  0.00    -0.465 OA
ATOM     16  C   LIG A   1     -10.065   0.102 122.482  0.00  0.00    +0.280 C 
ENDBRANCH  14  15
ENDBRANCH   1  14
TORSDOF 2
ENDMDL
MODEL 6
REMARK VINA RESULT:      -5.9     10.125     12.115
REMARK  Name = NuBBE_150
REMARK  5 active torsions:
REMARK  status: ('A' for Active; 'I' for Inactive)
REMARK    1  A    between atoms: C_2  and  C_3
REMARK    2  A    between atoms: C_2  and  O_15
REMARK    3  A    between atoms: C_8  and  C_9
REMARK    4  A    between atoms: C_8  and  C_14
REMARK    5  A    between atoms: O_15  and  C_16
REMARK                            x       y       z     vdW  Elec       q    Type
REMARK                         _______ _______ _______ _____ _____    ______ ____
ROOT
ATOM      1  C   LIG A   1      -8.483  -2.607 125.773  0.00  0.00    +0.060 A 
ATOM      2  C   LIG A   1      -9.340  -3.390 126.559  0.00  0.00    +0.018 A 
ATOM      3  C   LIG A   1      -8.971  -3.749 127.853  0.00  0.00    +0.047 A 
ATOM      4  C   LIG A   1      -7.746  -3.333 128.370  0.00  0.00    +0.129 A 
ATOM      5  O   LIG A   1      -7.484  -3.741 129.645  0.00  0.00    -0.482 OA
ATOM      6  C   LIG A   1      -6.244  -3.349 130.263  0.00  0.00    +0.123 C 
ATOM      7  C   LIG A   1      -6.627  -2.564 131.522  0.00  0.00    +0.060 C 
ATOM      8  C   LIG A   1      -5.316  -2.512 129.411  0.00  0.00    +0.020 C 
ATOM      9  C   LIG A   1      -5.606  -2.132 128.162  0.00  0.00    +0.011 C 
ATOM     10  C   LIG A   1      -6.880  -2.553 127.601  0.00  0.00    +0.017 A 
ATOM     11  C   LIG A   1      -7.252  -2.189 126.299  0.00  0.00    +0.026 A 
ATOM     12  C   LIG A   1      -5.539  -4.652 130.658  0.00  0.00    +0.060 C 
ENDROOT
BRANCH   1  14
ATOM     13  O   LIG A   1      -9.734  -2.726 123.731  0.00  0.00    -0.245 OA
ATOM     14  C   LIG A   1      -8.857  -2.192 124.394  0.00  0.00    +0.339 C 
BRANCH  14  15
ATOM     15  O   LIG A   1      -8.073  -1.159 124.000  0.00  0.00    -0.465 OA
ATOM     16  C   LIG A   1      -8.778  -0.003 123.550  0.00  0.00    +0.280 C 
ENDBRANCH  14  15
ENDBRANCH   1  14
TORSDOF 2
ENDMDL
MODEL 7
REMARK VINA RESULT:      -5.8      9.186     10.338
REMARK  Name = NuBBE_150
REMARK  5 active torsions:
REMARK  status: ('A' for Active; 'I' for Inactive)
REMARK    1  A    between atoms: C_2  and  C_3
REMARK    2  A    between atoms: C_2  and  O_15
REMARK    3  A    between atoms: C_8  and  C_9
REMARK    4  A    between atoms: C_8  and  C_14
REMARK    5  A    between atoms: O_15  and  C_16
REMARK                            x       y       z     vdW  Elec       q    Type
REMARK                         _______ _______ _______ _____ _____    ______ ____
ROOT
ATOM      1  C   LIG A   1      -7.884   2.318 124.953  0.00  0.00    +0.060 A 
ATOM      2  C   LIG A   1      -7.290   1.975 123.730  0.00  0.00    +0.018 A 
ATOM      3  C   LIG A   1      -7.308   0.654 123.289  0.00  0.00    +0.047 A 
ATOM      4  C   LIG A   1      -7.914  -0.332 124.064  0.00  0.00    +0.129 A 
ATOM      5  O   LIG A   1      -7.873  -1.591 123.540  0.00  0.00    -0.482 OA
ATOM      6  C   LIG A   1      -8.483  -2.672 124.269  0.00  0.00    +0.123 C 
ATOM      7  C   LIG A   1      -9.550  -3.261 123.341  0.00  0.00    +0.060 C 
ATOM      8  C   LIG A   1      -9.115  -2.302 125.592  0.00  0.00    +0.020 C 
ATOM      9  C   LIG A   1      -9.135  -1.056 126.077  0.00  0.00    +0.011 C 
ATOM     10  C   LIG A   1      -8.510  -0.009 125.285  0.00  0.00    +0.017 A 
ATOM     11  C   LIG A   1      -8.495   1.321 125.729  0.00  0.00    +0.026 A 
ATOM     12  C   LIG A   1      -7.372  -3.703 124.504  0.00  0.00    +0.060 C 
ENDROOT
BRANCH   1  14
ATOM     13  O   LIG A   1      -8.898   4.424 125.487  0.00  0.00    -0.245 OA
ATOM     14  C   LIG A   1      -7.898   3.723 125.442  0.00  0.00    +0.339 C 
BRANCH  14  15
ATOM     15  O   LIG A   1      -6.645   4.092 125.806  0.00  0.00    -0.465 OA
ATOM     16  C   LIG A   1      -6.127   5.230 125.121  0.00  0.00    +0.280 C 
ENDBRANCH  14  15
ENDBRANCH   1  14
TORSDOF 2
ENDMDL
MODEL 8
REMARK VINA RESULT:      -5.7      1.394      6.437
REMARK  Name = NuBBE_150
REMARK  5 active torsions:
REMARK  status: ('A' for Active; 'I' for Inactive)
REMARK    1  A    between atoms: C_2  and  C_3
REMARK    2  A    between atoms: C_2  and  O_15
REMARK    3  A    between atoms: C_8  and  C_9
REMARK    4  A    between atoms: C_8  and  C_14
REMARK    5  A    between atoms: O_15  and  C_16
REMARK                            x       y       z     vdW  Elec       q    Type
REMARK                         _______ _______ _______ _____ _____    ______ ____
ROOT
ATOM      1  C   LIG A   1     -10.293   6.466 130.767  0.00  0.00    +0.060 A 
ATOM      2  C   LIG A   1      -9.086   7.108 130.457  0.00  0.00    +0.018 A 
ATOM      3  C   LIG A   1      -7.946   6.859 131.217  0.00  0.00    +0.047 A 
ATOM      4  C   LIG A   1      -8.002   5.972 132.290  0.00  0.00    +0.129 A 
ATOM      5  O   LIG A   1      -6.830   5.802 132.967  0.00  0.00    -0.482 OA
ATOM      6  C   LIG A   1      -6.793   4.897 134.085  0.00  0.00    +0.123 C 
ATOM      7  C   LIG A   1      -5.738   3.840 133.742  0.00  0.00    +0.060 C 
ATOM      8  C   LIG A   1      -8.099   4.212 134.424  0.00  0.00    +0.020 C 
ATOM      9  C   LIG A   1      -9.231   4.405 133.738  0.00  0.00    +0.011 C 
ATOM     10  C   LIG A   1      -9.197   5.324 132.613  0.00  0.00    +0.017 A 
ATOM     11  C   LIG A   1     -10.344   5.573 131.847  0.00  0.00    +0.026 A 
ATOM     12  C   LIG A   1      -6.325   5.727 135.286  0.00  0.00    +0.060 C 
ENDROOT
BRANCH   1  14
ATOM     13  O   LIG A   1     -11.906   5.961 129.067  0.00  0.00    -0.245 OA
ATOM     14  C   LIG A   1     -11.523   6.698 129.963  0.00  0.00    +0.339 C 
BRANCH  14  15
ATOM     15  O   LIG A   1     -12.125   7.843 130.369  0.00  0.00    -0.465 OA
ATOM     16  C   LIG A   1     -12.384   8.790 129.335  0.00  0.00    +0.280 C 
ENDBRANCH  14  15
ENDBRANCH   1  14
TORSDOF 2
ENDMDL
MODEL 9
REMARK VINA RESULT:      -5.7      2.065      5.847
REMARK  Name = NuBBE_150
REMARK  5 active torsions:
REMARK  status: ('A' for Active; 'I' for Inactive)
REMARK    1  A    between atoms: C_2  and  C_3
REMARK    2  A    between atoms: C_2  and  O_15
REMARK    3  A    between atoms: C_8  and  C_9
REMARK    4  A    between atoms: C_8  and  C_14
REMARK    5  A    between atoms: O_15  and  C_16
REMARK                            x       y       z     vdW  Elec       q    Type
REMARK                         _______ _______ _______ _____ _____    ______ ____
ROOT
ATOM      1  C   LIG A   1     -11.329   6.192 130.595  0.00  0.00    +0.060 A 
ATOM      2  C   LIG A   1     -11.257   4.808 130.384  0.00  0.00    +0.018 A 
ATOM      3  C   LIG A   1     -10.023   4.162 130.397  0.00  0.00    +0.047 A 
ATOM      4  C   LIG A   1      -8.855   4.889 130.617  0.00  0.00    +0.129 A 
ATOM      5  O   LIG A   1      -7.704   4.159 130.608  0.00  0.00    -0.482 OA
ATOM      6  C   LIG A   1      -6.450   4.829 130.835  0.00  0.00    +0.123 C 
ATOM      7  C   LIG A   1      -5.832   4.166 132.071  0.00  0.00    +0.060 C 
ATOM      8  C   LIG A   1      -6.529   6.324 131.053  0.00  0.00    +0.020 C 
ATOM      9  C   LIG A   1      -7.678   7.008 131.053  0.00  0.00    +0.011 C 
ATOM     10  C   LIG A   1      -8.909   6.269 130.828  0.00  0.00    +0.017 A 
ATOM     11  C   LIG A   1     -10.151   6.920 130.817  0.00  0.00    +0.026 A 
ATOM     12  C   LIG A   1      -5.585   4.537 129.603  0.00  0.00    +0.060 C 
ENDROOT
BRANCH   1  14
ATOM     13  O   LIG A   1     -13.202   7.284 131.619  0.00  0.00    -0.245 OA
ATOM     14  C   LIG A   1     -12.633   6.907 130.605  0.00  0.00    +0.339 C 
BRANCH  14  15
ATOM     15  O   LIG A   1     -13.082   7.056 129.335  0.00  0.00    -0.465 OA
ATOM     16  C   LIG A   1     -12.985   8.378 128.809  0.00  0.00    +0.280 C 
ENDBRANCH  14  15
ENDBRANCH   1  14
TORSDOF 2
ENDMDL
