MODEL 1
REMARK VINA RESULT:      -8.4      0.000      0.000
REMARK  Name = NuBBE_1245
REMARK  15 active torsions:
REMARK  status: ('A' for Active; 'I' for Inactive)
REMARK    1  A    between atoms: O_1  and  C_2
REMARK    2  A    between atoms: C_3  and  C_38
REMARK    3  A    between atoms: C_6  and  O_24
REMARK    4  A    between atoms: C_7  and  C_8
REMARK    5  A    between atoms: C_11  and  C_13
REMARK    6  A    between atoms: C_13  and  O_14
REMARK    7  A    between atoms: C_15  and  O_23
REMARK    8  A    between atoms: C_17  and  O_22
REMARK    9  A    between atoms: C_19  and  O_21
REMARK   10  A    between atoms: C_28  and  C_30
REMARK   11  A    between atoms: C_32  and  O_33
REMARK   12  A    between atoms: C_34  and  O_37
REMARK   13  A    between atoms: C_40  and  O_42
REMARK   14  A    between atoms: C_43  and  O_45
REMARK   15  A    between atoms: C_46  and  O_50
REMARK                            x       y       z     vdW  Elec       q    Type
REMARK                         _______ _______ _______ _____ _____    ______ ____
ROOT
ATOM      1  C   LIG A   1      -8.500   5.207 130.345  0.00  0.00    +0.135 A 
ATOM      2  C   LIG A   1      -7.394   4.444 130.802  0.00  0.00    +0.069 A 
ATOM      3  C   LIG A   1      -7.654   3.134 131.263  0.00  0.00    +0.152 A 
ATOM      4  C   LIG A   1      -8.963   2.643 131.297  0.00  0.00    +0.106 A 
ATOM      5  C   LIG A   1     -10.039   3.432 130.861  0.00  0.00    +0.140 A 
ATOM      6  C   LIG A   1      -9.834   4.734 130.380  0.00  0.00    +0.068 A 
ATOM      7  C   LIG A   1      -9.175   1.278 131.791  0.00  0.00    +0.197 A 
ATOM      8  O   LIG A   1     -10.316   0.816 131.912  0.00  0.00    -0.287 OA
ATOM      9  C   LIG A   1      -8.001   0.466 132.113  0.00  0.00    +0.098 A 
ATOM     10  C   LIG A   1      -6.790   1.024 132.000  0.00  0.00    +0.139 A 
ATOM     11  O   LIG A   1      -6.597   2.353 131.676  0.00  0.00    -0.454 OA
ENDROOT
BRANCH   6  12
ATOM     12  C   LIG A   1     -11.033   5.573 129.939  0.00  0.00    +0.187 C 
ATOM     13  O   LIG A   1     -10.646   6.281 128.736  0.00  0.00    -0.361 OA
ATOM     14  C   LIG A   1     -11.754   6.982 128.142  0.00  0.00    +0.175 C 
ATOM     15  C   LIG A   1     -12.232   8.088 129.097  0.00  0.00    +0.176 C 
ATOM     16  C   LIG A   1     -12.626   7.464 130.437  0.00  0.00    +0.177 C 
ATOM     17  C   LIG A   1     -11.508   6.584 131.010  0.00  0.00    +0.179 C 
BRANCH  17  18
ATOM     18  O   LIG A   1     -11.998   5.935 132.185  0.00  0.00    -0.386 OA
ATOM     19  H   LIG A   1     -11.939   4.977 131.993  0.00  0.00    +0.210 HD
ENDBRANCH  17  18
BRANCH  16  20
ATOM     20  O   LIG A   1     -12.927   8.505 131.383  0.00  0.00    -0.387 OA
ATOM     21  H   LIG A   1     -13.875   8.706 131.241  0.00  0.00    +0.210 HD
ENDBRANCH  16  20
BRANCH  15  22
ATOM     22  O   LIG A   1     -13.365   8.811 128.604  0.00  0.00    -0.387 OA
ATOM     23  H   LIG A   1     -13.215   9.757 128.827  0.00  0.00    +0.210 HD
ENDBRANCH  15  22
BRANCH  14  24
ATOM     24  C   LIG A   1     -11.300   7.567 126.796  0.00  0.00    +0.190 C 
BRANCH  24  25
ATOM     25  O   LIG A   1     -10.345   6.724 126.157  0.00  0.00    -0.392 OA
ATOM     26  H   LIG A   1     -10.774   6.346 125.364  0.00  0.00    +0.209 HD
ENDBRANCH  24  25
ENDBRANCH  14  24
ENDBRANCH   6  12
BRANCH  10  27
ATOM     27  C   LIG A   1      -5.551   0.252 132.257  0.00  0.00    +0.021 A 
ATOM     28  C   LIG A   1      -4.455   0.850 132.905  0.00  0.00    +0.060 A 
ATOM     29  C   LIG A   1      -3.290   0.120 133.128  0.00  0.00    +0.159 A 
ATOM     30  C   LIG A   1      -3.195  -1.204 132.710  0.00  0.00    +0.158 A 
ATOM     31  C   LIG A   1      -4.254  -1.817 132.064  0.00  0.00    +0.050 A 
ATOM     32  C   LIG A   1      -5.423  -1.087 131.832  0.00  0.00    +0.015 A 
BRANCH  29  33
ATOM     33  O   LIG A   1      -2.205   0.666 133.762  0.00  0.00    -0.503 OA
ATOM     34  H   LIG A   1      -2.507   1.446 134.265  0.00  0.00    +0.292 HD
ENDBRANCH  29  33
BRANCH  30  35
ATOM     35  O   LIG A   1      -2.051  -1.915 132.930  0.00  0.00    -0.503 OA
ATOM     36  H   LIG A   1      -1.997  -2.530 132.172  0.00  0.00    +0.292 HD
ENDBRANCH  30  35
ENDBRANCH  10  27
BRANCH   2  37
ATOM     37  C   LIG A   1      -5.981   5.050 130.731  0.00  0.00    +0.186 C 
ATOM     38  C   LIG A   1      -5.668   6.028 131.907  0.00  0.00    +0.179 C 
ATOM     39  C   LIG A   1      -4.817   5.346 132.984  0.00  0.00    +0.176 C 
ATOM     40  C   LIG A   1      -3.503   4.793 132.400  0.00  0.00    +0.171 C 
ATOM     41  C   LIG A   1      -3.652   4.422 130.923  0.00  0.00    +0.194 C 
ATOM     42  O   LIG A   1      -4.986   4.013 130.629  0.00  0.00    -0.366 OA
BRANCH  38  43
ATOM     43  O   LIG A   1      -4.930   7.162 131.411  0.00  0.00    -0.386 OA
ATOM     44  H   LIG A   1      -4.479   7.556 132.181  0.00  0.00    +0.210 HD
ENDBRANCH  38  43
BRANCH  39  45
ATOM     45  O   LIG A   1      -5.537   4.281 133.630  0.00  0.00    -0.387 OA
ATOM     46  H   LIG A   1      -6.214   4.699 134.198  0.00  0.00    +0.210 HD
ENDBRANCH  39  45
BRANCH  40  47
ATOM     47  O   LIG A   1      -3.096   3.630 133.152  0.00  0.00    -0.387 OA
ATOM     48  H   LIG A   1      -3.908   3.090 133.260  0.00  0.00    +0.210 HD
ENDBRANCH  40  47
ENDBRANCH   2  37
BRANCH   1  49
ATOM     49  O   LIG A   1      -8.220   6.449 129.824  0.00  0.00    -0.506 OA
ATOM     50  H   LIG A   1      -7.816   6.314 128.947  0.00  0.00    +0.292 HD
ENDBRANCH   1  49
BRANCH   5  51
ATOM     51  O   LIG A   1     -11.324   2.944 130.877  0.00  0.00    -0.505 OA
ATOM     52  H   LIG A   1     -11.923   3.612 130.471  0.00  0.00    +0.292 HD
ENDBRANCH   5  51
TORSDOF 15
ENDMDL
MODEL 2
REMARK VINA RESULT:      -8.4      1.218      2.032
REMARK  Name = NuBBE_1245
REMARK  15 active torsions:
REMARK  status: ('A' for Active; 'I' for Inactive)
REMARK    1  A    between atoms: O_1  and  C_2
REMARK    2  A    between atoms: C_3  and  C_38
REMARK    3  A    between atoms: C_6  and  O_24
REMARK    4  A    between atoms: C_7  and  C_8
REMARK    5  A    between atoms: C_11  and  C_13
REMARK    6  A    between atoms: C_13  and  O_14
REMARK    7  A    between atoms: C_15  and  O_23
REMARK    8  A    between atoms: C_17  and  O_22
REMARK    9  A    between atoms: C_19  and  O_21
REMARK   10  A    between atoms: C_28  and  C_30
REMARK   11  A    between atoms: C_32  and  O_33
REMARK   12  A    between atoms: C_34  and  O_37
REMARK   13  A    between atoms: C_40  and  O_42
REMARK   14  A    between atoms: C_43  and  O_45
REMARK   15  A    between atoms: C_46  and  O_50
REMARK                            x       y       z     vdW  Elec       q    Type
REMARK                         _______ _______ _______ _____ _____    ______ ____
ROOT
ATOM      1  C   LIG A   1      -8.573   5.749 130.707  0.00  0.00    +0.135 A 
ATOM      2  C   LIG A   1      -7.450   5.107 131.292  0.00  0.00    +0.069 A 
ATOM      3  C   LIG A   1      -7.609   3.764 131.699  0.00  0.00    +0.152 A 
ATOM      4  C   LIG A   1      -8.844   3.123 131.559  0.00  0.00    +0.106 A 
ATOM      5  C   LIG A   1      -9.943   3.795 131.000  0.00  0.00    +0.140 A 
ATOM      6  C   LIG A   1      -9.835   5.125 130.566  0.00  0.00    +0.068 A 
ATOM      7  C   LIG A   1      -8.954   1.730 132.004  0.00  0.00    +0.197 A 
ATOM      8  O   LIG A   1     -10.039   1.136 131.974  0.00  0.00    -0.287 OA
ATOM      9  C   LIG A   1      -7.741   1.051 132.463  0.00  0.00    +0.098 A 
ATOM     10  C   LIG A   1      -6.601   1.748 132.513  0.00  0.00    +0.139 A 
ATOM     11  O   LIG A   1      -6.527   3.099 132.233  0.00  0.00    -0.454 OA
ENDROOT
BRANCH   6  12
ATOM     12  C   LIG A   1     -11.060   5.832 129.986  0.00  0.00    +0.187 C 
ATOM     13  O   LIG A   1     -10.660   6.430 128.729  0.00  0.00    -0.361 OA
ATOM     14  C   LIG A   1     -11.778   6.989 128.017  0.00  0.00    +0.175 C 
ATOM     15  C   LIG A   1     -12.367   8.157 128.824  0.00  0.00    +0.176 C 
ATOM     16  C   LIG A   1     -12.786   7.657 130.208  0.00  0.00    +0.177 C 
ATOM     17  C   LIG A   1     -11.646   6.919 130.919  0.00  0.00    +0.179 C 
BRANCH  17  18
ATOM     18  O   LIG A   1     -12.151   6.369 132.138  0.00  0.00    -0.386 OA
ATOM     19  H   LIG A   1     -13.117   6.526 132.108  0.00  0.00    +0.210 HD
ENDBRANCH  17  18
BRANCH  16  20
ATOM     20  O   LIG A   1     -13.194   8.772 131.019  0.00  0.00    -0.387 OA
ATOM     21  H   LIG A   1     -13.108   9.553 130.435  0.00  0.00    +0.210 HD
ENDBRANCH  16  20
BRANCH  15  22
ATOM     22  O   LIG A   1     -13.517   8.748 128.208  0.00  0.00    -0.387 OA
ATOM     23  H   LIG A   1     -14.243   8.088 128.274  0.00  0.00    +0.210 HD
ENDBRANCH  15  22
BRANCH  14  24
ATOM     24  C   LIG A   1     -11.297   7.454 126.634  0.00  0.00    +0.190 C 
BRANCH  24  25
ATOM     25  O   LIG A   1     -10.335   6.555 126.088  0.00  0.00    -0.392 OA
ATOM     26  H   LIG A   1     -10.473   5.687 126.514  0.00  0.00    +0.209 HD
ENDBRANCH  24  25
ENDBRANCH  14  24
ENDBRANCH   6  12
BRANCH  10  27
ATOM     27  C   LIG A   1      -5.321   1.117 132.915  0.00  0.00    +0.021 A 
ATOM     28  C   LIG A   1      -5.269  -0.248 133.250  0.00  0.00    +0.060 A 
ATOM     29  C   LIG A   1      -4.064  -0.827 133.642  0.00  0.00    +0.159 A 
ATOM     30  C   LIG A   1      -2.903  -0.064 133.712  0.00  0.00    +0.158 A 
ATOM     31  C   LIG A   1      -2.925   1.283 133.395  0.00  0.00    +0.050 A 
ATOM     32  C   LIG A   1      -4.132   1.871 133.007  0.00  0.00    +0.015 A 
BRANCH  29  33
ATOM     33  O   LIG A   1      -3.974  -2.154 133.969  0.00  0.00    -0.503 OA
ATOM     34  H   LIG A   1      -4.173  -2.249 134.919  0.00  0.00    +0.292 HD
ENDBRANCH  29  33
BRANCH  30  35
ATOM     35  O   LIG A   1      -1.725  -0.636 134.097  0.00  0.00    -0.503 OA
ATOM     36  H   LIG A   1      -1.992  -1.368 134.688  0.00  0.00    +0.292 HD
ENDBRANCH  30  35
ENDBRANCH  10  27
BRANCH   2  37
ATOM     37  C   LIG A   1      -6.120   5.874 131.409  0.00  0.00    +0.186 C 
ATOM     38  C   LIG A   1      -4.866   4.978 131.160  0.00  0.00    +0.179 C 
ATOM     39  C   LIG A   1      -4.318   5.174 129.742  0.00  0.00    +0.176 C 
ATOM     40  C   LIG A   1      -3.969   6.649 129.470  0.00  0.00    +0.171 C 
ATOM     41  C   LIG A   1      -4.838   7.598 130.298  0.00  0.00    +0.194 C 
ATOM     42  O   LIG A   1      -6.121   7.030 130.550  0.00  0.00    -0.366 OA
BRANCH  38  43
ATOM     43  O   LIG A   1      -3.825   5.332 132.091  0.00  0.00    -0.386 OA
ATOM     44  H   LIG A   1      -3.729   6.302 132.043  0.00  0.00    +0.210 HD
ENDBRANCH  38  43
BRANCH  39  45
ATOM     45  O   LIG A   1      -5.249   4.712 128.747  0.00  0.00    -0.387 OA
ATOM     46  H   LIG A   1      -5.088   5.239 127.940  0.00  0.00    +0.210 HD
ENDBRANCH  39  45
BRANCH  40  47
ATOM     47  O   LIG A   1      -4.146   6.933 128.065  0.00  0.00    -0.387 OA
ATOM     48  H   LIG A   1      -3.949   6.091 127.600  0.00  0.00    +0.210 HD
ENDBRANCH  40  47
ENDBRANCH   2  37
BRANCH   1  49
ATOM     49  O   LIG A   1      -8.378   7.029 130.242  0.00  0.00    -0.506 OA
ATOM     50  H   LIG A   1      -9.257   7.409 130.054  0.00  0.00    +0.292 HD
ENDBRANCH   1  49
BRANCH   5  51
ATOM     51  O   LIG A   1     -11.153   3.161 130.846  0.00  0.00    -0.505 OA
ATOM     52  H   LIG A   1     -11.869   3.838 130.839  0.00  0.00    +0.292 HD
ENDBRANCH   5  51
TORSDOF 15
ENDMDL
MODEL 3
REMARK VINA RESULT:      -8.4      6.286     10.806
REMARK  Name = NuBBE_1245
REMARK  15 active torsions:
REMARK  status: ('A' for Active; 'I' for Inactive)
REMARK    1  A    between atoms: O_1  and  C_2
REMARK    2  A    between atoms: C_3  and  C_38
REMARK    3  A    between atoms: C_6  and  O_24
REMARK    4  A    between atoms: C_7  and  C_8
REMARK    5  A    between atoms: C_11  and  C_13
REMARK    6  A    between atoms: C_13  and  O_14
REMARK    7  A    between atoms: C_15  and  O_23
REMARK    8  A    between atoms: C_17  and  O_22
REMARK    9  A    between atoms: C_19  and  O_21
REMARK   10  A    between atoms: C_28  and  C_30
REMARK   11  A    between atoms: C_32  and  O_33
REMARK   12  A    between atoms: C_34  and  O_37
REMARK   13  A    between atoms: C_40  and  O_42
REMARK   14  A    between atoms: C_43  and  O_45
REMARK   15  A    between atoms: C_46  and  O_50
REMARK                            x       y       z     vdW  Elec       q    Type
REMARK                         _______ _______ _______ _____ _____    ______ ____
ROOT
ATOM      1  C   LIG A   1      -6.507  -0.376 126.999  0.00  0.00    +0.135 A 
ATOM      2  C   LIG A   1      -6.932   0.180 125.764  0.00  0.00    +0.069 A 
ATOM      3  C   LIG A   1      -6.412   1.444 125.407  0.00  0.00    +0.152 A 
ATOM      4  C   LIG A   1      -5.546   2.122 126.270  0.00  0.00    +0.106 A 
ATOM      5  C   LIG A   1      -5.165   1.557 127.497  0.00  0.00    +0.140 A 
ATOM      6  C   LIG A   1      -5.641   0.297 127.894  0.00  0.00    +0.068 A 
ATOM      7  C   LIG A   1      -5.041   3.434 125.851  0.00  0.00    +0.197 A 
ATOM      8  O   LIG A   1      -4.331   4.113 126.603  0.00  0.00    -0.287 OA
ATOM      9  C   LIG A   1      -5.378   3.910 124.508  0.00  0.00    +0.098 A 
ATOM     10  C   LIG A   1      -6.179   3.156 123.748  0.00  0.00    +0.139 A 
ATOM     11  O   LIG A   1      -6.772   1.992 124.196  0.00  0.00    -0.454 OA
ENDROOT
BRANCH   6  12
ATOM     12  C   LIG A   1      -5.225  -0.274 129.249  0.00  0.00    +0.187 C 
ATOM     13  O   LIG A   1      -4.850  -1.657 129.038  0.00  0.00    -0.361 OA
ATOM     14  C   LIG A   1      -4.289  -2.251 130.223  0.00  0.00    +0.175 C 
ATOM     15  C   LIG A   1      -5.360  -2.311 131.323  0.00  0.00    +0.176 C 
ATOM     16  C   LIG A   1      -5.878  -0.898 131.604  0.00  0.00    +0.177 C 
ATOM     17  C   LIG A   1      -6.336  -0.192 130.322  0.00  0.00    +0.179 C 
BRANCH  17  18
ATOM     18  O   LIG A   1      -6.677   1.158 130.645  0.00  0.00    -0.386 OA
ATOM     19  H   LIG A   1      -7.304   1.438 129.948  0.00  0.00    +0.210 HD
ENDBRANCH  17  18
BRANCH  16  20
ATOM     20  O   LIG A   1      -6.985  -0.964 132.518  0.00  0.00    -0.387 OA
ATOM     21  H   LIG A   1      -6.884  -0.178 133.092  0.00  0.00    +0.210 HD
ENDBRANCH  16  20
BRANCH  15  22
ATOM     22  O   LIG A   1      -4.875  -2.849 132.557  0.00  0.00    -0.387 OA
ATOM     23  H   LIG A   1      -5.663  -3.016 133.122  0.00  0.00    +0.210 HD
ENDBRANCH  15  22
BRANCH  14  24
ATOM     24  C   LIG A   1      -3.773  -3.655 129.871  0.00  0.00    +0.190 C 
BRANCH  24  25
ATOM     25  O   LIG A   1      -2.519  -3.595 129.196  0.00  0.00    -0.392 OA
ATOM     26  H   LIG A   1      -2.503  -4.324 128.546  0.00  0.00    +0.209 HD
ENDBRANCH  24  25
ENDBRANCH  14  24
ENDBRANCH   6  12
BRANCH  10  27
ATOM     27  C   LIG A   1      -6.523   3.544 122.359  0.00  0.00    +0.021 A 
ATOM     28  C   LIG A   1      -7.841   3.413 121.883  0.00  0.00    +0.060 A 
ATOM     29  C   LIG A   1      -8.150   3.767 120.571  0.00  0.00    +0.159 A 
ATOM     30  C   LIG A   1      -7.162   4.247 119.717  0.00  0.00    +0.158 A 
ATOM     31  C   LIG A   1      -5.857   4.380 120.155  0.00  0.00    +0.050 A 
ATOM     32  C   LIG A   1      -5.539   4.022 121.468  0.00  0.00    +0.015 A 
BRANCH  29  33
ATOM     33  O   LIG A   1      -9.423   3.659 120.076  0.00  0.00    -0.503 OA
ATOM     34  H   LIG A   1      -9.604   4.447 119.529  0.00  0.00    +0.292 HD
ENDBRANCH  29  33
BRANCH  30  35
ATOM     35  O   LIG A   1      -7.470   4.592 118.433  0.00  0.00    -0.503 OA
ATOM     36  H   LIG A   1      -6.613   4.846 118.037  0.00  0.00    +0.292 HD
ENDBRANCH  30  35
ENDBRANCH  10  27
BRANCH   2  37
ATOM     37  C   LIG A   1      -7.884  -0.628 124.863  0.00  0.00    +0.186 C 
ATOM     38  C   LIG A   1      -7.163  -1.316 123.662  0.00  0.00    +0.179 C 
ATOM     39  C   LIG A   1      -6.916  -2.803 123.942  0.00  0.00    +0.176 C 
ATOM     40  C   LIG A   1      -8.229  -3.544 124.258  0.00  0.00    +0.171 C 
ATOM     41  C   LIG A   1      -9.266  -2.613 124.889  0.00  0.00    +0.194 C 
ATOM     42  O   LIG A   1      -8.637  -1.578 125.640  0.00  0.00    -0.366 OA
BRANCH  38  43
ATOM     43  O   LIG A   1      -7.985  -1.217 122.482  0.00  0.00    -0.386 OA
ATOM     44  H   LIG A   1      -8.895  -1.050 122.793  0.00  0.00    +0.210 HD
ENDBRANCH  38  43
BRANCH  39  45
ATOM     45  O   LIG A   1      -5.989  -2.989 125.026  0.00  0.00    -0.387 OA
ATOM     46  H   LIG A   1      -6.298  -3.764 125.535  0.00  0.00    +0.210 HD
ENDBRANCH  39  45
BRANCH  40  47
ATOM     47  O   LIG A   1      -7.955  -4.641 125.156  0.00  0.00    -0.387 OA
ATOM     48  H   LIG A   1      -8.790  -4.792 125.649  0.00  0.00    +0.210 HD
ENDBRANCH  40  47
ENDBRANCH   2  37
BRANCH   1  49
ATOM     49  O   LIG A   1      -6.958  -1.641 127.295  0.00  0.00    -0.506 OA
ATOM     50  H   LIG A   1      -7.371  -2.000 126.487  0.00  0.00    +0.292 HD
ENDBRANCH   1  49
BRANCH   5  51
ATOM     51  O   LIG A   1      -4.300   2.215 128.339  0.00  0.00    -0.505 OA
ATOM     52  H   LIG A   1      -3.715   2.798 127.802  0.00  0.00    +0.292 HD
ENDBRANCH   5  51
TORSDOF 15
ENDMDL
MODEL 4
REMARK VINA RESULT:      -8.4      4.183      6.932
REMARK  Name = NuBBE_1245
REMARK  15 active torsions:
REMARK  status: ('A' for Active; 'I' for Inactive)
REMARK    1  A    between atoms: O_1  and  C_2
REMARK    2  A    between atoms: C_3  and  C_38
REMARK    3  A    between atoms: C_6  and  O_24
REMARK    4  A    between atoms: C_7  and  C_8
REMARK    5  A    between atoms: C_11  and  C_13
REMARK    6  A    between atoms: C_13  and  O_14
REMARK    7  A    between atoms: C_15  and  O_23
REMARK    8  A    between atoms: C_17  and  O_22
REMARK    9  A    between atoms: C_19  and  O_21
REMARK   10  A    between atoms: C_28  and  C_30
REMARK   11  A    between atoms: C_32  and  O_33
REMARK   12  A    between atoms: C_34  and  O_37
REMARK   13  A    between atoms: C_40  and  O_42
REMARK   14  A    between atoms: C_43  and  O_45
REMARK   15  A    between atoms: C_46  and  O_50
REMARK                            x       y       z     vdW  Elec       q    Type
REMARK                         _______ _______ _______ _____ _____    ______ ____
ROOT
ATOM      1  C   LIG A   1      -8.030   2.802 128.435  0.00  0.00    +0.135 A 
ATOM      2  C   LIG A   1      -7.120   3.345 129.381  0.00  0.00    +0.069 A 
ATOM      3  C   LIG A   1      -5.755   3.384 129.020  0.00  0.00    +0.152 A 
ATOM      4  C   LIG A   1      -5.333   2.867 127.790  0.00  0.00    +0.106 A 
ATOM      5  C   LIG A   1      -6.255   2.314 126.888  0.00  0.00    +0.140 A 
ATOM      6  C   LIG A   1      -7.624   2.263 127.191  0.00  0.00    +0.068 A 
ATOM      7  C   LIG A   1      -3.902   2.929 127.470  0.00  0.00    +0.197 A 
ATOM      8  O   LIG A   1      -3.461   2.423 126.432  0.00  0.00    -0.287 OA
ATOM      9  C   LIG A   1      -3.013   3.629 128.399  0.00  0.00    +0.098 A 
ATOM     10  C   LIG A   1      -3.534   4.127 129.525  0.00  0.00    +0.139 A 
ATOM     11  O   LIG A   1      -4.851   3.942 129.897  0.00  0.00    -0.454 OA
ENDROOT
BRANCH   6  12
ATOM     12  C   LIG A   1      -8.595   1.629 126.195  0.00  0.00    +0.187 C 
ATOM     13  O   LIG A   1      -8.188   0.252 126.012  0.00  0.00    -0.361 OA
ATOM     14  C   LIG A   1      -9.129  -0.488 125.213  0.00  0.00    +0.175 C 
ATOM     15  C   LIG A   1      -9.160   0.093 123.790  0.00  0.00    +0.176 C 
ATOM     16  C   LIG A   1      -9.533   1.575 123.855  0.00  0.00    +0.177 C 
ATOM     17  C   LIG A   1      -8.633   2.349 124.826  0.00  0.00    +0.179 C 
BRANCH  17  18
ATOM     18  O   LIG A   1      -9.126   3.687 124.933  0.00  0.00    -0.386 OA
ATOM     19  H   LIG A   1      -9.139   4.029 124.016  0.00  0.00    +0.210 HD
ENDBRANCH  17  18
BRANCH  16  20
ATOM     20  O   LIG A   1      -9.414   2.159 122.546  0.00  0.00    -0.387 OA
ATOM     21  H   LIG A   1     -10.311   2.487 122.335  0.00  0.00    +0.210 HD
ENDBRANCH  16  20
BRANCH  15  22
ATOM     22  O   LIG A   1     -10.106  -0.557 122.934  0.00  0.00    -0.387 OA
ATOM     23  H   LIG A   1     -10.996  -0.235 123.201  0.00  0.00    +0.210 HD
ENDBRANCH  15  22
BRANCH  14  24
ATOM     24  C   LIG A   1      -8.711  -1.965 125.202  0.00  0.00    +0.190 C 
BRANCH  24  25
ATOM     25  O   LIG A   1      -9.810  -2.816 124.885  0.00  0.00    -0.392 OA
ATOM     26  H   LIG A   1     -10.358  -2.895 125.690  0.00  0.00    +0.209 HD
ENDBRANCH  24  25
ENDBRANCH  14  24
ENDBRANCH   6  12
BRANCH  10  27
ATOM     27  C   LIG A   1      -2.709   4.894 130.490  0.00  0.00    +0.021 A 
ATOM     28  C   LIG A   1      -2.731   4.579 131.861  0.00  0.00    +0.060 A 
ATOM     29  C   LIG A   1      -1.964   5.316 132.761  0.00  0.00    +0.159 A 
ATOM     30  C   LIG A   1      -1.173   6.371 132.316  0.00  0.00    +0.158 A 
ATOM     31  C   LIG A   1      -1.137   6.708 130.975  0.00  0.00    +0.050 A 
ATOM     32  C   LIG A   1      -1.909   5.977 130.068  0.00  0.00    +0.015 A 
BRANCH  29  33
ATOM     33  O   LIG A   1      -1.955   5.034 134.101  0.00  0.00    -0.503 OA
ATOM     34  H   LIG A   1      -1.138   5.406 134.486  0.00  0.00    +0.292 HD
ENDBRANCH  29  33
BRANCH  30  35
ATOM     35  O   LIG A   1      -0.424   7.090 133.202  0.00  0.00    -0.503 OA
ATOM     36  H   LIG A   1      -0.169   7.895 132.708  0.00  0.00    +0.292 HD
ENDBRANCH  30  35
ENDBRANCH  10  27
BRANCH   2  37
ATOM     37  C   LIG A   1      -7.658   3.899 130.711  0.00  0.00    +0.186 C 
ATOM     38  C   LIG A   1      -7.811   5.453 130.717  0.00  0.00    +0.179 C 
ATOM     39  C   LIG A   1      -9.269   5.868 130.490  0.00  0.00    +0.176 C 
ATOM     40  C   LIG A   1     -10.204   5.247 131.545  0.00  0.00    +0.171 C 
ATOM     41  C   LIG A   1      -9.659   3.917 132.071  0.00  0.00    +0.194 C 
ATOM     42  O   LIG A   1      -8.890   3.247 131.074  0.00  0.00    -0.366 OA
BRANCH  38  43
ATOM     43  O   LIG A   1      -7.395   5.976 131.994  0.00  0.00    -0.386 OA
ATOM     44  H   LIG A   1      -7.991   5.586 132.661  0.00  0.00    +0.210 HD
ENDBRANCH  38  43
BRANCH  39  45
ATOM     45  O   LIG A   1      -9.723   5.501 129.175  0.00  0.00    -0.387 OA
ATOM     46  H   LIG A   1     -10.689   5.654 129.154  0.00  0.00    +0.210 HD
ENDBRANCH  39  45
BRANCH  40  47
ATOM     47  O   LIG A   1     -11.510   5.039 130.965  0.00  0.00    -0.387 OA
ATOM     48  H   LIG A   1     -11.558   4.080 130.763  0.00  0.00    +0.210 HD
ENDBRANCH  40  47
ENDBRANCH   2  37
BRANCH   1  49
ATOM     49  O   LIG A   1      -9.364   2.845 128.769  0.00  0.00    -0.506 OA
ATOM     50  H   LIG A   1      -9.870   2.934 127.939  0.00  0.00    +0.292 HD
ENDBRANCH   1  49
BRANCH   5  51
ATOM     51  O   LIG A   1      -5.843   1.821 125.672  0.00  0.00    -0.505 OA
ATOM     52  H   LIG A   1      -6.007   0.850 125.651  0.00  0.00    +0.292 HD
ENDBRANCH   5  51
TORSDOF 15
ENDMDL
MODEL 5
REMARK VINA RESULT:      -8.3      5.819     10.524
REMARK  Name = NuBBE_1245
REMARK  15 active torsions:
REMARK  status: ('A' for Active; 'I' for Inactive)
REMARK    1  A    between atoms: O_1  and  C_2
REMARK    2  A    between atoms: C_3  and  C_38
REMARK    3  A    between atoms: C_6  and  O_24
REMARK    4  A    between atoms: C_7  and  C_8
REMARK    5  A    between atoms: C_11  and  C_13
REMARK    6  A    between atoms: C_13  and  O_14
REMARK    7  A    between atoms: C_15  and  O_23
REMARK    8  A    between atoms: C_17  and  O_22
REMARK    9  A    between atoms: C_19  and  O_21
REMARK   10  A    between atoms: C_28  and  C_30
REMARK   11  A    between atoms: C_32  and  O_33
REMARK   12  A    between atoms: C_34  and  O_37
REMARK   13  A    between atoms: C_40  and  O_42
REMARK   14  A    between atoms: C_43  and  O_45
REMARK   15  A    between atoms: C_46  and  O_50
REMARK                            x       y       z     vdW  Elec       q    Type
REMARK                         _______ _______ _______ _____ _____    ______ ____
ROOT
ATOM      1  C   LIG A   1      -6.204   0.087 127.340  0.00  0.00    +0.135 A 
ATOM      2  C   LIG A   1      -6.663   0.563 126.083  0.00  0.00    +0.069 A 
ATOM      3  C   LIG A   1      -6.144   1.794 125.625  0.00  0.00    +0.152 A 
ATOM      4  C   LIG A   1      -5.244   2.520 126.413  0.00  0.00    +0.106 A 
ATOM      5  C   LIG A   1      -4.829   2.034 127.663  0.00  0.00    +0.140 A 
ATOM      6  C   LIG A   1      -5.303   0.809 128.159  0.00  0.00    +0.068 A 
ATOM      7  C   LIG A   1      -4.742   3.795 125.890  0.00  0.00    +0.197 A 
ATOM      8  O   LIG A   1      -4.002   4.514 126.572  0.00  0.00    -0.287 OA
ATOM      9  C   LIG A   1      -5.118   4.184 124.530  0.00  0.00    +0.098 A 
ATOM     10  C   LIG A   1      -5.950   3.389 123.848  0.00  0.00    +0.139 A 
ATOM     11  O   LIG A   1      -6.538   2.264 124.392  0.00  0.00    -0.454 OA
ENDROOT
BRANCH   6  12
ATOM     12  C   LIG A   1      -4.848   0.325 129.535  0.00  0.00    +0.187 C 
ATOM     13  O   LIG A   1      -4.683  -1.111 129.456  0.00  0.00    -0.361 OA
ATOM     14  C   LIG A   1      -4.104  -1.656 130.655  0.00  0.00    +0.175 C 
ATOM     15  C   LIG A   1      -5.071  -1.448 131.832  0.00  0.00    +0.176 C 
ATOM     16  C   LIG A   1      -5.366   0.045 131.987  0.00  0.00    +0.177 C 
ATOM     17  C   LIG A   1      -5.838   0.675 130.671  0.00  0.00    +0.179 C 
BRANCH  17  18
ATOM     18  O   LIG A   1      -5.963   2.086 130.863  0.00  0.00    -0.386 OA
ATOM     19  H   LIG A   1      -6.705   2.359 130.285  0.00  0.00    +0.210 HD
ENDBRANCH  17  18
BRANCH  16  20
ATOM     20  O   LIG A   1      -6.386   0.233 132.984  0.00  0.00    -0.387 OA
ATOM     21  H   LIG A   1      -7.002  -0.517 132.856  0.00  0.00    +0.210 HD
ENDBRANCH  16  20
BRANCH  15  22
ATOM     22  O   LIG A   1      -4.554  -1.922 133.080  0.00  0.00    -0.387 OA
ATOM     23  H   LIG A   1      -3.574  -1.904 133.005  0.00  0.00    +0.210 HD
ENDBRANCH  15  22
BRANCH  14  24
ATOM     24  C   LIG A   1      -3.815  -3.147 130.428  0.00  0.00    +0.190 C 
BRANCH  24  25
ATOM     25  O   LIG A   1      -3.097  -3.711 131.523  0.00  0.00    -0.392 OA
ATOM     26  H   LIG A   1      -3.541  -4.547 131.763  0.00  0.00    +0.209 HD
ENDBRANCH  24  25
ENDBRANCH  14  24
ENDBRANCH   6  12
BRANCH  10  27
ATOM     27  C   LIG A   1      -6.335   3.687 122.448  0.00  0.00    +0.021 A 
ATOM     28  C   LIG A   1      -7.656   3.482 122.009  0.00  0.00    +0.060 A 
ATOM     29  C   LIG A   1      -8.004   3.750 120.687  0.00  0.00    +0.159 A 
ATOM     30  C   LIG A   1      -7.052   4.219 119.787  0.00  0.00    +0.158 A 
ATOM     31  C   LIG A   1      -5.744   4.424 120.188  0.00  0.00    +0.050 A 
ATOM     32  C   LIG A   1      -5.387   4.150 121.511  0.00  0.00    +0.015 A 
BRANCH  29  33
ATOM     33  O   LIG A   1      -9.281   3.569 120.225  0.00  0.00    -0.503 OA
ATOM     34  H   LIG A   1      -9.684   4.447 120.089  0.00  0.00    +0.292 HD
ENDBRANCH  29  33
BRANCH  30  35
ATOM     35  O   LIG A   1      -7.398   4.480 118.493  0.00  0.00    -0.503 OA
ATOM     36  H   LIG A   1      -6.566   4.779 118.074  0.00  0.00    +0.292 HD
ENDBRANCH  30  35
ENDBRANCH  10  27
BRANCH   2  37
ATOM     37  C   LIG A   1      -7.651  -0.292 125.270  0.00  0.00    +0.186 C 
ATOM     38  C   LIG A   1      -9.135  -0.125 125.728  0.00  0.00    +0.179 C 
ATOM     39  C   LIG A   1      -9.901   0.817 124.791  0.00  0.00    +0.176 C 
ATOM     40  C   LIG A   1      -9.856   0.323 123.333  0.00  0.00    +0.171 C 
ATOM     41  C   LIG A   1      -8.588  -0.484 123.048  0.00  0.00    +0.194 C 
ATOM     42  O   LIG A   1      -7.503  -0.041 123.860  0.00  0.00    -0.366 OA
BRANCH  38  43
ATOM     43  O   LIG A   1      -9.796  -1.405 125.707  0.00  0.00    -0.386 OA
ATOM     44  H   LIG A   1      -9.805  -1.697 124.776  0.00  0.00    +0.210 HD
ENDBRANCH  38  43
BRANCH  39  45
ATOM     45  O   LIG A   1      -9.387   2.159 124.857  0.00  0.00    -0.387 OA
ATOM     46  H   LIG A   1     -10.110   2.724 125.194  0.00  0.00    +0.210 HD
ENDBRANCH  39  45
BRANCH  40  47
ATOM     47  O   LIG A   1      -9.917   1.457 122.441  0.00  0.00    -0.387 OA
ATOM     48  H   LIG A   1      -9.285   1.257 121.718  0.00  0.00    +0.210 HD
ENDBRANCH  40  47
ENDBRANCH   2  37
BRANCH   1  49
ATOM     49  O   LIG A   1      -6.657  -1.150 127.734  0.00  0.00    -0.506 OA
ATOM     50  H   LIG A   1      -7.409  -1.007 128.338  0.00  0.00    +0.292 HD
ENDBRANCH   1  49
BRANCH   5  51
ATOM     51  O   LIG A   1      -3.931   2.737 128.430  0.00  0.00    -0.505 OA
ATOM     52  H   LIG A   1      -4.037   3.699 128.244  0.00  0.00    +0.292 HD
ENDBRANCH   5  51
TORSDOF 15
ENDMDL
MODEL 6
REMARK VINA RESULT:      -8.0      4.194      5.865
REMARK  Name = NuBBE_1245
REMARK  15 active torsions:
REMARK  status: ('A' for Active; 'I' for Inactive)
REMARK    1  A    between atoms: O_1  and  C_2
REMARK    2  A    between atoms: C_3  and  C_38
REMARK    3  A    between atoms: C_6  and  O_24
REMARK    4  A    between atoms: C_7  and  C_8
REMARK    5  A    between atoms: C_11  and  C_13
REMARK    6  A    between atoms: C_13  and  O_14
REMARK    7  A    between atoms: C_15  and  O_23
REMARK    8  A    between atoms: C_17  and  O_22
REMARK    9  A    between atoms: C_19  and  O_21
REMARK   10  A    between atoms: C_28  and  C_30
REMARK   11  A    between atoms: C_32  and  O_33
REMARK   12  A    between atoms: C_34  and  O_37
REMARK   13  A    between atoms: C_40  and  O_42
REMARK   14  A    between atoms: C_43  and  O_45
REMARK   15  A    between atoms: C_46  and  O_50
REMARK                            x       y       z     vdW  Elec       q    Type
REMARK                         _______ _______ _______ _____ _____    ______ ____
ROOT
ATOM      1  C   LIG A   1      -8.374   1.496 128.993  0.00  0.00    +0.135 A 
ATOM      2  C   LIG A   1      -8.439   1.025 130.331  0.00  0.00    +0.069 A 
ATOM      3  C   LIG A   1      -8.035  -0.307 130.571  0.00  0.00    +0.152 A 
ATOM      4  C   LIG A   1      -7.626  -1.125 129.513  0.00  0.00    +0.106 A 
ATOM      5  C   LIG A   1      -7.597  -0.637 128.197  0.00  0.00    +0.140 A 
ATOM      6  C   LIG A   1      -7.975   0.683 127.905  0.00  0.00    +0.068 A 
ATOM      7  C   LIG A   1      -7.222  -2.501 129.820  0.00  0.00    +0.197 A 
ATOM      8  O   LIG A   1      -6.922  -3.292 128.917  0.00  0.00    -0.287 OA
ATOM      9  C   LIG A   1      -7.158  -2.908 131.224  0.00  0.00    +0.098 A 
ATOM     10  C   LIG A   1      -7.528  -2.027 132.160  0.00  0.00    +0.139 A 
ATOM     11  O   LIG A   1      -8.047  -0.782 131.864  0.00  0.00    -0.454 OA
ENDROOT
BRANCH   6  12
ATOM     12  C   LIG A   1      -7.955   1.171 126.456  0.00  0.00    +0.187 C 
ATOM     13  O   LIG A   1      -7.550   2.561 126.474  0.00  0.00    -0.361 OA
ATOM     14  C   LIG A   1      -7.343   3.081 125.148  0.00  0.00    +0.175 C 
ATOM     15  C   LIG A   1      -8.678   3.083 124.385  0.00  0.00    +0.176 C 
ATOM     16  C   LIG A   1      -9.239   1.660 124.341  0.00  0.00    +0.177 C 
ATOM     17  C   LIG A   1      -9.319   1.034 125.739  0.00  0.00    +0.179 C 
BRANCH  17  18
ATOM     18  O   LIG A   1      -9.723  -0.331 125.602  0.00  0.00    -0.386 OA
ATOM     19  H   LIG A   1     -10.178  -0.549 126.441  0.00  0.00    +0.210 HD
ENDBRANCH  17  18
BRANCH  16  20
ATOM     20  O   LIG A   1     -10.557   1.680 123.766  0.00  0.00    -0.387 OA
ATOM     21  H   LIG A   1     -10.462   1.221 122.907  0.00  0.00    +0.210 HD
ENDBRANCH  16  20
BRANCH  15  22
ATOM     22  O   LIG A   1      -8.558   3.545 123.035  0.00  0.00    -0.387 OA
ATOM     23  H   LIG A   1      -9.429   3.929 122.790  0.00  0.00    +0.210 HD
ENDBRANCH  15  22
BRANCH  14  24
ATOM     24  C   LIG A   1      -6.764   4.499 125.261  0.00  0.00    +0.190 C 
BRANCH  24  25
ATOM     25  O   LIG A   1      -7.795   5.484 125.266  0.00  0.00    -0.392 OA
ATOM     26  H   LIG A   1      -8.614   5.046 125.568  0.00  0.00    +0.209 HD
ENDBRANCH  24  25
ENDBRANCH  14  24
ENDBRANCH   6  12
BRANCH  10  27
ATOM     27  C   LIG A   1      -7.441  -2.346 133.605  0.00  0.00    +0.021 A 
ATOM     28  C   LIG A   1      -8.408  -3.164 134.218  0.00  0.00    +0.060 A 
ATOM     29  C   LIG A   1      -8.325  -3.445 135.580  0.00  0.00    +0.159 A 
ATOM     30  C   LIG A   1      -7.292  -2.918 136.349  0.00  0.00    +0.158 A 
ATOM     31  C   LIG A   1      -6.331  -2.105 135.775  0.00  0.00    +0.050 A 
ATOM     32  C   LIG A   1      -6.412  -1.814 134.411  0.00  0.00    +0.015 A 
BRANCH  29  33
ATOM     33  O   LIG A   1      -9.244  -4.243 136.210  0.00  0.00    -0.503 OA
ATOM     34  H   LIG A   1      -9.774  -3.683 136.809  0.00  0.00    +0.292 HD
ENDBRANCH  29  33
BRANCH  30  35
ATOM     35  O   LIG A   1      -7.216  -3.196 137.683  0.00  0.00    -0.503 OA
ATOM     36  H   LIG A   1      -6.259  -3.303 137.855  0.00  0.00    +0.292 HD
ENDBRANCH  30  35
ENDBRANCH  10  27
BRANCH   2  37
ATOM     37  C   LIG A   1      -8.895   1.984 131.445  0.00  0.00    +0.186 C 
ATOM     38  C   LIG A   1      -7.719   2.509 132.327  0.00  0.00    +0.179 C 
ATOM     39  C   LIG A   1      -7.307   3.927 131.914  0.00  0.00    +0.176 C 
ATOM     40  C   LIG A   1      -8.495   4.906 131.990  0.00  0.00    +0.171 C 
ATOM     41  C   LIG A   1      -9.829   4.193 131.761  0.00  0.00    +0.194 C 
ATOM     42  O   LIG A   1      -9.670   3.068 130.899  0.00  0.00    -0.366 OA
BRANCH  38  43
ATOM     43  O   LIG A   1      -8.129   2.551 133.707  0.00  0.00    -0.386 OA
ATOM     44  H   LIG A   1      -7.310   2.582 134.238  0.00  0.00    +0.210 HD
ENDBRANCH  38  43
BRANCH  39  45
ATOM     45  O   LIG A   1      -6.753   3.951 130.586  0.00  0.00    -0.387 OA
ATOM     46  H   LIG A   1      -7.365   4.474 130.032  0.00  0.00    +0.210 HD
ENDBRANCH  39  45
BRANCH  40  47
ATOM     47  O   LIG A   1      -8.325   5.943 131.001  0.00  0.00    -0.387 OA
ATOM     48  H   LIG A   1      -9.032   6.598 131.183  0.00  0.00    +0.210 HD
ENDBRANCH  40  47
ENDBRANCH   2  37
BRANCH   1  49
ATOM     49  O   LIG A   1      -8.694   2.817 128.788  0.00  0.00    -0.506 OA
ATOM     50  H   LIG A   1      -9.618   2.850 128.475  0.00  0.00    +0.292 HD
ENDBRANCH   1  49
BRANCH   5  51
ATOM     51  O   LIG A   1      -7.180  -1.434 127.158  0.00  0.00    -0.505 OA
ATOM     52  H   LIG A   1      -7.169  -2.371 127.460  0.00  0.00    +0.292 HD
ENDBRANCH   5  51
TORSDOF 15
ENDMDL
MODEL 7
REMARK VINA RESULT:      -8.0      2.887      8.973
REMARK  Name = NuBBE_1245
REMARK  15 active torsions:
REMARK  status: ('A' for Active; 'I' for Inactive)
REMARK    1  A    between atoms: O_1  and  C_2
REMARK    2  A    between atoms: C_3  and  C_38
REMARK    3  A    between atoms: C_6  and  O_24
REMARK    4  A    between atoms: C_7  and  C_8
REMARK    5  A    between atoms: C_11  and  C_13
REMARK    6  A    between atoms: C_13  and  O_14
REMARK    7  A    between atoms: C_15  and  O_23
REMARK    8  A    between atoms: C_17  and  O_22
REMARK    9  A    between atoms: C_19  and  O_21
REMARK   10  A    between atoms: C_28  and  C_30
REMARK   11  A    between atoms: C_32  and  O_33
REMARK   12  A    between atoms: C_34  and  O_37
REMARK   13  A    between atoms: C_40  and  O_42
REMARK   14  A    between atoms: C_43  and  O_45
REMARK   15  A    between atoms: C_46  and  O_50
REMARK                            x       y       z     vdW  Elec       q    Type
REMARK                         _______ _______ _______ _____ _____    ______ ____
ROOT
ATOM      1  C   LIG A   1      -7.549   1.253 130.064  0.00  0.00    +0.135 A 
ATOM      2  C   LIG A   1      -8.394   2.302 129.615  0.00  0.00    +0.069 A 
ATOM      3  C   LIG A   1      -8.909   3.185 130.589  0.00  0.00    +0.152 A 
ATOM      4  C   LIG A   1      -8.617   2.991 131.944  0.00  0.00    +0.106 A 
ATOM      5  C   LIG A   1      -7.799   1.929 132.359  0.00  0.00    +0.140 A 
ATOM      6  C   LIG A   1      -7.249   1.031 131.430  0.00  0.00    +0.068 A 
ATOM      7  C   LIG A   1      -9.184   3.935 132.914  0.00  0.00    +0.197 A 
ATOM      8  O   LIG A   1      -9.021   3.772 134.129  0.00  0.00    -0.287 OA
ATOM      9  C   LIG A   1      -9.925   5.090 132.405  0.00  0.00    +0.098 A 
ATOM     10  C   LIG A   1     -10.105   5.200 131.084  0.00  0.00    +0.139 A 
ATOM     11  O   LIG A   1      -9.698   4.237 130.182  0.00  0.00    -0.454 OA
ENDROOT
BRANCH   6  12
ATOM     12  C   LIG A   1      -6.384  -0.129 131.921  0.00  0.00    +0.187 C 
ATOM     13  O   LIG A   1      -5.331  -0.325 130.948  0.00  0.00    -0.361 OA
ATOM     14  C   LIG A   1      -4.360  -1.292 131.389  0.00  0.00    +0.175 C 
ATOM     15  C   LIG A   1      -5.030  -2.671 131.509  0.00  0.00    +0.176 C 
ATOM     16  C   LIG A   1      -6.205  -2.581 132.484  0.00  0.00    +0.177 C 
ATOM     17  C   LIG A   1      -7.170  -1.448 132.113  0.00  0.00    +0.179 C 
BRANCH  17  18
ATOM     18  O   LIG A   1      -8.161  -1.342 133.138  0.00  0.00    -0.386 OA
ATOM     19  H   LIG A   1      -8.423  -2.264 133.337  0.00  0.00    +0.210 HD
ENDBRANCH  17  18
BRANCH  16  20
ATOM     20  O   LIG A   1      -6.927  -3.824 132.483  0.00  0.00    -0.387 OA
ATOM     21  H   LIG A   1      -7.510  -3.775 131.697  0.00  0.00    +0.210 HD
ENDBRANCH  16  20
BRANCH  15  22
ATOM     22  O   LIG A   1      -4.145  -3.690 131.987  0.00  0.00    -0.387 OA
ATOM     23  H   LIG A   1      -3.597  -3.971 131.220  0.00  0.00    +0.210 HD
ENDBRANCH  15  22
BRANCH  14  24
ATOM     24  C   LIG A   1      -3.202  -1.321 130.381  0.00  0.00    +0.190 C 
BRANCH  24  25
ATOM     25  O   LIG A   1      -3.427  -2.286 129.356  0.00  0.00    -0.392 OA
ATOM     26  H   LIG A   1      -4.239  -2.022 128.882  0.00  0.00    +0.209 HD
ENDBRANCH  24  25
ENDBRANCH  14  24
ENDBRANCH   6  12
BRANCH  10  27
ATOM     27  C   LIG A   1     -10.799   6.368 130.489  0.00  0.00    +0.021 A 
ATOM     28  C   LIG A   1     -10.260   7.029 129.371  0.00  0.00    +0.060 A 
ATOM     29  C   LIG A   1     -10.912   8.134 128.829  0.00  0.00    +0.159 A 
ATOM     30  C   LIG A   1     -12.099   8.599 129.389  0.00  0.00    +0.158 A 
ATOM     31  C   LIG A   1     -12.649   7.973 130.493  0.00  0.00    +0.050 A 
ATOM     32  C   LIG A   1     -11.996   6.867 131.045  0.00  0.00    +0.015 A 
BRANCH  29  33
ATOM     33  O   LIG A   1     -10.421   8.799 127.737  0.00  0.00    -0.503 OA
ATOM     34  H   LIG A   1      -9.659   9.337 128.024  0.00  0.00    +0.292 HD
ENDBRANCH  29  33
BRANCH  30  35
ATOM     35  O   LIG A   1     -12.734   9.682 128.854  0.00  0.00    -0.503 OA
ATOM     36  H   LIG A   1     -12.227  10.449 129.186  0.00  0.00    +0.292 HD
ENDBRANCH  30  35
ENDBRANCH  10  27
BRANCH   2  37
ATOM     37  C   LIG A   1      -8.666   2.455 128.108  0.00  0.00    +0.186 C 
ATOM     38  C   LIG A   1      -7.781   3.546 127.427  0.00  0.00    +0.179 C 
ATOM     39  C   LIG A   1      -6.602   2.915 126.677  0.00  0.00    +0.176 C 
ATOM     40  C   LIG A   1      -7.082   1.899 125.623  0.00  0.00    +0.171 C 
ATOM     41  C   LIG A   1      -8.415   1.261 126.019  0.00  0.00    +0.194 C 
ATOM     42  O   LIG A   1      -8.548   1.187 127.436  0.00  0.00    -0.366 OA
BRANCH  38  43
ATOM     43  O   LIG A   1      -8.568   4.285 126.474  0.00  0.00    -0.386 OA
ATOM     44  H   LIG A   1      -9.401   3.788 126.358  0.00  0.00    +0.210 HD
ENDBRANCH  38  43
BRANCH  39  45
ATOM     45  O   LIG A   1      -5.686   2.270 127.580  0.00  0.00    -0.387 OA
ATOM     46  H   LIG A   1      -5.044   1.779 127.030  0.00  0.00    +0.210 HD
ENDBRANCH  39  45
BRANCH  40  47
ATOM     47  O   LIG A   1      -6.083   0.870 125.459  0.00  0.00    -0.387 OA
ATOM     48  H   LIG A   1      -6.538   0.133 124.999  0.00  0.00    +0.210 HD
ENDBRANCH  40  47
ENDBRANCH   2  37
BRANCH   1  49
ATOM     49  O   LIG A   1      -6.991   0.452 129.095  0.00  0.00    -0.506 OA
ATOM     50  H   LIG A   1      -7.697  -0.128 128.753  0.00  0.00    +0.292 HD
ENDBRANCH   1  49
BRANCH   5  51
ATOM     51  O   LIG A   1      -7.497   1.748 133.688  0.00  0.00    -0.505 OA
ATOM     52  H   LIG A   1      -8.328   1.546 134.178  0.00  0.00    +0.292 HD
ENDBRANCH   5  51
TORSDOF 15
ENDMDL
MODEL 8
REMARK VINA RESULT:      -7.8      6.133     10.618
REMARK  Name = NuBBE_1245
REMARK  15 active torsions:
REMARK  status: ('A' for Active; 'I' for Inactive)
REMARK    1  A    between atoms: O_1  and  C_2
REMARK    2  A    between atoms: C_3  and  C_38
REMARK    3  A    between atoms: C_6  and  O_24
REMARK    4  A    between atoms: C_7  and  C_8
REMARK    5  A    between atoms: C_11  and  C_13
REMARK    6  A    between atoms: C_13  and  O_14
REMARK    7  A    between atoms: C_15  and  O_23
REMARK    8  A    between atoms: C_17  and  O_22
REMARK    9  A    between atoms: C_19  and  O_21
REMARK   10  A    between atoms: C_28  and  C_30
REMARK   11  A    between atoms: C_32  and  O_33
REMARK   12  A    between atoms: C_34  and  O_37
REMARK   13  A    between atoms: C_40  and  O_42
REMARK   14  A    between atoms: C_43  and  O_45
REMARK   15  A    between atoms: C_46  and  O_50
REMARK                            x       y       z     vdW  Elec       q    Type
REMARK                         _______ _______ _______ _____ _____    ______ ____
ROOT
ATOM      1  C   LIG A   1      -6.917  -0.545 127.214  0.00  0.00    +0.135 A 
ATOM      2  C   LIG A   1      -7.247   0.034 125.960  0.00  0.00    +0.069 A 
ATOM      3  C   LIG A   1      -6.698   1.301 125.664  0.00  0.00    +0.152 A 
ATOM      4  C   LIG A   1      -5.893   1.959 126.600  0.00  0.00    +0.106 A 
ATOM      5  C   LIG A   1      -5.606   1.371 127.842  0.00  0.00    +0.140 A 
ATOM      6  C   LIG A   1      -6.115   0.107 128.181  0.00  0.00    +0.068 A 
ATOM      7  C   LIG A   1      -5.353   3.275 126.242  0.00  0.00    +0.197 A 
ATOM      8  O   LIG A   1      -4.697   3.936 127.056  0.00  0.00    -0.287 OA
ATOM      9  C   LIG A   1      -5.589   3.776 124.887  0.00  0.00    +0.098 A 
ATOM     10  C   LIG A   1      -6.336   3.040 124.057  0.00  0.00    +0.139 A 
ATOM     11  O   LIG A   1      -6.965   1.872 124.440  0.00  0.00    -0.454 OA
ENDROOT
BRANCH   6  12
ATOM     12  C   LIG A   1      -5.802  -0.490 129.552  0.00  0.00    +0.187 C 
ATOM     13  O   LIG A   1      -6.001   0.555 130.534  0.00  0.00    -0.361 OA
ATOM     14  C   LIG A   1      -5.887   0.060 131.881  0.00  0.00    +0.175 C 
ATOM     15  C   LIG A   1      -4.450  -0.427 132.128  0.00  0.00    +0.176 C 
ATOM     16  C   LIG A   1      -4.099  -1.511 131.107  0.00  0.00    +0.177 C 
ATOM     17  C   LIG A   1      -4.364  -1.050 129.669  0.00  0.00    +0.179 C 
BRANCH  17  18
ATOM     18  O   LIG A   1      -4.142  -2.155 128.790  0.00  0.00    -0.386 OA
ATOM     19  H   LIG A   1      -4.326  -2.951 129.328  0.00  0.00    +0.210 HD
ENDBRANCH  17  18
BRANCH  16  20
ATOM     20  O   LIG A   1      -2.710  -1.860 131.234  0.00  0.00    -0.387 OA
ATOM     21  H   LIG A   1      -2.393  -1.350 132.007  0.00  0.00    +0.210 HD
ENDBRANCH  16  20
BRANCH  15  22
ATOM     22  O   LIG A   1      -4.256  -0.980 133.434  0.00  0.00    -0.387 OA
ATOM     23  H   LIG A   1      -3.286  -0.992 133.594  0.00  0.00    +0.210 HD
ENDBRANCH  15  22
BRANCH  14  24
ATOM     24  C   LIG A   1      -6.269   1.186 132.853  0.00  0.00    +0.190 C 
BRANCH  24  25
ATOM     25  O   LIG A   1      -7.662   1.165 133.154  0.00  0.00    -0.392 OA
ATOM     26  H   LIG A   1      -8.138   1.467 132.356  0.00  0.00    +0.209 HD
ENDBRANCH  24  25
ENDBRANCH  14  24
ENDBRANCH   6  12
BRANCH  10  27
ATOM     27  C   LIG A   1      -6.576   3.454 122.654  0.00  0.00    +0.021 A 
ATOM     28  C   LIG A   1      -7.855   3.335 122.080  0.00  0.00    +0.060 A 
ATOM     29  C   LIG A   1      -8.065   3.713 120.755  0.00  0.00    +0.159 A 
ATOM     30  C   LIG A   1      -7.016   4.206 119.986  0.00  0.00    +0.158 A 
ATOM     31  C   LIG A   1      -5.747   4.328 120.521  0.00  0.00    +0.050 A 
ATOM     32  C   LIG A   1      -5.527   3.945 121.847  0.00  0.00    +0.015 A 
BRANCH  29  33
ATOM     33  O   LIG A   1      -9.298   3.617 120.165  0.00  0.00    -0.503 OA
ATOM     34  H   LIG A   1      -9.768   4.461 120.301  0.00  0.00    +0.292 HD
ENDBRANCH  29  33
BRANCH  30  35
ATOM     35  O   LIG A   1      -7.228   4.575 118.689  0.00  0.00    -0.503 OA
ATOM     36  H   LIG A   1      -7.147   5.549 118.696  0.00  0.00    +0.292 HD
ENDBRANCH  30  35
ENDBRANCH  10  27
BRANCH   2  37
ATOM     37  C   LIG A   1      -8.135  -0.752 124.979  0.00  0.00    +0.186 C 
ATOM     38  C   LIG A   1      -7.349  -1.327 123.759  0.00  0.00    +0.179 C 
ATOM     39  C   LIG A   1      -7.043  -2.817 123.948  0.00  0.00    +0.176 C 
ATOM     40  C   LIG A   1      -8.329  -3.634 124.173  0.00  0.00    +0.171 C 
ATOM     41  C   LIG A   1      -9.426  -2.793 124.829  0.00  0.00    +0.194 C 
ATOM     42  O   LIG A   1      -8.867  -1.784 125.667  0.00  0.00    -0.366 OA
BRANCH  38  43
ATOM     43  O   LIG A   1      -8.139  -1.186 122.562  0.00  0.00    -0.386 OA
ATOM     44  H   LIG A   1      -8.173  -0.230 122.364  0.00  0.00    +0.210 HD
ENDBRANCH  38  43
BRANCH  39  45
ATOM     45  O   LIG A   1      -6.141  -3.034 125.048  0.00  0.00    -0.387 OA
ATOM     46  H   LIG A   1      -5.786  -2.159 125.303  0.00  0.00    +0.210 HD
ENDBRANCH  39  45
BRANCH  40  47
ATOM     47  O   LIG A   1      -8.032  -4.775 125.006  0.00  0.00    -0.387 OA
ATOM     48  H   LIG A   1      -7.155  -5.097 124.709  0.00  0.00    +0.210 HD
ENDBRANCH  40  47
ENDBRANCH   2  37
BRANCH   1  49
ATOM     49  O   LIG A   1      -7.394  -1.812 127.453  0.00  0.00    -0.506 OA
ATOM     50  H   LIG A   1      -8.014  -1.755 128.205  0.00  0.00    +0.292 HD
ENDBRANCH   1  49
BRANCH   5  51
ATOM     51  O   LIG A   1      -4.801   2.009 128.756  0.00  0.00    -0.505 OA
ATOM     52  H   LIG A   1      -4.692   2.949 128.482  0.00  0.00    +0.292 HD
ENDBRANCH   5  51
TORSDOF 15
ENDMDL
MODEL 9
REMARK VINA RESULT:      -7.8      4.532      6.053
REMARK  Name = NuBBE_1245
REMARK  15 active torsions:
REMARK  status: ('A' for Active; 'I' for Inactive)
REMARK    1  A    between atoms: O_1  and  C_2
REMARK    2  A    between atoms: C_3  and  C_38
REMARK    3  A    between atoms: C_6  and  O_24
REMARK    4  A    between atoms: C_7  and  C_8
REMARK    5  A    between atoms: C_11  and  C_13
REMARK    6  A    between atoms: C_13  and  O_14
REMARK    7  A    between atoms: C_15  and  O_23
REMARK    8  A    between atoms: C_17  and  O_22
REMARK    9  A    between atoms: C_19  and  O_21
REMARK   10  A    between atoms: C_28  and  C_30
REMARK   11  A    between atoms: C_32  and  O_33
REMARK   12  A    between atoms: C_34  and  O_37
REMARK   13  A    between atoms: C_40  and  O_42
REMARK   14  A    between atoms: C_43  and  O_45
REMARK   15  A    between atoms: C_46  and  O_50
REMARK                            x       y       z     vdW  Elec       q    Type
REMARK                         _______ _______ _______ _____ _____    ______ ____
ROOT
ATOM      1  C   LIG A   1      -8.432   1.646 128.304  0.00  0.00    +0.135 A 
ATOM      2  C   LIG A   1      -8.222   0.801 129.425  0.00  0.00    +0.069 A 
ATOM      3  C   LIG A   1      -7.844  -0.536 129.170  0.00  0.00    +0.152 A 
ATOM      4  C   LIG A   1      -7.726  -0.999 127.855  0.00  0.00    +0.106 A 
ATOM      5  C   LIG A   1      -7.967  -0.145 126.767  0.00  0.00    +0.140 A 
ATOM      6  C   LIG A   1      -8.331   1.196 126.965  0.00  0.00    +0.068 A 
ATOM      7  C   LIG A   1      -7.336  -2.398 127.648  0.00  0.00    +0.197 A 
ATOM      8  O   LIG A   1      -7.288  -2.884 126.512  0.00  0.00    -0.287 OA
ATOM      9  C   LIG A   1      -6.981  -3.200 128.820  0.00  0.00    +0.098 A 
ATOM     10  C   LIG A   1      -7.085  -2.639 130.030  0.00  0.00    +0.139 A 
ATOM     11  O   LIG A   1      -7.592  -1.371 130.235  0.00  0.00    -0.454 OA
ENDROOT
BRANCH   6  12
ATOM     12  C   LIG A   1      -8.610   2.089 125.757  0.00  0.00    +0.187 C 
ATOM     13  O   LIG A   1      -9.075   1.233 124.685  0.00  0.00    -0.361 OA
ATOM     14  C   LIG A   1      -9.520   1.990 123.544  0.00  0.00    +0.175 C 
ATOM     15  C   LIG A   1      -8.329   2.748 122.937  0.00  0.00    +0.176 C 
ATOM     16  C   LIG A   1      -7.713   3.660 124.000  0.00  0.00    +0.177 C 
ATOM     17  C   LIG A   1      -7.376   2.894 125.285  0.00  0.00    +0.179 C 
BRANCH  17  18
ATOM     18  O   LIG A   1      -6.934   3.831 126.269  0.00  0.00    -0.386 OA
ATOM     19  H   LIG A   1      -6.687   4.634 125.766  0.00  0.00    +0.210 HD
ENDBRANCH  17  18
BRANCH  16  20
ATOM     20  O   LIG A   1      -6.509   4.254 123.485  0.00  0.00    -0.387 OA
ATOM     21  H   LIG A   1      -6.178   3.616 122.822  0.00  0.00    +0.210 HD
ENDBRANCH  16  20
BRANCH  15  22
ATOM     22  O   LIG A   1      -8.690   3.566 121.818  0.00  0.00    -0.387 OA
ATOM     23  H   LIG A   1      -9.141   4.360 122.183  0.00  0.00    +0.210 HD
ENDBRANCH  15  22
BRANCH  14  24
ATOM     24  C   LIG A   1     -10.142   1.022 122.526  0.00  0.00    +0.190 C 
BRANCH  24  25
ATOM     25  O   LIG A   1      -9.960  -0.336 122.919  0.00  0.00    -0.392 OA
ATOM     26  H   LIG A   1     -10.511  -0.486 123.712  0.00  0.00    +0.209 HD
ENDBRANCH  24  25
ENDBRANCH  14  24
ENDBRANCH   6  12
BRANCH  10  27
ATOM     27  C   LIG A   1      -6.694  -3.368 131.261  0.00  0.00    +0.021 A 
ATOM     28  C   LIG A   1      -7.265  -3.036 132.503  0.00  0.00    +0.060 A 
ATOM     29  C   LIG A   1      -6.879  -3.717 133.655  0.00  0.00    +0.159 A 
ATOM     30  C   LIG A   1      -5.924  -4.727 133.592  0.00  0.00    +0.158 A 
ATOM     31  C   LIG A   1      -5.340  -5.071 132.386  0.00  0.00    +0.050 A 
ATOM     32  C   LIG A   1      -5.719  -4.387 131.228  0.00  0.00    +0.015 A 
BRANCH  29  33
ATOM     33  O   LIG A   1      -7.418  -3.426 134.881  0.00  0.00    -0.503 OA
ATOM     34  H   LIG A   1      -6.708  -3.485 135.548  0.00  0.00    +0.292 HD
ENDBRANCH  29  33
BRANCH  30  35
ATOM     35  O   LIG A   1      -5.549  -5.391 134.724  0.00  0.00    -0.503 OA
ATOM     36  H   LIG A   1      -5.870  -6.305 134.588  0.00  0.00    +0.292 HD
ENDBRANCH  30  35
ENDBRANCH  10  27
BRANCH   2  37
ATOM     37  C   LIG A   1      -8.365   1.382 130.843  0.00  0.00    +0.186 C 
ATOM     38  C   LIG A   1      -6.998   1.748 131.502  0.00  0.00    +0.179 C 
ATOM     39  C   LIG A   1      -6.726   3.254 131.415  0.00  0.00    +0.176 C 
ATOM     40  C   LIG A   1      -7.857   4.072 132.068  0.00  0.00    +0.171 C 
ATOM     41  C   LIG A   1      -9.197   3.337 132.000  0.00  0.00    +0.194 C 
ATOM     42  O   LIG A   1      -9.268   2.504 130.845  0.00  0.00    -0.366 OA
BRANCH  38  43
ATOM     43  O   LIG A   1      -7.017   1.381 132.895  0.00  0.00    -0.386 OA
ATOM     44  H   LIG A   1      -7.826   1.775 133.274  0.00  0.00    +0.210 HD
ENDBRANCH  38  43
BRANCH  39  45
ATOM     45  O   LIG A   1      -6.555   3.682 130.051  0.00  0.00    -0.387 OA
ATOM     46  H   LIG A   1      -6.814   4.624 130.013  0.00  0.00    +0.210 HD
ENDBRANCH  39  45
BRANCH  40  47
ATOM     47  O   LIG A   1      -7.971   5.348 131.403  0.00  0.00    -0.387 OA
ATOM     48  H   LIG A   1      -8.686   5.827 131.875  0.00  0.00    +0.210 HD
ENDBRANCH  40  47
ENDBRANCH   2  37
BRANCH   1  49
ATOM     49  O   LIG A   1      -8.721   2.964 128.570  0.00  0.00    -0.506 OA
ATOM     50  H   LIG A   1      -9.665   3.104 128.366  0.00  0.00    +0.292 HD
ENDBRANCH   1  49
BRANCH   5  51
ATOM     51  O   LIG A   1      -7.835  -0.594 125.475  0.00  0.00    -0.505 OA
ATOM     52  H   LIG A   1      -7.556   0.158 124.903  0.00  0.00    +0.292 HD
ENDBRANCH   5  51
TORSDOF 15
ENDMDL
