MODEL 1
REMARK VINA RESULT:      -7.3      0.000      0.000
REMARK  Name = NuBBE_1959
REMARK  8 active torsions:
REMARK  status: ('A' for Active; 'I' for Inactive)
REMARK    1  A    between atoms: C_4  and  C_7
REMARK    2  A    between atoms: C_5  and  O_6
REMARK    3  A    between atoms: C_7  and  C_8
REMARK    4  A    between atoms: C_10  and  C_12
REMARK    5  A    between atoms: C_19  and  O_20
REMARK    6  A    between atoms: O_20  and  C_21
REMARK    7  A    between atoms: C_23  and  C_24
REMARK    8  A    between atoms: C_26  and  O_27
REMARK                            x       y       z     vdW  Elec       q    Type
REMARK                         _______ _______ _______ _____ _____    ______ ____
ROOT
ATOM      1  O   LIG A   1      -8.847   2.566 127.939  0.00  0.00    -0.295 OA
ATOM      2  C   LIG A   1      -7.883   2.960 127.286  0.00  0.00    +0.163 C 
ATOM      3  C   LIG A   1      -6.505   2.354 127.488  0.00  0.00    +0.087 C 
ATOM      4  C   LIG A   1      -5.466   2.819 126.443  0.00  0.00    +0.014 C 
ATOM      5  C   LIG A   1      -5.550   4.368 126.378  0.00  0.00    +0.128 C 
ATOM      6  C   LIG A   1      -5.826   2.364 124.965  0.00  0.00    +0.032 C 
ATOM      7  C   LIG A   1      -6.549   3.608 124.347  0.00  0.00    +0.002 C 
ATOM      8  C   LIG A   1      -5.668   4.278 123.281  0.00  0.00    +0.009 C 
ATOM      9  C   LIG A   1      -6.806   4.555 125.538  0.00  0.00    +0.057 C 
ATOM     10  C   LIG A   1      -8.052   4.160 126.340  0.00  0.00    +0.186 C 
ENDROOT
BRANCH   6  11
ATOM     11  C   LIG A   1      -6.576   1.040 124.751  0.00  0.00    -0.036 A 
ATOM     12  C   LIG A   1      -6.004  -0.211 125.044  0.00  0.00    +0.053 A 
ATOM     13  C   LIG A   1      -6.758  -1.359 124.895  0.00  0.00    +0.170 A 
ATOM     14  C   LIG A   1      -8.064  -1.332 124.477  0.00  0.00    +0.207 A 
ATOM     15  O   LIG A   1      -8.594  -2.587 124.435  0.00  0.00    -0.449 OA
ATOM     16  C   LIG A   1      -7.461  -3.396 124.783  0.00  0.00    +0.467 C 
ATOM     17  O   LIG A   1      -6.311  -2.619 125.158  0.00  0.00    -0.453 OA
ATOM     18  C   LIG A   1      -8.688  -0.137 124.173  0.00  0.00    +0.166 A 
ATOM     19  C   LIG A   1      -7.928   1.048 124.308  0.00  0.00    +0.053 A 
BRANCH  18  20
ATOM     20  O   LIG A   1      -9.985   0.017 123.757  0.00  0.00    -0.491 OA
ATOM     21  C   LIG A   1     -10.167   0.576 122.455  0.00  0.00    +0.277 C 
ENDBRANCH  18  20
ENDBRANCH   6  11
BRANCH   5  22
ATOM     22  O   LIG A   1      -5.637   4.966 127.659  0.00  0.00    -0.391 OA
ATOM     23  H   LIG A   1      -5.264   4.348 128.320  0.00  0.00    +0.210 HD
ENDBRANCH   5  22
BRANCH  10  24
ATOM     24  O   LIG A   1      -8.461   5.282 127.126  0.00  0.00    -0.384 OA
ATOM     25  H   LIG A   1      -9.440   5.276 127.095  0.00  0.00    +0.210 HD
ENDBRANCH  10  24
BRANCH   4  26
ATOM     26  C   LIG A   1      -4.055   2.370 126.918  0.00  0.00    +0.037 C 
BRANCH  26  27
ATOM     27  C   LIG A   1      -2.917   3.291 126.556  0.00  0.00    -0.034 C 
ATOM     28  C   LIG A   1      -1.624   2.945 126.593  0.00  0.00    +0.004 C 
ENDBRANCH  26  27
ENDBRANCH   4  26
TORSDOF 6
ENDMDL
MODEL 2
REMARK VINA RESULT:      -7.3      3.660      6.321
REMARK  Name = NuBBE_1959
REMARK  8 active torsions:
REMARK  status: ('A' for Active; 'I' for Inactive)
REMARK    1  A    between atoms: C_4  and  C_7
REMARK    2  A    between atoms: C_5  and  O_6
REMARK    3  A    between atoms: C_7  and  C_8
REMARK    4  A    between atoms: C_10  and  C_12
REMARK    5  A    between atoms: C_19  and  O_20
REMARK    6  A    between atoms: O_20  and  C_21
REMARK    7  A    between atoms: C_23  and  C_24
REMARK    8  A    between atoms: C_26  and  O_27
REMARK                            x       y       z     vdW  Elec       q    Type
REMARK                         _______ _______ _______ _____ _____    ______ ____
ROOT
ATOM      1  O   LIG A   1      -6.752   1.882 126.706  0.00  0.00    -0.295 OA
ATOM      2  C   LIG A   1      -7.012   0.835 126.118  0.00  0.00    +0.163 C 
ATOM      3  C   LIG A   1      -5.902  -0.078 125.628  0.00  0.00    +0.087 C 
ATOM      4  C   LIG A   1      -6.410  -1.441 125.103  0.00  0.00    +0.014 C 
ATOM      5  C   LIG A   1      -7.565  -1.143 124.110  0.00  0.00    +0.128 C 
ATOM      6  C   LIG A   1      -7.102  -2.320 126.230  0.00  0.00    +0.032 C 
ATOM      7  C   LIG A   1      -8.631  -2.030 126.054  0.00  0.00    +0.002 C 
ATOM      8  C   LIG A   1      -9.359  -3.262 125.491  0.00  0.00    +0.009 C 
ATOM      9  C   LIG A   1      -8.704  -0.840 125.075  0.00  0.00    +0.057 C 
ATOM     10  C   LIG A   1      -8.473   0.505 125.773  0.00  0.00    +0.186 C 
ENDROOT
BRANCH   6  11
ATOM     11  C   LIG A   1      -6.610  -2.202 127.680  0.00  0.00    -0.036 A 
ATOM     12  C   LIG A   1      -7.480  -1.969 128.759  0.00  0.00    +0.053 A 
ATOM     13  C   LIG A   1      -6.981  -1.942 130.047  0.00  0.00    +0.170 A 
ATOM     14  C   LIG A   1      -5.654  -2.146 130.326  0.00  0.00    +0.207 A 
ATOM     15  O   LIG A   1      -5.418  -2.096 131.667  0.00  0.00    -0.449 OA
ATOM     16  C   LIG A   1      -6.714  -1.754 132.180  0.00  0.00    +0.467 C 
ATOM     17  O   LIG A   1      -7.731  -1.736 131.165  0.00  0.00    -0.453 OA
ATOM     18  C   LIG A   1      -4.743  -2.381 129.312  0.00  0.00    +0.166 A 
ATOM     19  C   LIG A   1      -5.234  -2.399 127.986  0.00  0.00    +0.053 A 
BRANCH  18  20
ATOM     20  O   LIG A   1      -3.400  -2.607 129.466  0.00  0.00    -0.491 OA
ATOM     21  C   LIG A   1      -2.914  -3.864 128.991  0.00  0.00    +0.277 C 
ENDBRANCH  18  20
ENDBRANCH   6  11
BRANCH   5  22
ATOM     22  O   LIG A   1      -7.271  -0.069 123.234  0.00  0.00    -0.391 OA
ATOM     23  H   LIG A   1      -6.982   0.700 123.766  0.00  0.00    +0.210 HD
ENDBRANCH   5  22
BRANCH  10  24
ATOM     24  O   LIG A   1      -8.968   1.547 124.927  0.00  0.00    -0.384 OA
ATOM     25  H   LIG A   1      -8.289   1.657 124.229  0.00  0.00    +0.210 HD
ENDBRANCH  10  24
BRANCH   4  26
ATOM     26  C   LIG A   1      -5.236  -2.155 124.374  0.00  0.00    +0.037 C 
BRANCH  26  27
ATOM     27  C   LIG A   1      -5.447  -3.618 124.069  0.00  0.00    -0.034 C 
ATOM     28  C   LIG A   1      -4.473  -4.461 123.705  0.00  0.00    +0.004 C 
ENDBRANCH  26  27
ENDBRANCH   4  26
TORSDOF 6
ENDMDL
MODEL 3
REMARK VINA RESULT:      -7.3      3.558      5.947
REMARK  Name = NuBBE_1959
REMARK  8 active torsions:
REMARK  status: ('A' for Active; 'I' for Inactive)
REMARK    1  A    between atoms: C_4  and  C_7
REMARK    2  A    between atoms: C_5  and  O_6
REMARK    3  A    between atoms: C_7  and  C_8
REMARK    4  A    between atoms: C_10  and  C_12
REMARK    5  A    between atoms: C_19  and  O_20
REMARK    6  A    between atoms: O_20  and  C_21
REMARK    7  A    between atoms: C_23  and  C_24
REMARK    8  A    between atoms: C_26  and  O_27
REMARK                            x       y       z     vdW  Elec       q    Type
REMARK                         _______ _______ _______ _____ _____    ______ ____
ROOT
ATOM      1  O   LIG A   1      -6.997   1.975 127.149  0.00  0.00    -0.295 OA
ATOM      2  C   LIG A   1      -7.263   0.977 126.484  0.00  0.00    +0.163 C 
ATOM      3  C   LIG A   1      -6.162   0.159 125.832  0.00  0.00    +0.087 C 
ATOM      4  C   LIG A   1      -6.660  -1.169 125.217  0.00  0.00    +0.014 C 
ATOM      5  C   LIG A   1      -7.895  -0.828 124.341  0.00  0.00    +0.128 C 
ATOM      6  C   LIG A   1      -7.237  -2.176 126.301  0.00  0.00    +0.032 C 
ATOM      7  C   LIG A   1      -8.784  -1.934 126.261  0.00  0.00    +0.002 C 
ATOM      8  C   LIG A   1      -9.509  -3.137 125.636  0.00  0.00    +0.009 C 
ATOM      9  C   LIG A   1      -8.969  -0.663 125.407  0.00  0.00    +0.057 C 
ATOM     10  C   LIG A   1      -8.734   0.621 126.212  0.00  0.00    +0.186 C 
ENDROOT
BRANCH   6  11
ATOM     11  C   LIG A   1      -6.644  -2.172 127.718  0.00  0.00    -0.036 A 
ATOM     12  C   LIG A   1      -5.274  -2.370 127.967  0.00  0.00    +0.053 A 
ATOM     13  C   LIG A   1      -4.795  -2.285 129.260  0.00  0.00    +0.170 A 
ATOM     14  C   LIG A   1      -5.607  -2.001 130.328  0.00  0.00    +0.207 A 
ATOM     15  O   LIG A   1      -4.894  -1.948 131.489  0.00  0.00    -0.449 OA
ATOM     16  C   LIG A   1      -3.580  -2.314 131.043  0.00  0.00    +0.467 C 
ATOM     17  O   LIG A   1      -3.490  -2.449 129.615  0.00  0.00    -0.453 OA
ATOM     18  C   LIG A   1      -6.963  -1.794 130.154  0.00  0.00    +0.166 A 
ATOM     19  C   LIG A   1      -7.474  -1.890 128.839  0.00  0.00    +0.053 A 
BRANCH  18  20
ATOM     20  O   LIG A   1      -7.869  -1.496 131.138  0.00  0.00    -0.491 OA
ATOM     21  C   LIG A   1      -8.284  -0.132 131.220  0.00  0.00    +0.277 C 
ENDBRANCH  18  20
ENDBRANCH   6  11
BRANCH   5  22
ATOM     22  O   LIG A   1      -7.703   0.333 123.552  0.00  0.00    -0.391 OA
ATOM     23  H   LIG A   1      -8.244   0.255 122.741  0.00  0.00    +0.210 HD
ENDBRANCH   5  22
BRANCH  10  24
ATOM     24  O   LIG A   1      -9.325   1.715 125.506  0.00  0.00    -0.384 OA
ATOM     25  H   LIG A   1      -9.077   2.515 126.015  0.00  0.00    +0.210 HD
ENDBRANCH  10  24
BRANCH   4  26
ATOM     26  C   LIG A   1      -5.519  -1.765 124.344  0.00  0.00    +0.037 C 
BRANCH  26  27
ATOM     27  C   LIG A   1      -5.590  -3.251 124.097  0.00  0.00    -0.034 C 
ATOM     28  C   LIG A   1      -4.548  -4.006 123.729  0.00  0.00    +0.004 C 
ENDBRANCH  26  27
ENDBRANCH   4  26
TORSDOF 6
ENDMDL
MODEL 4
REMARK VINA RESULT:      -7.3      2.669      6.439
REMARK  Name = NuBBE_1959
REMARK  8 active torsions:
REMARK  status: ('A' for Active; 'I' for Inactive)
REMARK    1  A    between atoms: C_4  and  C_7
REMARK    2  A    between atoms: C_5  and  O_6
REMARK    3  A    between atoms: C_7  and  C_8
REMARK    4  A    between atoms: C_10  and  C_12
REMARK    5  A    between atoms: C_19  and  O_20
REMARK    6  A    between atoms: O_20  and  C_21
REMARK    7  A    between atoms: C_23  and  C_24
REMARK    8  A    between atoms: C_26  and  O_27
REMARK                            x       y       z     vdW  Elec       q    Type
REMARK                         _______ _______ _______ _____ _____    ______ ____
ROOT
ATOM      1  O   LIG A   1      -8.407   1.658 123.279  0.00  0.00    -0.295 OA
ATOM      2  C   LIG A   1      -8.224   0.494 123.631  0.00  0.00    +0.163 C 
ATOM      3  C   LIG A   1      -6.820  -0.046 123.835  0.00  0.00    +0.087 C 
ATOM      4  C   LIG A   1      -6.786  -1.452 124.476  0.00  0.00    +0.014 C 
ATOM      5  C   LIG A   1      -7.770  -2.342 123.671  0.00  0.00    +0.128 C 
ATOM      6  C   LIG A   1      -7.378  -1.477 125.949  0.00  0.00    +0.032 C 
ATOM      7  C   LIG A   1      -8.863  -1.937 125.755  0.00  0.00    +0.002 C 
ATOM      8  C   LIG A   1      -9.067  -3.362 126.296  0.00  0.00    +0.009 C 
ATOM      9  C   LIG A   1      -9.106  -1.876 124.233  0.00  0.00    +0.057 C 
ATOM     10  C   LIG A   1      -9.427  -0.456 123.751  0.00  0.00    +0.186 C 
ENDROOT
BRANCH   6  11
ATOM     11  C   LIG A   1      -7.225  -0.233 126.839  0.00  0.00    -0.036 A 
ATOM     12  C   LIG A   1      -8.311   0.588 127.188  0.00  0.00    +0.053 A 
ATOM     13  C   LIG A   1      -8.117   1.651 128.048  0.00  0.00    +0.170 A 
ATOM     14  C   LIG A   1      -6.892   1.940 128.595  0.00  0.00    +0.207 A 
ATOM     15  O   LIG A   1      -6.965   3.016 129.427  0.00  0.00    -0.449 OA
ATOM     16  C   LIG A   1      -8.335   3.415 129.272  0.00  0.00    +0.467 C 
ATOM     17  O   LIG A   1      -9.095   2.503 128.462  0.00  0.00    -0.453 OA
ATOM     18  C   LIG A   1      -5.781   1.173 128.294  0.00  0.00    +0.166 A 
ATOM     19  C   LIG A   1      -5.959   0.088 127.405  0.00  0.00    +0.053 A 
BRANCH  18  20
ATOM     20  O   LIG A   1      -4.514   1.357 128.783  0.00  0.00    -0.491 OA
ATOM     21  C   LIG A   1      -4.232   0.752 130.046  0.00  0.00    +0.277 C 
ENDBRANCH  18  20
ENDBRANCH   6  11
BRANCH   5  22
ATOM     22  O   LIG A   1      -7.656  -2.157 122.271  0.00  0.00    -0.391 OA
ATOM     23  H   LIG A   1      -6.812  -1.698 122.083  0.00  0.00    +0.210 HD
ENDBRANCH   5  22
BRANCH  10  24
ATOM     24  O   LIG A   1     -10.046  -0.542 122.464  0.00  0.00    -0.384 OA
ATOM     25  H   LIG A   1     -10.725  -1.242 122.551  0.00  0.00    +0.210 HD
ENDBRANCH  10  24
BRANCH   4  26
ATOM     26  C   LIG A   1      -5.337  -2.007 124.367  0.00  0.00    +0.037 C 
BRANCH  26  27
ATOM     27  C   LIG A   1      -5.215  -3.507 124.265  0.00  0.00    -0.034 C 
ATOM     28  C   LIG A   1      -4.269  -4.142 123.563  0.00  0.00    +0.004 C 
ENDBRANCH  26  27
ENDBRANCH   4  26
TORSDOF 6
ENDMDL
MODEL 5
REMARK VINA RESULT:      -7.2      2.260      6.161
REMARK  Name = NuBBE_1959
REMARK  8 active torsions:
REMARK  status: ('A' for Active; 'I' for Inactive)
REMARK    1  A    between atoms: C_4  and  C_7
REMARK    2  A    between atoms: C_5  and  O_6
REMARK    3  A    between atoms: C_7  and  C_8
REMARK    4  A    between atoms: C_10  and  C_12
REMARK    5  A    between atoms: C_19  and  O_20
REMARK    6  A    between atoms: O_20  and  C_21
REMARK    7  A    between atoms: C_23  and  C_24
REMARK    8  A    between atoms: C_26  and  O_27
REMARK                            x       y       z     vdW  Elec       q    Type
REMARK                         _______ _______ _______ _____ _____    ______ ____
ROOT
ATOM      1  O   LIG A   1      -8.399   1.554 123.035  0.00  0.00    -0.295 OA
ATOM      2  C   LIG A   1      -8.199   0.411 123.440  0.00  0.00    +0.163 C 
ATOM      3  C   LIG A   1      -6.794  -0.163 123.488  0.00  0.00    +0.087 C 
ATOM      4  C   LIG A   1      -6.707  -1.524 124.217  0.00  0.00    +0.014 C 
ATOM      5  C   LIG A   1      -7.817  -2.430 123.619  0.00  0.00    +0.128 C 
ATOM      6  C   LIG A   1      -7.091  -1.430 125.755  0.00  0.00    +0.032 C 
ATOM      7  C   LIG A   1      -8.599  -1.850 125.799  0.00  0.00    +0.002 C 
ATOM      8  C   LIG A   1      -8.763  -3.227 126.462  0.00  0.00    +0.009 C 
ATOM      9  C   LIG A   1      -9.050  -1.881 124.324  0.00  0.00    +0.057 C 
ATOM     10  C   LIG A   1      -9.397  -0.486 123.790  0.00  0.00    +0.186 C 
ENDROOT
BRANCH   6  11
ATOM     11  C   LIG A   1      -6.783  -0.136 126.525  0.00  0.00    -0.036 A 
ATOM     12  C   LIG A   1      -5.480   0.372 126.664  0.00  0.00    +0.053 A 
ATOM     13  C   LIG A   1      -5.280   1.577 127.309  0.00  0.00    +0.170 A 
ATOM     14  C   LIG A   1      -6.315   2.317 127.821  0.00  0.00    +0.207 A 
ATOM     15  O   LIG A   1      -5.864   3.473 128.384  0.00  0.00    -0.449 OA
ATOM     16  C   LIG A   1      -4.442   3.330 128.248  0.00  0.00    +0.467 C 
ATOM     17  O   LIG A   1      -4.066   2.167 127.492  0.00  0.00    -0.453 OA
ATOM     18  C   LIG A   1      -7.622   1.877 127.718  0.00  0.00    +0.166 A 
ATOM     19  C   LIG A   1      -7.844   0.639 127.072  0.00  0.00    +0.053 A 
BRANCH  18  20
ATOM     20  O   LIG A   1      -8.735   2.530 128.180  0.00  0.00    -0.491 OA
ATOM     21  C   LIG A   1      -9.004   2.407 129.577  0.00  0.00    +0.277 C 
ENDBRANCH  18  20
ENDBRANCH   6  11
BRANCH   5  22
ATOM     22  O   LIG A   1      -7.893  -2.344 122.207  0.00  0.00    -0.391 OA
ATOM     23  H   LIG A   1      -8.812  -2.530 121.929  0.00  0.00    +0.210 HD
ENDBRANCH   5  22
BRANCH  10  24
ATOM     24  O   LIG A   1     -10.191  -0.636 122.609  0.00  0.00    -0.384 OA
ATOM     25  H   LIG A   1     -11.120  -0.566 122.912  0.00  0.00    +0.210 HD
ENDBRANCH  10  24
BRANCH   4  26
ATOM     26  C   LIG A   1      -5.303  -2.135 123.951  0.00  0.00    +0.037 C 
BRANCH  26  27
ATOM     27  C   LIG A   1      -5.163  -3.609 124.242  0.00  0.00    -0.034 C 
ATOM     28  C   LIG A   1      -4.393  -4.449 123.538  0.00  0.00    +0.004 C 
ENDBRANCH  26  27
ENDBRANCH   4  26
TORSDOF 6
ENDMDL
MODEL 6
REMARK VINA RESULT:      -7.1      0.916      2.274
REMARK  Name = NuBBE_1959
REMARK  8 active torsions:
REMARK  status: ('A' for Active; 'I' for Inactive)
REMARK    1  A    between atoms: C_4  and  C_7
REMARK    2  A    between atoms: C_5  and  O_6
REMARK    3  A    between atoms: C_7  and  C_8
REMARK    4  A    between atoms: C_10  and  C_12
REMARK    5  A    between atoms: C_19  and  O_20
REMARK    6  A    between atoms: O_20  and  C_21
REMARK    7  A    between atoms: C_23  and  C_24
REMARK    8  A    between atoms: C_26  and  O_27
REMARK                            x       y       z     vdW  Elec       q    Type
REMARK                         _______ _______ _______ _____ _____    ______ ____
ROOT
ATOM      1  O   LIG A   1      -8.810   2.549 128.021  0.00  0.00    -0.295 OA
ATOM      2  C   LIG A   1      -7.829   2.984 127.420  0.00  0.00    +0.163 C 
ATOM      3  C   LIG A   1      -6.433   2.484 127.744  0.00  0.00    +0.087 C 
ATOM      4  C   LIG A   1      -5.354   2.980 126.755  0.00  0.00    +0.014 C 
ATOM      5  C   LIG A   1      -5.536   4.515 126.616  0.00  0.00    +0.128 C 
ATOM      6  C   LIG A   1      -5.574   2.442 125.277  0.00  0.00    +0.032 C 
ATOM      7  C   LIG A   1      -6.332   3.608 124.556  0.00  0.00    +0.002 C 
ATOM      8  C   LIG A   1      -5.422   4.295 123.525  0.00  0.00    +0.009 C 
ATOM      9  C   LIG A   1      -6.737   4.580 125.683  0.00  0.00    +0.057 C 
ATOM     10  C   LIG A   1      -8.009   4.130 126.412  0.00  0.00    +0.186 C 
ENDROOT
BRANCH   6  11
ATOM     11  C   LIG A   1      -6.216   1.061 125.070  0.00  0.00    -0.036 A 
ATOM     12  C   LIG A   1      -7.289   0.849 124.187  0.00  0.00    +0.053 A 
ATOM     13  C   LIG A   1      -7.774  -0.430 123.995  0.00  0.00    +0.170 A 
ATOM     14  C   LIG A   1      -7.241  -1.522 124.632  0.00  0.00    +0.207 A 
ATOM     15  O   LIG A   1      -7.875  -2.669 124.258  0.00  0.00    -0.449 OA
ATOM     16  C   LIG A   1      -8.908  -2.166 123.398  0.00  0.00    +0.467 C 
ATOM     17  O   LIG A   1      -8.799  -0.753 123.159  0.00  0.00    -0.453 OA
ATOM     18  C   LIG A   1      -6.184  -1.384 125.513  0.00  0.00    +0.166 A 
ATOM     19  C   LIG A   1      -5.682  -0.080 125.731  0.00  0.00    +0.053 A 
BRANCH  18  20
ATOM     20  O   LIG A   1      -5.565  -2.396 126.198  0.00  0.00    -0.491 OA
ATOM     21  C   LIG A   1      -5.381  -2.189 127.600  0.00  0.00    +0.277 C 
ENDBRANCH  18  20
ENDBRANCH   6  11
BRANCH   5  22
ATOM     22  O   LIG A   1      -5.757   5.155 127.860  0.00  0.00    -0.391 OA
ATOM     23  H   LIG A   1      -4.942   5.087 128.397  0.00  0.00    +0.210 HD
ENDBRANCH   5  22
BRANCH  10  24
ATOM     24  O   LIG A   1      -8.549   5.252 127.117  0.00  0.00    -0.384 OA
ATOM     25  H   LIG A   1      -9.454   5.370 126.760  0.00  0.00    +0.210 HD
ENDBRANCH  10  24
BRANCH   4  26
ATOM     26  C   LIG A   1      -3.954   2.649 127.346  0.00  0.00    +0.037 C 
BRANCH  26  27
ATOM     27  C   LIG A   1      -2.803   3.455 126.797  0.00  0.00    -0.034 C 
ATOM     28  C   LIG A   1      -1.590   2.954 126.530  0.00  0.00    +0.004 C 
ENDBRANCH  26  27
ENDBRANCH   4  26
TORSDOF 6
ENDMDL
MODEL 7
REMARK VINA RESULT:      -6.8      4.511      6.261
REMARK  Name = NuBBE_1959
REMARK  8 active torsions:
REMARK  status: ('A' for Active; 'I' for Inactive)
REMARK    1  A    between atoms: C_4  and  C_7
REMARK    2  A    between atoms: C_5  and  O_6
REMARK    3  A    between atoms: C_7  and  C_8
REMARK    4  A    between atoms: C_10  and  C_12
REMARK    5  A    between atoms: C_19  and  O_20
REMARK    6  A    between atoms: O_20  and  C_21
REMARK    7  A    between atoms: C_23  and  C_24
REMARK    8  A    between atoms: C_26  and  O_27
REMARK                            x       y       z     vdW  Elec       q    Type
REMARK                         _______ _______ _______ _____ _____    ______ ____
ROOT
ATOM      1  O   LIG A   1     -11.698   4.810 129.595  0.00  0.00    -0.295 OA
ATOM      2  C   LIG A   1     -10.771   5.088 130.353  0.00  0.00    +0.163 C 
ATOM      3  C   LIG A   1     -10.409   4.172 131.508  0.00  0.00    +0.087 C 
ATOM      4  C   LIG A   1      -9.096   4.567 132.222  0.00  0.00    +0.014 C 
ATOM      5  C   LIG A   1      -9.186   6.086 132.531  0.00  0.00    +0.128 C 
ATOM      6  C   LIG A   1      -7.820   4.452 131.283  0.00  0.00    +0.032 C 
ATOM      7  C   LIG A   1      -7.608   5.909 130.749  0.00  0.00    +0.002 C 
ATOM      8  C   LIG A   1      -6.349   6.539 131.367  0.00  0.00    +0.009 C 
ATOM      9  C   LIG A   1      -8.879   6.678 131.162  0.00  0.00    +0.057 C 
ATOM     10  C   LIG A   1     -10.047   6.436 130.198  0.00  0.00    +0.186 C 
ENDROOT
BRANCH   6  11
ATOM     11  C   LIG A   1      -7.793   3.377 130.186  0.00  0.00    -0.036 A 
ATOM     12  C   LIG A   1      -7.686   2.005 130.472  0.00  0.00    +0.053 A 
ATOM     13  C   LIG A   1      -7.738   1.086 129.442  0.00  0.00    +0.170 A 
ATOM     14  C   LIG A   1      -7.901   1.458 128.132  0.00  0.00    +0.207 A 
ATOM     15  O   LIG A   1      -7.946   0.369 127.312  0.00  0.00    -0.449 OA
ATOM     16  C   LIG A   1      -7.705  -0.703 128.235  0.00  0.00    +0.467 C 
ATOM     17  O   LIG A   1      -7.655  -0.264 129.603  0.00  0.00    -0.453 OA
ATOM     18  C   LIG A   1      -8.013   2.790 127.780  0.00  0.00    +0.166 A 
ATOM     19  C   LIG A   1      -7.950   3.746 128.821  0.00  0.00    +0.053 A 
BRANCH  18  20
ATOM     20  O   LIG A   1      -8.188   3.281 126.513  0.00  0.00    -0.491 OA
ATOM     21  C   LIG A   1      -7.002   3.463 125.738  0.00  0.00    +0.277 C 
ENDBRANCH  18  20
ENDBRANCH   6  11
BRANCH   5  22
ATOM     22  O   LIG A   1     -10.454   6.467 133.036  0.00  0.00    -0.391 OA
ATOM     23  H   LIG A   1     -10.941   6.946 132.335  0.00  0.00    +0.210 HD
ENDBRANCH   5  22
BRANCH  10  24
ATOM     24  O   LIG A   1     -11.013   7.474 130.384  0.00  0.00    -0.384 OA
ATOM     25  H   LIG A   1     -10.844   7.826 131.283  0.00  0.00    +0.210 HD
ENDBRANCH  10  24
BRANCH   4  26
ATOM     26  C   LIG A   1      -8.987   3.749 133.540  0.00  0.00    +0.037 C 
BRANCH  26  27
ATOM     27  C   LIG A   1      -7.589   3.526 134.061  0.00  0.00    -0.034 C 
ATOM     28  C   LIG A   1      -6.978   4.320 134.950  0.00  0.00    +0.004 C 
ENDBRANCH  26  27
ENDBRANCH   4  26
TORSDOF 6
ENDMDL
MODEL 8
REMARK VINA RESULT:      -6.7      2.489      6.486
REMARK  Name = NuBBE_1959
REMARK  8 active torsions:
REMARK  status: ('A' for Active; 'I' for Inactive)
REMARK    1  A    between atoms: C_4  and  C_7
REMARK    2  A    between atoms: C_5  and  O_6
REMARK    3  A    between atoms: C_7  and  C_8
REMARK    4  A    between atoms: C_10  and  C_12
REMARK    5  A    between atoms: C_19  and  O_20
REMARK    6  A    between atoms: O_20  and  C_21
REMARK    7  A    between atoms: C_23  and  C_24
REMARK    8  A    between atoms: C_26  and  O_27
REMARK                            x       y       z     vdW  Elec       q    Type
REMARK                         _______ _______ _______ _____ _____    ______ ____
ROOT
ATOM      1  O   LIG A   1      -4.885  -2.403 124.322  0.00  0.00    -0.295 OA
ATOM      2  C   LIG A   1      -6.069  -2.072 124.306  0.00  0.00    +0.163 C 
ATOM      3  C   LIG A   1      -7.032  -2.573 125.368  0.00  0.00    +0.087 C 
ATOM      4  C   LIG A   1      -8.419  -1.892 125.315  0.00  0.00    +0.014 C 
ATOM      5  C   LIG A   1      -8.901  -1.958 123.840  0.00  0.00    +0.128 C 
ATOM      6  C   LIG A   1      -8.357  -0.334 125.618  0.00  0.00    +0.032 C 
ATOM      7  C   LIG A   1      -8.318   0.329 124.200  0.00  0.00    +0.002 C 
ATOM      8  C   LIG A   1      -9.641   1.053 123.899  0.00  0.00    +0.009 C 
ATOM      9  C   LIG A   1      -8.081  -0.836 123.218  0.00  0.00    +0.057 C 
ATOM     10  C   LIG A   1      -6.602  -1.235 123.132  0.00  0.00    +0.186 C 
ENDROOT
BRANCH   6  11
ATOM     11  C   LIG A   1      -7.287   0.198 126.583  0.00  0.00    -0.036 A 
ATOM     12  C   LIG A   1      -7.294  -0.094 127.959  0.00  0.00    +0.053 A 
ATOM     13  C   LIG A   1      -6.263   0.359 128.759  0.00  0.00    +0.170 A 
ATOM     14  C   LIG A   1      -5.211   1.085 128.262  0.00  0.00    +0.207 A 
ATOM     15  O   LIG A   1      -4.316   1.390 129.244  0.00  0.00    -0.449 OA
ATOM     16  C   LIG A   1      -4.964   0.859 130.408  0.00  0.00    +0.467 C 
ATOM     17  O   LIG A   1      -6.162   0.128 130.098  0.00  0.00    -0.453 OA
ATOM     18  C   LIG A   1      -5.141   1.407 126.919  0.00  0.00    +0.166 A 
ATOM     19  C   LIG A   1      -6.194   0.962 126.087  0.00  0.00    +0.053 A 
BRANCH  18  20
ATOM     20  O   LIG A   1      -4.140   2.115 126.308  0.00  0.00    -0.491 OA
ATOM     21  C   LIG A   1      -4.271   3.537 126.327  0.00  0.00    +0.277 C 
ENDBRANCH  18  20
ENDBRANCH   6  11
BRANCH   5  22
ATOM     22  O   LIG A   1      -8.667  -3.222 123.244  0.00  0.00    -0.391 OA
ATOM     23  H   LIG A   1      -7.703  -3.387 123.226  0.00  0.00    +0.210 HD
ENDBRANCH   5  22
BRANCH  10  24
ATOM     24  O   LIG A   1      -6.404  -1.990 121.933  0.00  0.00    -0.384 OA
ATOM     25  H   LIG A   1      -7.177  -2.589 121.875  0.00  0.00    +0.210 HD
ENDBRANCH  10  24
BRANCH   4  26
ATOM     26  C   LIG A   1      -9.389  -2.679 126.240  0.00  0.00    +0.037 C 
BRANCH  26  27
ATOM     27  C   LIG A   1      -8.748  -3.703 127.144  0.00  0.00    -0.034 C 
ATOM     28  C   LIG A   1      -8.659  -3.586 128.475  0.00  0.00    +0.004 C 
ENDBRANCH  26  27
ENDBRANCH   4  26
TORSDOF 6
ENDMDL
MODEL 9
REMARK VINA RESULT:      -6.7      1.833      3.579
REMARK  Name = NuBBE_1959
REMARK  8 active torsions:
REMARK  status: ('A' for Active; 'I' for Inactive)
REMARK    1  A    between atoms: C_4  and  C_7
REMARK    2  A    between atoms: C_5  and  O_6
REMARK    3  A    between atoms: C_7  and  C_8
REMARK    4  A    between atoms: C_10  and  C_12
REMARK    5  A    between atoms: C_19  and  O_20
REMARK    6  A    between atoms: O_20  and  C_21
REMARK    7  A    between atoms: C_23  and  C_24
REMARK    8  A    between atoms: C_26  and  O_27
REMARK                            x       y       z     vdW  Elec       q    Type
REMARK                         _______ _______ _______ _____ _____    ______ ____
ROOT
ATOM      1  O   LIG A   1      -8.123   2.926 122.794  0.00  0.00    -0.295 OA
ATOM      2  C   LIG A   1      -7.542   3.053 123.870  0.00  0.00    +0.163 C 
ATOM      3  C   LIG A   1      -8.295   2.916 125.182  0.00  0.00    +0.087 C 
ATOM      4  C   LIG A   1      -7.374   2.896 126.423  0.00  0.00    +0.014 C 
ATOM      5  C   LIG A   1      -6.406   4.102 126.290  0.00  0.00    +0.128 C 
ATOM      6  C   LIG A   1      -6.404   1.639 126.455  0.00  0.00    +0.032 C 
ATOM      7  C   LIG A   1      -5.063   2.178 125.850  0.00  0.00    +0.002 C 
ATOM      8  C   LIG A   1      -3.979   2.284 126.935  0.00  0.00    +0.009 C 
ATOM      9  C   LIG A   1      -5.413   3.564 125.270  0.00  0.00    +0.057 C 
ATOM     10  C   LIG A   1      -6.063   3.469 123.884  0.00  0.00    +0.186 C 
ENDROOT
BRANCH   6  11
ATOM     11  C   LIG A   1      -6.875   0.313 125.838  0.00  0.00    -0.036 A 
ATOM     12  C   LIG A   1      -8.102  -0.285 126.174  0.00  0.00    +0.053 A 
ATOM     13  C   LIG A   1      -8.498  -1.441 125.531  0.00  0.00    +0.170 A 
ATOM     14  C   LIG A   1      -7.739  -2.037 124.555  0.00  0.00    +0.207 A 
ATOM     15  O   LIG A   1      -8.356  -3.147 124.060  0.00  0.00    -0.449 OA
ATOM     16  C   LIG A   1      -9.526  -3.226 124.886  0.00  0.00    +0.467 C 
ATOM     17  O   LIG A   1      -9.667  -2.100 125.768  0.00  0.00    -0.453 OA
ATOM     18  C   LIG A   1      -6.522  -1.501 124.176  0.00  0.00    +0.166 A 
ATOM     19  C   LIG A   1      -6.095  -0.324 124.833  0.00  0.00    +0.053 A 
BRANCH  18  20
ATOM     20  O   LIG A   1      -5.684  -1.998 123.213  0.00  0.00    -0.491 OA
ATOM     21  C   LIG A   1      -4.866  -3.104 123.599  0.00  0.00    +0.277 C 
ENDBRANCH  18  20
ENDBRANCH   6  11
BRANCH   5  22
ATOM     22  O   LIG A   1      -7.061   5.285 125.867  0.00  0.00    -0.391 OA
ATOM     23  H   LIG A   1      -7.204   5.861 126.645  0.00  0.00    +0.210 HD
ENDBRANCH   5  22
BRANCH  10  24
ATOM     24  O   LIG A   1      -5.962   4.746 123.247  0.00  0.00    -0.384 OA
ATOM     25  H   LIG A   1      -5.346   4.612 122.497  0.00  0.00    +0.210 HD
ENDBRANCH  10  24
BRANCH   4  26
ATOM     26  C   LIG A   1      -8.259   3.044 127.694  0.00  0.00    +0.037 C 
BRANCH  26  27
ATOM     27  C   LIG A   1      -7.723   2.395 128.946  0.00  0.00    -0.034 C 
ATOM     28  C   LIG A   1      -8.322   1.385 129.589  0.00  0.00    +0.004 C 
ENDBRANCH  26  27
ENDBRANCH   4  26
TORSDOF 6
ENDMDL
