MODEL 1
REMARK VINA RESULT:      -8.7      0.000      0.000
REMARK  Name = NuBBE_961
REMARK  16 active torsions:
REMARK  status: ('A' for Active; 'I' for Inactive)
REMARK    1  A    between atoms: C_3  and  C_4
REMARK    2  A    between atoms: C_5  and  C_7
REMARK    3  A    between atoms: C_7  and  C_8
REMARK    4  A    between atoms: C_8  and  O_9
REMARK    5  A    between atoms: O_9  and  C_10
REMARK    6  A    between atoms: C_12  and  C_13
REMARK    7  A    between atoms: C_12  and  C_14
REMARK    8  A    between atoms: C_15  and  O_17
REMARK    9  A    between atoms: O_17  and  C_18
REMARK   10  A    between atoms: C_18  and  C_19
REMARK   11  A    between atoms: C_19  and  C_20
REMARK   12  A    between atoms: C_20  and  C_21
REMARK   13  A    between atoms: C_22  and  C_23
REMARK   14  A    between atoms: C_28  and  C_31
REMARK   15  A    between atoms: C_35  and  C_37
REMARK   16  A    between atoms: C_39  and  O_40
REMARK                            x       y       z     vdW  Elec       q    Type
REMARK                         _______ _______ _______ _____ _____    ______ ____
ROOT
ATOM      1  C   LIG A   1      -5.705   0.549 130.266  0.00  0.00    +0.028 C 
ATOM      2  C   LIG A   1      -6.058  -0.558 131.375  0.00  0.00    +0.037 C 
ATOM      3  C   LIG A   1      -5.841   0.057 132.777  0.00  0.00    +0.020 C 
ATOM      4  C   LIG A   1      -5.228  -1.923 131.202  0.00  0.00    +0.021 C 
ATOM      5  C   LIG A   1      -5.697  -2.919 130.025  0.00  0.00    -0.004 C 
ATOM      6  C   LIG A   1      -5.487  -4.413 130.393  0.00  0.00    +0.014 C 
ATOM      7  C   LIG A   1      -4.742  -2.684 128.818  0.00  0.00    +0.014 C 
ATOM      8  C   LIG A   1      -7.227  -2.851 129.622  0.00  0.00    +0.139 C 
ATOM      9  C   LIG A   1      -6.369   0.328 128.920  0.00  0.00    -0.064 C 
ATOM     10  C   LIG A   1      -6.054   1.292 127.803  0.00  0.00    +0.035 C 
ATOM     11  C   LIG A   1      -6.656   2.651 128.195  0.00  0.00    +0.016 C 
ATOM     12  C   LIG A   1      -5.958   3.085 129.528  0.00  0.00    +0.012 C 
ATOM     13  C   LIG A   1      -6.046   2.021 130.667  0.00  0.00    +0.009 C 
ATOM     14  C   LIG A   1      -8.183   2.595 128.462  0.00  0.00    +0.016 C 
ATOM     15  C   LIG A   1      -4.561   1.391 127.471  0.00  0.00    +0.129 C 
ATOM     16  C   LIG A   1      -4.106   2.668 126.815  0.00  0.00    +0.308 C 
ATOM     17  O   LIG A   1      -4.959   3.709 126.742  0.00  0.00    -0.456 OA
ATOM     18  C   LIG A   1      -6.383   3.596 126.984  0.00  0.00    +0.220 C 
ATOM     19  O   LIG A   1      -2.949   2.787 126.417  0.00  0.00    -0.251 OA
ATOM     20  C   LIG A   1      -7.359  -0.553 128.738  0.00  0.00    -0.014 C 
ATOM     21  C   LIG A   1      -7.854  -1.475 129.797  0.00  0.00    +0.108 C 
ATOM     22  C   LIG A   1      -7.527  -0.893 131.157  0.00  0.00    +0.149 C 
ATOM     23  O   LIG A   1      -8.407  -0.644 131.980  0.00  0.00    -0.296 OA
ENDROOT
BRANCH  18  24
ATOM     24  C   LIG A   1      -7.049   3.239 125.672  0.00  0.00    +0.079 C 
ATOM     25  C   LIG A   1      -6.721   2.352 124.721  0.00  0.00    +0.061 C 
ATOM     26  C   LIG A   1      -7.681   2.371 123.603  0.00  0.00    +0.334 C 
ATOM     27  O   LIG A   1      -8.589   3.399 123.934  0.00  0.00    -0.428 OA
ATOM     28  C   LIG A   1      -8.234   3.938 125.142  0.00  0.00    +0.341 C 
ATOM     29  O   LIG A   1      -8.801   4.850 125.681  0.00  0.00    -0.245 OA
BRANCH  26  30
ATOM     30  O   LIG A   1      -7.027   2.651 122.388  0.00  0.00    -0.354 OA
ATOM     31  H   LIG A   1      -7.297   3.545 122.124  0.00  0.00    +0.214 HD
ENDBRANCH  26  30
ENDBRANCH  18  24
BRANCH   4  32
ATOM     32  C   LIG A   1      -4.870  -2.665 132.535  0.00  0.00    +0.125 C 
BRANCH  32  33
ATOM     33  C   LIG A   1      -3.414  -3.002 132.752  0.00  0.00    +0.307 C 
ATOM     34  O   LIG A   1      -2.990  -4.058 133.192  0.00  0.00    -0.251 OA
BRANCH  33  35
ATOM     35  O   LIG A   1      -2.660  -1.906 132.469  0.00  0.00    -0.468 OA
ATOM     36  C   LIG A   1      -2.363  -1.121 133.621  0.00  0.00    +0.280 C 
ENDBRANCH  33  35
ENDBRANCH  32  33
ENDBRANCH   4  32
BRANCH   8  37
ATOM     37  O   LIG A   1      -7.368  -3.380 128.266  0.00  0.00    -0.367 OA
BRANCH  37  38
ATOM     38  C   LIG A   1      -8.692  -3.452 127.751  0.00  0.00    +0.239 C 
BRANCH  38  39
ATOM     39  C   LIG A   1      -8.954  -2.959 126.296  0.00  0.00    +0.184 C 
ATOM     40  O   LIG A   1     -10.089  -2.798 125.846  0.00  0.00    -0.290 OA
BRANCH  39  41
ATOM     41  C   LIG A   1      -7.752  -2.749 125.387  0.00  0.00    -0.010 C 
ATOM     42  C   LIG A   1      -7.388  -3.834 124.406  0.00  0.00    +0.047 C 
ATOM     43  C   LIG A   1      -7.046  -1.605 125.490  0.00  0.00    -0.024 C 
ATOM     44  C   LIG A   1      -5.845  -1.210 124.693  0.00  0.00    +0.035 C 
ENDBRANCH  39  41
ENDBRANCH  38  39
ENDBRANCH  37  38
ENDBRANCH   8  37
TORSDOF 9
ENDMDL
MODEL 2
REMARK VINA RESULT:      -8.6      3.520      6.739
REMARK  Name = NuBBE_961
REMARK  16 active torsions:
REMARK  status: ('A' for Active; 'I' for Inactive)
REMARK    1  A    between atoms: C_3  and  C_4
REMARK    2  A    between atoms: C_5  and  C_7
REMARK    3  A    between atoms: C_7  and  C_8
REMARK    4  A    between atoms: C_8  and  O_9
REMARK    5  A    between atoms: O_9  and  C_10
REMARK    6  A    between atoms: C_12  and  C_13
REMARK    7  A    between atoms: C_12  and  C_14
REMARK    8  A    between atoms: C_15  and  O_17
REMARK    9  A    between atoms: O_17  and  C_18
REMARK   10  A    between atoms: C_18  and  C_19
REMARK   11  A    between atoms: C_19  and  C_20
REMARK   12  A    between atoms: C_20  and  C_21
REMARK   13  A    between atoms: C_22  and  C_23
REMARK   14  A    between atoms: C_28  and  C_31
REMARK   15  A    between atoms: C_35  and  C_37
REMARK   16  A    between atoms: C_39  and  O_40
REMARK                            x       y       z     vdW  Elec       q    Type
REMARK                         _______ _______ _______ _____ _____    ______ ____
ROOT
ATOM      1  C   LIG A   1      -6.271   1.953 129.027  0.00  0.00    +0.028 C 
ATOM      2  C   LIG A   1      -6.079   3.046 130.189  0.00  0.00    +0.037 C 
ATOM      3  C   LIG A   1      -4.578   3.129 130.550  0.00  0.00    +0.020 C 
ATOM      4  C   LIG A   1      -6.976   2.758 131.490  0.00  0.00    +0.021 C 
ATOM      5  C   LIG A   1      -8.546   3.108 131.388  0.00  0.00    -0.004 C 
ATOM      6  C   LIG A   1      -9.136   3.593 132.740  0.00  0.00    +0.014 C 
ATOM      7  C   LIG A   1      -9.295   1.774 131.100  0.00  0.00    +0.014 C 
ATOM      8  C   LIG A   1      -8.938   4.265 130.380  0.00  0.00    +0.139 C 
ATOM      9  C   LIG A   1      -7.523   2.133 128.192  0.00  0.00    -0.064 C 
ATOM     10  C   LIG A   1      -7.809   1.122 127.109  0.00  0.00    +0.035 C 
ATOM     11  C   LIG A   1      -6.725   1.290 126.033  0.00  0.00    +0.016 C 
ATOM     12  C   LIG A   1      -5.352   1.000 126.727  0.00  0.00    +0.012 C 
ATOM     13  C   LIG A   1      -5.092   1.859 128.005  0.00  0.00    +0.009 C 
ATOM     14  C   LIG A   1      -6.658   2.725 125.445  0.00  0.00    +0.016 C 
ATOM     15  C   LIG A   1      -7.904  -0.321 127.617  0.00  0.00    +0.129 C 
ATOM     16  C   LIG A   1      -7.625  -1.404 126.608  0.00  0.00    +0.308 C 
ATOM     17  O   LIG A   1      -7.120  -1.067 125.405  0.00  0.00    -0.456 OA
ATOM     18  C   LIG A   1      -7.101   0.290 124.897  0.00  0.00    +0.220 C 
ATOM     19  O   LIG A   1      -7.785  -2.587 126.902  0.00  0.00    -0.251 OA
ATOM     20  C   LIG A   1      -8.270   3.242 128.238  0.00  0.00    -0.014 C 
ATOM     21  C   LIG A   1      -8.019   4.374 129.172  0.00  0.00    +0.108 C 
ATOM     22  C   LIG A   1      -6.562   4.359 129.589  0.00  0.00    +0.149 C 
ATOM     23  O   LIG A   1      -5.822   5.319 129.380  0.00  0.00    -0.296 OA
ENDROOT
BRANCH  18  24
ATOM     24  C   LIG A   1      -8.408   0.533 124.173  0.00  0.00    +0.079 C 
ATOM     25  C   LIG A   1      -9.314   1.516 124.281  0.00  0.00    +0.061 C 
ATOM     26  C   LIG A   1     -10.449   1.314 123.363  0.00  0.00    +0.334 C 
ATOM     27  O   LIG A   1     -10.180   0.081 122.733  0.00  0.00    -0.428 OA
ATOM     28  C   LIG A   1      -8.990  -0.411 123.201  0.00  0.00    +0.341 C 
ATOM     29  O   LIG A   1      -8.501  -1.458 122.871  0.00  0.00    -0.245 OA
BRANCH  26  30
ATOM     30  O   LIG A   1     -11.662   1.259 124.074  0.00  0.00    -0.354 OA
ATOM     31  H   LIG A   1     -12.334   0.923 123.459  0.00  0.00    +0.214 HD
ENDBRANCH  26  30
ENDBRANCH  18  24
BRANCH   4  32
ATOM     32  C   LIG A   1      -6.335   3.184 132.855  0.00  0.00    +0.125 C 
BRANCH  32  33
ATOM     33  C   LIG A   1      -6.155   2.096 133.888  0.00  0.00    +0.307 C 
ATOM     34  O   LIG A   1      -6.841   1.092 133.986  0.00  0.00    -0.251 OA
BRANCH  33  35
ATOM     35  O   LIG A   1      -5.166   2.464 134.747  0.00  0.00    -0.468 OA
ATOM     36  C   LIG A   1      -3.868   2.399 134.163  0.00  0.00    +0.280 C 
ENDBRANCH  33  35
ENDBRANCH  32  33
ENDBRANCH   4  32
BRANCH   8  37
ATOM     37  O   LIG A   1     -10.346   4.100 130.018  0.00  0.00    -0.367 OA
BRANCH  37  38
ATOM     38  C   LIG A   1     -11.223   5.153 130.400  0.00  0.00    +0.239 C 
BRANCH  38  39
ATOM     39  C   LIG A   1     -11.372   6.380 129.451  0.00  0.00    +0.184 C 
ATOM     40  O   LIG A   1     -10.799   6.448 128.363  0.00  0.00    -0.290 OA
BRANCH  39  41
ATOM     41  C   LIG A   1     -12.197   7.561 129.937  0.00  0.00    -0.010 C 
ATOM     42  C   LIG A   1     -12.833   7.486 131.302  0.00  0.00    +0.047 C 
ATOM     43  C   LIG A   1     -12.342   8.634 129.133  0.00  0.00    -0.024 C 
ATOM     44  C   LIG A   1     -13.105   9.886 129.426  0.00  0.00    +0.035 C 
ENDBRANCH  39  41
ENDBRANCH  38  39
ENDBRANCH  37  38
ENDBRANCH   8  37
TORSDOF 9
ENDMDL
MODEL 3
REMARK VINA RESULT:      -8.1      3.089      8.586
REMARK  Name = NuBBE_961
REMARK  16 active torsions:
REMARK  status: ('A' for Active; 'I' for Inactive)
REMARK    1  A    between atoms: C_3  and  C_4
REMARK    2  A    between atoms: C_5  and  C_7
REMARK    3  A    between atoms: C_7  and  C_8
REMARK    4  A    between atoms: C_8  and  O_9
REMARK    5  A    between atoms: O_9  and  C_10
REMARK    6  A    between atoms: C_12  and  C_13
REMARK    7  A    between atoms: C_12  and  C_14
REMARK    8  A    between atoms: C_15  and  O_17
REMARK    9  A    between atoms: O_17  and  C_18
REMARK   10  A    between atoms: C_18  and  C_19
REMARK   11  A    between atoms: C_19  and  C_20
REMARK   12  A    between atoms: C_20  and  C_21
REMARK   13  A    between atoms: C_22  and  C_23
REMARK   14  A    between atoms: C_28  and  C_31
REMARK   15  A    between atoms: C_35  and  C_37
REMARK   16  A    between atoms: C_39  and  O_40
REMARK                            x       y       z     vdW  Elec       q    Type
REMARK                         _______ _______ _______ _____ _____    ______ ____
ROOT
ATOM      1  C   LIG A   1      -5.999   0.620 128.682  0.00  0.00    +0.028 C 
ATOM      2  C   LIG A   1      -6.591   1.910 127.930  0.00  0.00    +0.037 C 
ATOM      3  C   LIG A   1      -6.341   1.758 126.412  0.00  0.00    +0.020 C 
ATOM      4  C   LIG A   1      -5.999   3.298 128.482  0.00  0.00    +0.021 C 
ATOM      5  C   LIG A   1      -6.573   3.828 129.892  0.00  0.00    -0.004 C 
ATOM      6  C   LIG A   1      -6.641   5.378 129.962  0.00  0.00    +0.014 C 
ATOM      7  C   LIG A   1      -5.533   3.442 130.985  0.00  0.00    +0.014 C 
ATOM      8  C   LIG A   1      -8.047   3.379 130.258  0.00  0.00    +0.139 C 
ATOM      9  C   LIG A   1      -6.623   0.337 130.035  0.00  0.00    -0.064 C 
ATOM     10  C   LIG A   1      -6.093  -0.828 130.835  0.00  0.00    +0.035 C 
ATOM     11  C   LIG A   1      -6.471  -2.109 130.075  0.00  0.00    +0.016 C 
ATOM     12  C   LIG A   1      -5.776  -2.024 128.674  0.00  0.00    +0.012 C 
ATOM     13  C   LIG A   1      -6.102  -0.719 127.882  0.00  0.00    +0.009 C 
ATOM     14  C   LIG A   1      -7.996  -2.255 129.834  0.00  0.00    +0.016 C 
ATOM     15  C   LIG A   1      -4.590  -0.747 131.127  0.00  0.00    +0.129 C 
ATOM     16  C   LIG A   1      -3.891  -2.054 131.395  0.00  0.00    +0.308 C 
ATOM     17  O   LIG A   1      -4.548  -3.209 131.171  0.00  0.00    -0.456 OA
ATOM     18  C   LIG A   1      -5.981  -3.289 130.970  0.00  0.00    +0.220 C 
ATOM     19  O   LIG A   1      -2.713  -2.070 131.745  0.00  0.00    -0.251 OA
ATOM     20  C   LIG A   1      -7.739   0.941 130.458  0.00  0.00    -0.014 C 
ATOM     21  C   LIG A   1      -8.437   2.017 129.702  0.00  0.00    +0.108 C 
ATOM     22  C   LIG A   1      -8.083   1.903 128.233  0.00  0.00    +0.149 C 
ATOM     23  O   LIG A   1      -8.946   1.740 127.373  0.00  0.00    -0.296 OA
ENDROOT
BRANCH  18  24
ATOM     24  C   LIG A   1      -6.632  -3.436 132.329  0.00  0.00    +0.079 C 
ATOM     25  C   LIG A   1      -7.544  -2.684 132.963  0.00  0.00    +0.061 C 
ATOM     26  C   LIG A   1      -7.868  -3.227 134.294  0.00  0.00    +0.334 C 
ATOM     27  O   LIG A   1      -7.018  -4.345 134.437  0.00  0.00    -0.428 OA
ATOM     28  C   LIG A   1      -6.268  -4.484 133.299  0.00  0.00    +0.341 C 
ATOM     29  O   LIG A   1      -5.434  -5.332 133.126  0.00  0.00    -0.245 OA
BRANCH  26  30
ATOM     30  O   LIG A   1      -7.613  -2.274 135.298  0.00  0.00    -0.354 OA
ATOM     31  H   LIG A   1      -8.083  -1.464 135.042  0.00  0.00    +0.214 HD
ENDBRANCH  26  30
ENDBRANCH  18  24
BRANCH   4  32
ATOM     32  C   LIG A   1      -5.841   4.433 127.414  0.00  0.00    +0.125 C 
BRANCH  32  33
ATOM     33  C   LIG A   1      -4.436   4.919 127.145  0.00  0.00    +0.307 C 
ATOM     34  O   LIG A   1      -3.487   4.214 126.847  0.00  0.00    -0.251 OA
BRANCH  33  35
ATOM     35  O   LIG A   1      -4.380   6.258 127.381  0.00  0.00    -0.468 OA
ATOM     36  C   LIG A   1      -3.371   6.616 128.322  0.00  0.00    +0.280 C 
ENDBRANCH  33  35
ENDBRANCH  32  33
ENDBRANCH   4  32
BRANCH   8  37
ATOM     37  O   LIG A   1      -8.209   3.476 131.708  0.00  0.00    -0.367 OA
BRANCH  37  38
ATOM     38  C   LIG A   1      -9.430   4.040 132.171  0.00  0.00    +0.239 C 
BRANCH  38  39
ATOM     39  C   LIG A   1      -9.504   5.582 132.387  0.00  0.00    +0.184 C 
ATOM     40  O   LIG A   1      -8.898   6.152 133.296  0.00  0.00    -0.290 OA
BRANCH  39  41
ATOM     41  C   LIG A   1     -10.422   6.386 131.481  0.00  0.00    -0.010 C 
ATOM     42  C   LIG A   1      -9.867   6.934 130.191  0.00  0.00    +0.047 C 
ATOM     43  C   LIG A   1     -11.701   6.591 131.859  0.00  0.00    -0.024 C 
ATOM     44  C   LIG A   1     -12.753   7.346 131.113  0.00  0.00    +0.035 C 
ENDBRANCH  39  41
ENDBRANCH  38  39
ENDBRANCH  37  38
ENDBRANCH   8  37
TORSDOF 9
ENDMDL
MODEL 4
REMARK VINA RESULT:      -8.0      3.442      8.632
REMARK  Name = NuBBE_961
REMARK  16 active torsions:
REMARK  status: ('A' for Active; 'I' for Inactive)
REMARK    1  A    between atoms: C_3  and  C_4
REMARK    2  A    between atoms: C_5  and  C_7
REMARK    3  A    between atoms: C_7  and  C_8
REMARK    4  A    between atoms: C_8  and  O_9
REMARK    5  A    between atoms: O_9  and  C_10
REMARK    6  A    between atoms: C_12  and  C_13
REMARK    7  A    between atoms: C_12  and  C_14
REMARK    8  A    between atoms: C_15  and  O_17
REMARK    9  A    between atoms: O_17  and  C_18
REMARK   10  A    between atoms: C_18  and  C_19
REMARK   11  A    between atoms: C_19  and  C_20
REMARK   12  A    between atoms: C_20  and  C_21
REMARK   13  A    between atoms: C_22  and  C_23
REMARK   14  A    between atoms: C_28  and  C_31
REMARK   15  A    between atoms: C_35  and  C_37
REMARK   16  A    between atoms: C_39  and  O_40
REMARK                            x       y       z     vdW  Elec       q    Type
REMARK                         _______ _______ _______ _____ _____    ______ ____
ROOT
ATOM      1  C   LIG A   1      -8.350   2.555 131.482  0.00  0.00    +0.028 C 
ATOM      2  C   LIG A   1      -8.462   3.998 132.179  0.00  0.00    +0.037 C 
ATOM      3  C   LIG A   1      -9.906   4.189 132.697  0.00  0.00    +0.020 C 
ATOM      4  C   LIG A   1      -8.023   5.207 131.217  0.00  0.00    +0.021 C 
ATOM      5  C   LIG A   1      -6.442   5.418 130.982  0.00  0.00    -0.004 C 
ATOM      6  C   LIG A   1      -6.062   6.912 130.801  0.00  0.00    +0.014 C 
ATOM      7  C   LIG A   1      -6.092   4.765 129.613  0.00  0.00    +0.014 C 
ATOM      8  C   LIG A   1      -5.493   4.937 132.155  0.00  0.00    +0.139 C 
ATOM      9  C   LIG A   1      -6.944   1.988 131.427  0.00  0.00    -0.064 C 
ATOM     10  C   LIG A   1      -6.739   0.658 130.745  0.00  0.00    +0.035 C 
ATOM     11  C   LIG A   1      -7.439  -0.406 131.605  0.00  0.00    +0.016 C 
ATOM     12  C   LIG A   1      -8.957  -0.023 131.647  0.00  0.00    +0.012 C 
ATOM     13  C   LIG A   1      -9.230   1.437 132.129  0.00  0.00    +0.009 C 
ATOM     14  C   LIG A   1      -6.926  -0.452 133.068  0.00  0.00    +0.016 C 
ATOM     15  C   LIG A   1      -7.209   0.630 129.287  0.00  0.00    +0.129 C 
ATOM     16  C   LIG A   1      -7.565  -0.722 128.726  0.00  0.00    +0.308 C 
ATOM     17  O   LIG A   1      -7.649  -1.778 129.560  0.00  0.00    -0.456 OA
ATOM     18  C   LIG A   1      -7.135  -1.771 130.914  0.00  0.00    +0.220 C 
ATOM     19  O   LIG A   1      -7.847  -0.850 127.536  0.00  0.00    -0.251 OA
ATOM     20  C   LIG A   1      -5.926   2.510 132.120  0.00  0.00    -0.014 C 
ATOM     21  C   LIG A   1      -6.029   3.749 132.940  0.00  0.00    +0.108 C 
ATOM     22  C   LIG A   1      -7.476   3.963 133.339  0.00  0.00    +0.149 C 
ATOM     23  O   LIG A   1      -7.817   4.023 134.518  0.00  0.00    -0.296 OA
ENDROOT
BRANCH  18  24
ATOM     24  C   LIG A   1      -5.686  -2.206 130.862  0.00  0.00    +0.079 C 
ATOM     25  C   LIG A   1      -4.545  -1.499 130.868  0.00  0.00    +0.061 C 
ATOM     26  C   LIG A   1      -3.362  -2.374 130.789  0.00  0.00    +0.334 C 
ATOM     27  O   LIG A   1      -3.892  -3.676 130.668  0.00  0.00    -0.428 OA
ATOM     28  C   LIG A   1      -5.260  -3.607 130.694  0.00  0.00    +0.341 C 
ATOM     29  O   LIG A   1      -5.998  -4.550 130.589  0.00  0.00    -0.245 OA
BRANCH  26  30
ATOM     30  O   LIG A   1      -2.575  -2.048 129.669  0.00  0.00    -0.354 OA
ATOM     31  H   LIG A   1      -3.054  -2.363 128.886  0.00  0.00    +0.214 HD
ENDBRANCH  26  30
ENDBRANCH  18  24
BRANCH   4  32
ATOM     32  C   LIG A   1      -8.800   6.551 131.430  0.00  0.00    +0.125 C 
BRANCH  32  33
ATOM     33  C   LIG A   1      -9.849   6.897 130.399  0.00  0.00    +0.307 C 
ATOM     34  O   LIG A   1     -10.946   6.372 130.300  0.00  0.00    -0.251 OA
BRANCH  33  35
ATOM     35  O   LIG A   1      -9.337   7.822 129.542  0.00  0.00    -0.468 OA
ATOM     36  C   LIG A   1     -10.285   8.273 128.579  0.00  0.00    +0.280 C 
ENDBRANCH  33  35
ENDBRANCH  32  33
ENDBRANCH   4  32
BRANCH   8  37
ATOM     37  O   LIG A   1      -4.160   4.706 131.601  0.00  0.00    -0.367 OA
BRANCH  37  38
ATOM     38  C   LIG A   1      -3.165   5.671 131.921  0.00  0.00    +0.239 C 
BRANCH  38  39
ATOM     39  C   LIG A   1      -2.153   6.095 130.814  0.00  0.00    +0.184 C 
ATOM     40  O   LIG A   1      -1.049   6.572 131.076  0.00  0.00    -0.290 OA
BRANCH  39  41
ATOM     41  C   LIG A   1      -2.593   5.977 129.363  0.00  0.00    -0.010 C 
ATOM     42  C   LIG A   1      -3.127   7.204 128.669  0.00  0.00    +0.047 C 
ATOM     43  C   LIG A   1      -2.498   4.783 128.745  0.00  0.00    -0.024 C 
ATOM     44  C   LIG A   1      -2.873   4.464 127.333  0.00  0.00    +0.035 C 
ENDBRANCH  39  41
ENDBRANCH  38  39
ENDBRANCH  37  38
ENDBRANCH   8  37
TORSDOF 9
ENDMDL
MODEL 5
REMARK VINA RESULT:      -8.0      4.121      7.063
REMARK  Name = NuBBE_961
REMARK  16 active torsions:
REMARK  status: ('A' for Active; 'I' for Inactive)
REMARK    1  A    between atoms: C_3  and  C_4
REMARK    2  A    between atoms: C_5  and  C_7
REMARK    3  A    between atoms: C_7  and  C_8
REMARK    4  A    between atoms: C_8  and  O_9
REMARK    5  A    between atoms: O_9  and  C_10
REMARK    6  A    between atoms: C_12  and  C_13
REMARK    7  A    between atoms: C_12  and  C_14
REMARK    8  A    between atoms: C_15  and  O_17
REMARK    9  A    between atoms: O_17  and  C_18
REMARK   10  A    between atoms: C_18  and  C_19
REMARK   11  A    between atoms: C_19  and  C_20
REMARK   12  A    between atoms: C_20  and  C_21
REMARK   13  A    between atoms: C_22  and  C_23
REMARK   14  A    between atoms: C_28  and  C_31
REMARK   15  A    between atoms: C_35  and  C_37
REMARK   16  A    between atoms: C_39  and  O_40
REMARK                            x       y       z     vdW  Elec       q    Type
REMARK                         _______ _______ _______ _____ _____    ______ ____
ROOT
ATOM      1  C   LIG A   1      -5.060   4.279 130.650  0.00  0.00    +0.028 C 
ATOM      2  C   LIG A   1      -5.108   5.553 131.626  0.00  0.00    +0.037 C 
ATOM      3  C   LIG A   1      -3.689   6.160 131.722  0.00  0.00    +0.020 C 
ATOM      4  C   LIG A   1      -5.699   5.218 133.083  0.00  0.00    +0.021 C 
ATOM      5  C   LIG A   1      -7.296   5.039 133.200  0.00  0.00    -0.004 C 
ATOM      6  C   LIG A   1      -7.851   5.531 134.564  0.00  0.00    +0.014 C 
ATOM      7  C   LIG A   1      -7.586   3.508 133.199  0.00  0.00    +0.014 C 
ATOM      8  C   LIG A   1      -8.167   5.831 132.142  0.00  0.00    +0.139 C 
ATOM      9  C   LIG A   1      -6.389   3.918 130.017  0.00  0.00    -0.064 C 
ATOM     10  C   LIG A   1      -6.447   2.703 129.122  0.00  0.00    +0.035 C 
ATOM     11  C   LIG A   1      -5.616   3.022 127.870  0.00  0.00    +0.016 C 
ATOM     12  C   LIG A   1      -4.153   3.294 128.358  0.00  0.00    +0.012 C 
ATOM     13  C   LIG A   1      -4.046   4.390 129.465  0.00  0.00    +0.009 C 
ATOM     14  C   LIG A   1      -6.100   4.287 127.114  0.00  0.00    +0.016 C 
ATOM     15  C   LIG A   1      -5.996   1.408 129.806  0.00  0.00    +0.129 C 
ATOM     16  C   LIG A   1      -5.492   0.315 128.900  0.00  0.00    +0.308 C 
ATOM     17  O   LIG A   1      -5.273   0.590 127.599  0.00  0.00    -0.456 OA
ATOM     18  C   LIG A   1      -5.767   1.781 126.938  0.00  0.00    +0.220 C 
ATOM     19  O   LIG A   1      -5.213  -0.792 129.354  0.00  0.00    -0.251 OA
ATOM     20  C   LIG A   1      -7.453   4.729 130.054  0.00  0.00    -0.014 C 
ATOM     21  C   LIG A   1      -7.485   6.021 130.794  0.00  0.00    +0.108 C 
ATOM     22  C   LIG A   1      -6.068   6.532 130.964  0.00  0.00    +0.149 C 
ATOM     23  O   LIG A   1      -5.721   7.626 130.524  0.00  0.00    -0.296 OA
ENDROOT
BRANCH  18  24
ATOM     24  C   LIG A   1      -7.155   1.480 126.416  0.00  0.00    +0.079 C 
ATOM     25  C   LIG A   1      -8.169   0.776 126.942  0.00  0.00    +0.061 C 
ATOM     26  C   LIG A   1      -9.338   0.751 126.046  0.00  0.00    +0.334 C 
ATOM     27  O   LIG A   1      -8.918   1.453 124.896  0.00  0.00    -0.428 OA
ATOM     28  C   LIG A   1      -7.630   1.882 125.080  0.00  0.00    +0.341 C 
ATOM     29  O   LIG A   1      -6.986   2.490 124.268  0.00  0.00    -0.245 OA
BRANCH  26  30
ATOM     30  O   LIG A   1      -9.693  -0.572 125.723  0.00  0.00    -0.354 OA
ATOM     31  H   LIG A   1      -9.500  -1.114 126.506  0.00  0.00    +0.214 HD
ENDBRANCH  26  30
ENDBRANCH  18  24
BRANCH   4  32
ATOM     32  C   LIG A   1      -5.081   6.043 134.263  0.00  0.00    +0.125 C 
BRANCH  32  33
ATOM     33  C   LIG A   1      -4.246   5.276 135.262  0.00  0.00    +0.307 C 
ATOM     34  O   LIG A   1      -3.972   5.648 136.390  0.00  0.00    -0.251 OA
BRANCH  33  35
ATOM     35  O   LIG A   1      -3.772   4.148 134.666  0.00  0.00    -0.468 OA
ATOM     36  C   LIG A   1      -3.882   2.993 135.494  0.00  0.00    +0.280 C 
ENDBRANCH  33  35
ENDBRANCH  32  33
ENDBRANCH   4  32
BRANCH   8  37
ATOM     37  O   LIG A   1      -9.471   5.177 132.038  0.00  0.00    -0.367 OA
BRANCH  37  38
ATOM     38  C   LIG A   1     -10.553   5.992 131.603  0.00  0.00    +0.239 C 
BRANCH  38  39
ATOM     39  C   LIG A   1     -11.301   5.599 130.293  0.00  0.00    +0.184 C 
ATOM     40  O   LIG A   1     -11.444   4.429 129.939  0.00  0.00    -0.290 OA
BRANCH  39  41
ATOM     41  C   LIG A   1     -11.799   6.720 129.393  0.00  0.00    -0.010 C 
ATOM     42  C   LIG A   1     -10.923   7.930 129.194  0.00  0.00    +0.047 C 
ATOM     43  C   LIG A   1     -13.009   6.601 128.809  0.00  0.00    -0.024 C 
ATOM     44  C   LIG A   1     -13.670   7.583 127.896  0.00  0.00    +0.035 C 
ENDBRANCH  39  41
ENDBRANCH  38  39
ENDBRANCH  37  38
ENDBRANCH   8  37
TORSDOF 9
ENDMDL
MODEL 6
REMARK VINA RESULT:      -7.9      2.639      4.582
REMARK  Name = NuBBE_961
REMARK  16 active torsions:
REMARK  status: ('A' for Active; 'I' for Inactive)
REMARK    1  A    between atoms: C_3  and  C_4
REMARK    2  A    between atoms: C_5  and  C_7
REMARK    3  A    between atoms: C_7  and  C_8
REMARK    4  A    between atoms: C_8  and  O_9
REMARK    5  A    between atoms: O_9  and  C_10
REMARK    6  A    between atoms: C_12  and  C_13
REMARK    7  A    between atoms: C_12  and  C_14
REMARK    8  A    between atoms: C_15  and  O_17
REMARK    9  A    between atoms: O_17  and  C_18
REMARK   10  A    between atoms: C_18  and  C_19
REMARK   11  A    between atoms: C_19  and  C_20
REMARK   12  A    between atoms: C_20  and  C_21
REMARK   13  A    between atoms: C_22  and  C_23
REMARK   14  A    between atoms: C_28  and  C_31
REMARK   15  A    between atoms: C_35  and  C_37
REMARK   16  A    between atoms: C_39  and  O_40
REMARK                            x       y       z     vdW  Elec       q    Type
REMARK                         _______ _______ _______ _____ _____    ______ ____
ROOT
ATOM      1  C   LIG A   1      -7.277   2.754 129.979  0.00  0.00    +0.028 C 
ATOM      2  C   LIG A   1      -7.884   2.839 131.463  0.00  0.00    +0.037 C 
ATOM      3  C   LIG A   1      -8.611   4.194 131.626  0.00  0.00    +0.020 C 
ATOM      4  C   LIG A   1      -6.785   2.625 132.615  0.00  0.00    +0.021 C 
ATOM      5  C   LIG A   1      -6.288   1.115 132.880  0.00  0.00    -0.004 C 
ATOM      6  C   LIG A   1      -5.949   0.854 134.372  0.00  0.00    +0.014 C 
ATOM      7  C   LIG A   1      -4.928   0.944 132.142  0.00  0.00    +0.014 C 
ATOM      8  C   LIG A   1      -7.325  -0.031 132.534  0.00  0.00    +0.139 C 
ATOM      9  C   LIG A   1      -7.037   1.344 129.474  0.00  0.00    -0.064 C 
ATOM     10  C   LIG A   1      -6.422   1.171 128.107  0.00  0.00    +0.035 C 
ATOM     11  C   LIG A   1      -7.452   1.667 127.080  0.00  0.00    +0.016 C 
ATOM     12  C   LIG A   1      -7.710   3.179 127.395  0.00  0.00    +0.012 C 
ATOM     13  C   LIG A   1      -8.129   3.458 128.873  0.00  0.00    +0.009 C 
ATOM     14  C   LIG A   1      -8.815   0.931 127.169  0.00  0.00    +0.016 C 
ATOM     15  C   LIG A   1      -5.063   1.860 127.948  0.00  0.00    +0.129 C 
ATOM     16  C   LIG A   1      -4.658   2.220 126.542  0.00  0.00    +0.308 C 
ATOM     17  O   LIG A   1      -5.564   2.113 125.550  0.00  0.00    -0.456 OA
ATOM     18  C   LIG A   1      -6.815   1.396 125.682  0.00  0.00    +0.220 C 
ATOM     19  O   LIG A   1      -3.539   2.675 126.312  0.00  0.00    -0.251 OA
ATOM     20  C   LIG A   1      -7.523   0.262 130.093  0.00  0.00    -0.014 C 
ATOM     21  C   LIG A   1      -8.264   0.308 131.384  0.00  0.00    +0.108 C 
ATOM     22  C   LIG A   1      -8.872   1.685 131.561  0.00  0.00    +0.149 C 
ATOM     23  O   LIG A   1     -10.084   1.841 131.694  0.00  0.00    -0.296 OA
ENDROOT
BRANCH  18  24
ATOM     24  C   LIG A   1      -6.563  -0.050 125.312  0.00  0.00    +0.079 C 
ATOM     25  C   LIG A   1      -5.508  -0.851 125.527  0.00  0.00    +0.061 C 
ATOM     26  C   LIG A   1      -5.722  -2.195 124.963  0.00  0.00    +0.334 C 
ATOM     27  O   LIG A   1      -6.979  -2.118 124.327  0.00  0.00    -0.428 OA
ATOM     28  C   LIG A   1      -7.493  -0.860 124.505  0.00  0.00    +0.341 C 
ATOM     29  O   LIG A   1      -8.542  -0.477 124.060  0.00  0.00    -0.245 OA
BRANCH  26  30
ATOM     30  O   LIG A   1      -4.711  -2.514 124.036  0.00  0.00    -0.354 OA
ATOM     31  H   LIG A   1      -4.299  -3.339 124.341  0.00  0.00    +0.214 HD
ENDBRANCH  26  30
ENDBRANCH  18  24
BRANCH   4  32
ATOM     32  C   LIG A   1      -7.028   3.436 133.934  0.00  0.00    +0.125 C 
BRANCH  32  33
ATOM     33  C   LIG A   1      -6.068   4.567 134.221  0.00  0.00    +0.307 C 
ATOM     34  O   LIG A   1      -6.346   5.603 134.800  0.00  0.00    -0.251 OA
BRANCH  33  35
ATOM     35  O   LIG A   1      -4.867   4.282 133.646  0.00  0.00    -0.468 OA
ATOM     36  C   LIG A   1      -3.858   3.957 134.598  0.00  0.00    +0.280 C 
ENDBRANCH  33  35
ENDBRANCH  32  33
ENDBRANCH   4  32
BRANCH   8  37
ATOM     37  O   LIG A   1      -6.582  -1.273 132.323  0.00  0.00    -0.367 OA
BRANCH  37  38
ATOM     38  C   LIG A   1      -7.352  -2.418 131.976  0.00  0.00    +0.239 C 
BRANCH  38  39
ATOM     39  C   LIG A   1      -6.760  -3.431 130.950  0.00  0.00    +0.184 C 
ATOM     40  O   LIG A   1      -6.134  -4.433 131.296  0.00  0.00    -0.290 OA
BRANCH  39  41
ATOM     41  C   LIG A   1      -6.905  -3.113 129.469  0.00  0.00    -0.010 C 
ATOM     42  C   LIG A   1      -5.689  -2.652 128.707  0.00  0.00    +0.047 C 
ATOM     43  C   LIG A   1      -8.114  -3.246 128.886  0.00  0.00    -0.024 C 
ATOM     44  C   LIG A   1      -8.459  -2.987 127.455  0.00  0.00    +0.035 C 
ENDBRANCH  39  41
ENDBRANCH  38  39
ENDBRANCH  37  38
ENDBRANCH   8  37
TORSDOF 9
ENDMDL
MODEL 7
REMARK VINA RESULT:      -7.9      3.903      9.036
REMARK  Name = NuBBE_961
REMARK  16 active torsions:
REMARK  status: ('A' for Active; 'I' for Inactive)
REMARK    1  A    between atoms: C_3  and  C_4
REMARK    2  A    between atoms: C_5  and  C_7
REMARK    3  A    between atoms: C_7  and  C_8
REMARK    4  A    between atoms: C_8  and  O_9
REMARK    5  A    between atoms: O_9  and  C_10
REMARK    6  A    between atoms: C_12  and  C_13
REMARK    7  A    between atoms: C_12  and  C_14
REMARK    8  A    between atoms: C_15  and  O_17
REMARK    9  A    between atoms: O_17  and  C_18
REMARK   10  A    between atoms: C_18  and  C_19
REMARK   11  A    between atoms: C_19  and  C_20
REMARK   12  A    between atoms: C_20  and  C_21
REMARK   13  A    between atoms: C_22  and  C_23
REMARK   14  A    between atoms: C_28  and  C_31
REMARK   15  A    between atoms: C_35  and  C_37
REMARK   16  A    between atoms: C_39  and  O_40
REMARK                            x       y       z     vdW  Elec       q    Type
REMARK                         _______ _______ _______ _____ _____    ______ ____
ROOT
ATOM      1  C   LIG A   1      -7.833   2.296 131.696  0.00  0.00    +0.028 C 
ATOM      2  C   LIG A   1      -7.815   3.714 132.450  0.00  0.00    +0.037 C 
ATOM      3  C   LIG A   1      -9.171   3.913 133.168  0.00  0.00    +0.020 C 
ATOM      4  C   LIG A   1      -7.484   4.950 131.478  0.00  0.00    +0.021 C 
ATOM      5  C   LIG A   1      -5.946   5.140 131.036  0.00  0.00    -0.004 C 
ATOM      6  C   LIG A   1      -5.560   6.633 130.855  0.00  0.00    +0.014 C 
ATOM      7  C   LIG A   1      -5.801   4.531 129.610  0.00  0.00    +0.014 C 
ATOM      8  C   LIG A   1      -4.857   4.600 132.051  0.00  0.00    +0.139 C 
ATOM      9  C   LIG A   1      -6.462   1.706 131.430  0.00  0.00    -0.064 C 
ATOM     10  C   LIG A   1      -6.382   0.398 130.681  0.00  0.00    +0.035 C 
ATOM     11  C   LIG A   1      -6.982  -0.684 131.592  0.00  0.00    +0.016 C 
ATOM     12  C   LIG A   1      -8.471  -0.275 131.856  0.00  0.00    +0.012 C 
ATOM     13  C   LIG A   1      -8.642   1.171 132.419  0.00  0.00    +0.009 C 
ATOM     14  C   LIG A   1      -6.276  -0.792 132.969  0.00  0.00    +0.016 C 
ATOM     15  C   LIG A   1      -7.048   0.432 129.301  0.00  0.00    +0.129 C 
ATOM     16  C   LIG A   1      -7.508  -0.892 128.749  0.00  0.00    +0.308 C 
ATOM     17  O   LIG A   1      -7.501  -1.975 129.551  0.00  0.00    -0.456 OA
ATOM     18  C   LIG A   1      -6.807  -2.028 130.821  0.00  0.00    +0.220 C 
ATOM     19  O   LIG A   1      -7.952  -0.971 127.606  0.00  0.00    -0.251 OA
ATOM     20  C   LIG A   1      -5.347   2.183 131.994  0.00  0.00    -0.014 C 
ATOM     21  C   LIG A   1      -5.308   3.393 132.861  0.00  0.00    +0.108 C 
ATOM     22  C   LIG A   1      -6.681   3.619 133.462  0.00  0.00    +0.149 C 
ATOM     23  O   LIG A   1      -6.857   3.642 134.678  0.00  0.00    -0.296 OA
ENDROOT
BRANCH  18  24
ATOM     24  C   LIG A   1      -5.389  -2.486 130.556  0.00  0.00    +0.079 C 
ATOM     25  C   LIG A   1      -4.573  -2.292 129.509  0.00  0.00    +0.061 C 
ATOM     26  C   LIG A   1      -3.270  -2.953 129.703  0.00  0.00    +0.334 C 
ATOM     27  O   LIG A   1      -3.393  -3.622 130.939  0.00  0.00    -0.428 OA
ATOM     28  C   LIG A   1      -4.637  -3.377 131.459  0.00  0.00    +0.341 C 
ATOM     29  O   LIG A   1      -5.051  -3.828 132.493  0.00  0.00    -0.245 OA
BRANCH  26  30
ATOM     30  O   LIG A   1      -3.014  -3.866 128.662  0.00  0.00    -0.354 OA
ATOM     31  H   LIG A   1      -3.821  -4.391 128.543  0.00  0.00    +0.214 HD
ENDBRANCH  26  30
ENDBRANCH  18  24
BRANCH   4  32
ATOM     32  C   LIG A   1      -8.194   6.299 131.841  0.00  0.00    +0.125 C 
BRANCH  32  33
ATOM     33  C   LIG A   1      -9.195   6.828 130.841  0.00  0.00    +0.307 C 
ATOM     34  O   LIG A   1      -8.923   7.464 129.836  0.00  0.00    -0.251 OA
BRANCH  33  35
ATOM     35  O   LIG A   1     -10.451   6.562 131.290  0.00  0.00    -0.468 OA
ATOM     36  C   LIG A   1     -11.145   5.619 130.478  0.00  0.00    +0.280 C 
ENDBRANCH  33  35
ENDBRANCH  32  33
ENDBRANCH   4  32
BRANCH   8  37
ATOM     37  O   LIG A   1      -3.617   4.364 131.311  0.00  0.00    -0.367 OA
BRANCH  37  38
ATOM     38  C   LIG A   1      -2.434   4.926 131.866  0.00  0.00    +0.239 C 
BRANCH  38  39
ATOM     39  C   LIG A   1      -1.911   6.277 131.292  0.00  0.00    +0.184 C 
ATOM     40  O   LIG A   1      -1.740   6.462 130.087  0.00  0.00    -0.290 OA
BRANCH  39  41
ATOM     41  C   LIG A   1      -1.530   7.371 132.278  0.00  0.00    -0.010 C 
ATOM     42  C   LIG A   1      -2.508   8.489 132.531  0.00  0.00    +0.047 C 
ATOM     43  C   LIG A   1      -0.329   7.312 132.889  0.00  0.00    -0.024 C 
ATOM     44  C   LIG A   1       0.226   8.280 133.884  0.00  0.00    +0.035 C 
ENDBRANCH  39  41
ENDBRANCH  38  39
ENDBRANCH  37  38
ENDBRANCH   8  37
TORSDOF 9
ENDMDL
MODEL 8
REMARK VINA RESULT:      -7.9      2.511      8.358
REMARK  Name = NuBBE_961
REMARK  16 active torsions:
REMARK  status: ('A' for Active; 'I' for Inactive)
REMARK    1  A    between atoms: C_3  and  C_4
REMARK    2  A    between atoms: C_5  and  C_7
REMARK    3  A    between atoms: C_7  and  C_8
REMARK    4  A    between atoms: C_8  and  O_9
REMARK    5  A    between atoms: O_9  and  C_10
REMARK    6  A    between atoms: C_12  and  C_13
REMARK    7  A    between atoms: C_12  and  C_14
REMARK    8  A    between atoms: C_15  and  O_17
REMARK    9  A    between atoms: O_17  and  C_18
REMARK   10  A    between atoms: C_18  and  C_19
REMARK   11  A    between atoms: C_19  and  C_20
REMARK   12  A    between atoms: C_20  and  C_21
REMARK   13  A    between atoms: C_22  and  C_23
REMARK   14  A    between atoms: C_28  and  C_31
REMARK   15  A    between atoms: C_35  and  C_37
REMARK   16  A    between atoms: C_39  and  O_40
REMARK                            x       y       z     vdW  Elec       q    Type
REMARK                         _______ _______ _______ _____ _____    ______ ____
ROOT
ATOM      1  C   LIG A   1      -5.428  -0.564 128.515  0.00  0.00    +0.028 C 
ATOM      2  C   LIG A   1      -6.019   0.443 127.412  0.00  0.00    +0.037 C 
ATOM      3  C   LIG A   1      -5.443   0.061 126.029  0.00  0.00    +0.020 C 
ATOM      4  C   LIG A   1      -5.747   1.990 127.750  0.00  0.00    +0.021 C 
ATOM      5  C   LIG A   1      -6.666   2.662 128.891  0.00  0.00    -0.004 C 
ATOM      6  C   LIG A   1      -6.955   4.162 128.615  0.00  0.00    +0.014 C 
ATOM      7  C   LIG A   1      -5.832   2.668 130.206  0.00  0.00    +0.014 C 
ATOM      8  C   LIG A   1      -8.109   2.039 129.081  0.00  0.00    +0.139 C 
ATOM      9  C   LIG A   1      -6.274  -0.699 129.766  0.00  0.00    -0.064 C 
ATOM     10  C   LIG A   1      -5.769  -1.588 130.876  0.00  0.00    +0.035 C 
ATOM     11  C   LIG A   1      -5.806  -3.032 130.353  0.00  0.00    +0.016 C 
ATOM     12  C   LIG A   1      -4.855  -3.086 129.110  0.00  0.00    +0.012 C 
ATOM     13  C   LIG A   1      -5.182  -2.025 128.013  0.00  0.00    +0.009 C 
ATOM     14  C   LIG A   1      -7.215  -3.482 129.884  0.00  0.00    +0.016 C 
ATOM     15  C   LIG A   1      -4.384  -1.195 131.403  0.00  0.00    +0.129 C 
ATOM     16  C   LIG A   1      -3.586  -2.289 132.063  0.00  0.00    +0.308 C 
ATOM     17  O   LIG A   1      -4.021  -3.562 131.978  0.00  0.00    -0.456 OA
ATOM     18  C   LIG A   1      -5.357  -3.925 131.551  0.00  0.00    +0.220 C 
ATOM     19  O   LIG A   1      -2.514  -2.037 132.609  0.00  0.00    -0.251 OA
ATOM     20  C   LIG A   1      -7.524  -0.231 129.847  0.00  0.00    -0.014 C 
ATOM     21  C   LIG A   1      -8.189   0.551 128.769  0.00  0.00    +0.108 C 
ATOM     22  C   LIG A   1      -7.527   0.233 127.443  0.00  0.00    +0.149 C 
ATOM     23  O   LIG A   1      -8.164  -0.232 126.500  0.00  0.00    -0.296 OA
ENDROOT
BRANCH  18  24
ATOM     24  C   LIG A   1      -6.249  -3.930 132.774  0.00  0.00    +0.079 C 
ATOM     25  C   LIG A   1      -7.240  -3.111 133.155  0.00  0.00    +0.061 C 
ATOM     26  C   LIG A   1      -7.817  -3.517 134.449  0.00  0.00    +0.334 C 
ATOM     27  O   LIG A   1      -7.040  -4.624 134.851  0.00  0.00    -0.428 OA
ATOM     28  C   LIG A   1      -6.099  -4.882 133.890  0.00  0.00    +0.341 C 
ATOM     29  O   LIG A   1      -5.271  -5.752 133.954  0.00  0.00    -0.245 OA
BRANCH  26  30
ATOM     30  O   LIG A   1      -7.724  -2.472 135.387  0.00  0.00    -0.354 OA
ATOM     31  H   LIG A   1      -6.892  -2.006 135.207  0.00  0.00    +0.214 HD
ENDBRANCH  26  30
ENDBRANCH  18  24
BRANCH   4  32
ATOM     32  C   LIG A   1      -5.525   2.920 126.509  0.00  0.00    +0.125 C 
BRANCH  32  33
ATOM     33  C   LIG A   1      -4.127   3.453 126.303  0.00  0.00    +0.307 C 
ATOM     34  O   LIG A   1      -3.754   4.113 125.347  0.00  0.00    -0.251 OA
BRANCH  33  35
ATOM     35  O   LIG A   1      -3.329   2.997 127.306  0.00  0.00    -0.468 OA
ATOM     36  C   LIG A   1      -1.940   3.101 127.004  0.00  0.00    +0.280 C 
ENDBRANCH  33  35
ENDBRANCH  32  33
ENDBRANCH   4  32
BRANCH   8  37
ATOM     37  O   LIG A   1      -8.580   2.370 130.425  0.00  0.00    -0.367 OA
BRANCH  37  38
ATOM     38  C   LIG A   1      -9.873   2.956 130.516  0.00  0.00    +0.239 C 
BRANCH  38  39
ATOM     39  C   LIG A   1     -10.001   4.390 131.113  0.00  0.00    +0.184 C 
ATOM     40  O   LIG A   1     -10.802   5.219 130.678  0.00  0.00    -0.290 OA
BRANCH  39  41
ATOM     41  C   LIG A   1      -9.040   4.790 132.222  0.00  0.00    -0.010 C 
ATOM     42  C   LIG A   1      -8.044   5.889 131.955  0.00  0.00    +0.047 C 
ATOM     43  C   LIG A   1      -9.103   4.146 133.406  0.00  0.00    -0.024 C 
ATOM     44  C   LIG A   1      -8.255   4.391 134.612  0.00  0.00    +0.035 C 
ENDBRANCH  39  41
ENDBRANCH  38  39
ENDBRANCH  37  38
ENDBRANCH   8  37
TORSDOF 9
ENDMDL
MODEL 9
REMARK VINA RESULT:      -7.7      3.298      4.776
REMARK  Name = NuBBE_961
REMARK  16 active torsions:
REMARK  status: ('A' for Active; 'I' for Inactive)
REMARK    1  A    between atoms: C_3  and  C_4
REMARK    2  A    between atoms: C_5  and  C_7
REMARK    3  A    between atoms: C_7  and  C_8
REMARK    4  A    between atoms: C_8  and  O_9
REMARK    5  A    between atoms: O_9  and  C_10
REMARK    6  A    between atoms: C_12  and  C_13
REMARK    7  A    between atoms: C_12  and  C_14
REMARK    8  A    between atoms: C_15  and  O_17
REMARK    9  A    between atoms: O_17  and  C_18
REMARK   10  A    between atoms: C_18  and  C_19
REMARK   11  A    between atoms: C_19  and  C_20
REMARK   12  A    between atoms: C_20  and  C_21
REMARK   13  A    between atoms: C_22  and  C_23
REMARK   14  A    between atoms: C_28  and  C_31
REMARK   15  A    between atoms: C_35  and  C_37
REMARK   16  A    between atoms: C_39  and  O_40
REMARK                            x       y       z     vdW  Elec       q    Type
REMARK                         _______ _______ _______ _____ _____    ______ ____
ROOT
ATOM      1  C   LIG A   1      -6.813   2.265 130.937  0.00  0.00    +0.028 C 
ATOM      2  C   LIG A   1      -6.487   0.725 130.620  0.00  0.00    +0.037 C 
ATOM      3  C   LIG A   1      -6.008   0.040 131.922  0.00  0.00    +0.020 C 
ATOM      4  C   LIG A   1      -5.421   0.529 129.433  0.00  0.00    +0.021 C 
ATOM      5  C   LIG A   1      -5.955   0.749 127.929  0.00  0.00    -0.004 C 
ATOM      6  C   LIG A   1      -5.248  -0.181 126.905  0.00  0.00    +0.014 C 
ATOM      7  C   LIG A   1      -5.531   2.184 127.498  0.00  0.00    +0.014 C 
ATOM      8  C   LIG A   1      -7.493   0.461 127.685  0.00  0.00    +0.139 C 
ATOM      9  C   LIG A   1      -7.785   2.916 129.971  0.00  0.00    -0.064 C 
ATOM     10  C   LIG A   1      -8.111   4.376 130.163  0.00  0.00    +0.035 C 
ATOM     11  C   LIG A   1      -8.897   4.496 131.478  0.00  0.00    +0.016 C 
ATOM     12  C   LIG A   1      -7.956   3.974 132.615  0.00  0.00    +0.012 C 
ATOM     13  C   LIG A   1      -7.390   2.541 132.363  0.00  0.00    +0.009 C 
ATOM     14  C   LIG A   1     -10.187   3.635 131.505  0.00  0.00    +0.016 C 
ATOM     15  C   LIG A   1      -6.884   5.295 130.134  0.00  0.00    +0.129 C 
ATOM     16  C   LIG A   1      -7.020   6.613 130.849  0.00  0.00    +0.308 C 
ATOM     17  O   LIG A   1      -8.098   6.829 131.630  0.00  0.00    -0.456 OA
ATOM     18  C   LIG A   1      -9.286   6.002 131.600  0.00  0.00    +0.220 C 
ATOM     19  O   LIG A   1      -6.125   7.454 130.783  0.00  0.00    -0.251 OA
ATOM     20  C   LIG A   1      -8.508   2.215 129.090  0.00  0.00    -0.014 C 
ATOM     21  C   LIG A   1      -8.376   0.745 128.891  0.00  0.00    +0.108 C 
ATOM     22  C   LIG A   1      -7.803   0.122 130.149  0.00  0.00    +0.149 C 
ATOM     23  O   LIG A   1      -8.409  -0.749 130.770  0.00  0.00    -0.296 OA
ENDROOT
BRANCH  18  24
ATOM     24  C   LIG A   1     -10.213   6.559 130.540  0.00  0.00    +0.079 C 
ATOM     25  C   LIG A   1      -9.970   7.043 129.313  0.00  0.00    +0.061 C 
ATOM     26  C   LIG A   1     -11.208   7.487 128.648  0.00  0.00    +0.334 C 
ATOM     27  O   LIG A   1     -12.219   7.287 129.611  0.00  0.00    -0.428 OA
ATOM     28  C   LIG A   1     -11.660   6.753 130.743  0.00  0.00    +0.341 C 
ATOM     29  O   LIG A   1     -12.262   6.491 131.749  0.00  0.00    -0.245 OA
BRANCH  26  30
ATOM     30  O   LIG A   1     -11.122   8.845 128.287  0.00  0.00    -0.354 OA
ATOM     31  H   LIG A   1     -12.025   9.142 128.094  0.00  0.00    +0.214 HD
ENDBRANCH  26  30
ENDBRANCH  18  24
BRANCH   4  32
ATOM     32  C   LIG A   1      -4.475  -0.711 129.579  0.00  0.00    +0.125 C 
BRANCH  32  33
ATOM     33  C   LIG A   1      -5.140  -2.063 129.688  0.00  0.00    +0.307 C 
ATOM     34  O   LIG A   1      -6.089  -2.441 129.022  0.00  0.00    -0.251 OA
BRANCH  33  35
ATOM     35  O   LIG A   1      -4.571  -2.753 130.714  0.00  0.00    -0.468 OA
ATOM     36  C   LIG A   1      -5.489  -3.611 131.384  0.00  0.00    +0.280 C 
ENDBRANCH  33  35
ENDBRANCH  32  33
ENDBRANCH   4  32
BRANCH   8  37
ATOM     37  O   LIG A   1      -7.910   1.184 126.484  0.00  0.00    -0.367 OA
BRANCH  37  38
ATOM     38  C   LIG A   1      -8.964   0.599 125.728  0.00  0.00    +0.239 C 
BRANCH  38  39
ATOM     39  C   LIG A   1      -8.770  -0.845 125.175  0.00  0.00    +0.184 C 
ATOM     40  O   LIG A   1      -9.523  -1.774 125.473  0.00  0.00    -0.290 OA
BRANCH  39  41
ATOM     41  C   LIG A   1      -7.558  -1.117 124.297  0.00  0.00    -0.010 C 
ATOM     42  C   LIG A   1      -7.095  -0.038 123.352  0.00  0.00    +0.047 C 
ATOM     43  C   LIG A   1      -6.940  -2.312 124.385  0.00  0.00    -0.024 C 
ATOM     44  C   LIG A   1      -5.742  -2.768 123.616  0.00  0.00    +0.035 C 
ENDBRANCH  39  41
ENDBRANCH  38  39
ENDBRANCH  37  38
ENDBRANCH   8  37
TORSDOF 9
ENDMDL
