MODEL 1
REMARK VINA RESULT:      -9.1      0.000      0.000
REMARK  Name = NuBBE_490
REMARK  15 active torsions:
REMARK  status: ('A' for Active; 'I' for Inactive)
REMARK    1  A    between atoms: C_4  and  C_5
REMARK    2  A    between atoms: C_12  and  O_13
REMARK    3  A    between atoms: C_16  and  C_24
REMARK    4  A    between atoms: C_18  and  C_23
REMARK    5  A    between atoms: C_28  and  C_29
REMARK    6  A    between atoms: C_30  and  C_31
REMARK    7  A    between atoms: C_31  and  C_33
REMARK    8  A    between atoms: C_31  and  C_34
REMARK    9  A    between atoms: C_34  and  O_36
REMARK   10  A    between atoms: C_34  and  C_49
REMARK   11  A    between atoms: O_36  and  C_37
REMARK   12  A    between atoms: C_37  and  C_38
REMARK   13  A    between atoms: C_38  and  O_39
REMARK   14  A    between atoms: C_38  and  C_41
REMARK   15  A    between atoms: O_39  and  C_40
REMARK                            x       y       z     vdW  Elec       q    Type
REMARK                         _______ _______ _______ _____ _____    ______ ____
ROOT
ATOM      1 CL   LIG A   1      -4.195   0.288 129.916  0.00  0.00    -0.079 Cl
ATOM      2  C   LIG A   1      -5.519  -0.041 128.850  0.00  0.00    +0.094 C 
ATOM      3  C   LIG A   1      -5.640  -1.473 128.385  0.00  0.00    +0.207 C 
ATOM      4  C   LIG A   1      -6.985  -1.859 127.747  0.00  0.00    +0.141 C 
ATOM      5  C   LIG A   1      -8.004  -2.102 128.877  0.00  0.00    +0.051 C 
ATOM      6  C   LIG A   1      -7.311  -0.734 126.773  0.00  0.00    +0.081 C 
ATOM      7  C   LIG A   1      -7.523   0.539 127.532  0.00  0.00    +0.003 C 
ATOM      8  C   LIG A   1      -8.551   1.396 127.417  0.00  0.00    +0.200 C 
ATOM      9  O   LIG A   1      -8.623   2.607 128.084  0.00  0.00    -0.463 OA
ATOM     10  O   LIG A   1      -6.975  -3.019 126.918  0.00  0.00    -0.333 OA
ATOM     11  C   LIG A   1      -7.926  -2.827 125.862  0.00  0.00    +0.188 C 
ATOM     12  C   LIG A   1      -8.353  -1.357 125.849  0.00  0.00    +0.168 C 
ATOM     13  C   LIG A   1      -7.365  -3.363 124.547  0.00  0.00    +0.086 C 
ATOM     14  C   LIG A   1      -8.221  -2.844 123.394  0.00  0.00    +0.181 C 
ATOM     15  O   LIG A   1      -8.221  -1.408 123.381  0.00  0.00    -0.461 OA
ATOM     16  C   LIG A   1      -8.332  -0.671 124.503  0.00  0.00    +0.316 C 
ATOM     17  O   LIG A   1      -8.415   0.553 124.417  0.00  0.00    -0.250 OA
ATOM     18  C   LIG A   1      -9.663  -3.336 123.358  0.00  0.00    +0.052 C 
ATOM     19  C   LIG A   1      -5.890  -2.981 124.334  0.00  0.00    +0.016 C 
ATOM     20  O   LIG A   1      -4.723  -2.280 128.527  0.00  0.00    -0.288 OA
ATOM     21  C   LIG A   1      -6.443   0.880 128.483  0.00  0.00    +0.007 C 
ATOM     22  C   LIG A   1      -6.426   2.248 128.981  0.00  0.00    +0.056 C 
ATOM     23  C   LIG A   1      -7.506   3.032 128.804  0.00  0.00    +0.128 C 
ENDROOT
BRANCH  11  24
ATOM     24  O   LIG A   1      -9.057  -3.608 126.234  0.00  0.00    -0.363 OA
ATOM     25  H   LIG A   1      -9.591  -3.025 126.802  0.00  0.00    +0.213 HD
ENDBRANCH  11  24
BRANCH  23  26
ATOM     26  C   LIG A   1      -7.603   4.390 129.295  0.00  0.00    +0.042 C 
ATOM     27  C   LIG A   1      -7.173   4.782 130.506  0.00  0.00    -0.017 C 
BRANCH  27  28
ATOM     28  C   LIG A   1      -7.284   6.186 131.066  0.00  0.00    +0.049 C 
ATOM     29  C   LIG A   1      -8.395   6.198 132.124  0.00  0.00    +0.015 C 
BRANCH  28  30
ATOM     30  C   LIG A   1      -5.921   6.669 131.637  0.00  0.00    +0.180 C 
ATOM     31  C   LIG A   1      -5.714   6.189 133.075  0.00  0.00    +0.052 C 
BRANCH  30  32
ATOM     32  O   LIG A   1      -4.854   6.127 130.825  0.00  0.00    -0.459 OA
BRANCH  32  33
ATOM     33  C   LIG A   1      -4.208   6.983 129.978  0.00  0.00    +0.341 C 
ATOM     34  O   LIG A   1      -4.610   8.120 129.697  0.00  0.00    -0.247 OA
BRANCH  33  35
ATOM     35  C   LIG A   1      -2.970   6.276 129.358  0.00  0.00    +0.256 C 
BRANCH  35  36
ATOM     36  C   LIG A   1      -3.384   5.239 128.301  0.00  0.00    -0.008 A 
ATOM     37  C   LIG A   1      -2.659   4.037 128.184  0.00  0.00    +0.007 A 
ATOM     38  C   LIG A   1      -2.999   3.076 127.228  0.00  0.00    +0.000 A 
ATOM     39  C   LIG A   1      -4.072   3.295 126.368  0.00  0.00    +0.000 A 
ATOM     40  C   LIG A   1      -4.791   4.486 126.456  0.00  0.00    +0.000 A 
ATOM     41  C   LIG A   1      -4.446   5.456 127.409  0.00  0.00    +0.007 A 
ENDBRANCH  35  36
BRANCH  35  42
ATOM     42  O   LIG A   1      -2.067   5.658 130.284  0.00  0.00    -0.364 OA
ATOM     43  C   LIG A   1      -1.474   6.573 131.201  0.00  0.00    +0.195 C 
ENDBRANCH  35  42
ENDBRANCH  33  35
ENDBRANCH  32  33
ENDBRANCH  30  32
ENDBRANCH  28  30
ENDBRANCH  27  28
ENDBRANCH  23  26
TORSDOF 9
ENDMDL
MODEL 2
REMARK VINA RESULT:      -8.8      2.352      4.085
REMARK  Name = NuBBE_490
REMARK  15 active torsions:
REMARK  status: ('A' for Active; 'I' for Inactive)
REMARK    1  A    between atoms: C_4  and  C_5
REMARK    2  A    between atoms: C_12  and  O_13
REMARK    3  A    between atoms: C_16  and  C_24
REMARK    4  A    between atoms: C_18  and  C_23
REMARK    5  A    between atoms: C_28  and  C_29
REMARK    6  A    between atoms: C_30  and  C_31
REMARK    7  A    between atoms: C_31  and  C_33
REMARK    8  A    between atoms: C_31  and  C_34
REMARK    9  A    between atoms: C_34  and  O_36
REMARK   10  A    between atoms: C_34  and  C_49
REMARK   11  A    between atoms: O_36  and  C_37
REMARK   12  A    between atoms: C_37  and  C_38
REMARK   13  A    between atoms: C_38  and  O_39
REMARK   14  A    between atoms: C_38  and  C_41
REMARK   15  A    between atoms: O_39  and  C_40
REMARK                            x       y       z     vdW  Elec       q    Type
REMARK                         _______ _______ _______ _____ _____    ______ ____
ROOT
ATOM      1 CL   LIG A   1      -3.891  -0.694 130.377  0.00  0.00    -0.079 Cl
ATOM      2  C   LIG A   1      -5.215  -0.723 129.262  0.00  0.00    +0.094 C 
ATOM      3  C   LIG A   1      -5.504  -2.064 128.630  0.00  0.00    +0.207 C 
ATOM      4  C   LIG A   1      -6.868  -2.196 127.932  0.00  0.00    +0.141 C 
ATOM      5  C   LIG A   1      -7.942  -2.432 129.011  0.00  0.00    +0.051 C 
ATOM      6  C   LIG A   1      -7.020  -0.933 127.093  0.00  0.00    +0.081 C 
ATOM      7  C   LIG A   1      -7.089   0.261 127.994  0.00  0.00    +0.003 C 
ATOM      8  C   LIG A   1      -7.996   1.251 127.967  0.00  0.00    +0.200 C 
ATOM      9  O   LIG A   1      -7.932   2.377 128.771  0.00  0.00    -0.463 OA
ATOM     10  O   LIG A   1      -6.982  -3.244 126.972  0.00  0.00    -0.333 OA
ATOM     11  C   LIG A   1      -7.870  -2.809 125.933  0.00  0.00    +0.188 C 
ATOM     12  C   LIG A   1      -8.105  -1.305 126.088  0.00  0.00    +0.168 C 
ATOM     13  C   LIG A   1      -7.344  -3.258 124.571  0.00  0.00    +0.086 C 
ATOM     14  C   LIG A   1      -8.093  -2.503 123.476  0.00  0.00    +0.181 C 
ATOM     15  O   LIG A   1      -7.910  -1.087 123.633  0.00  0.00    -0.461 OA
ATOM     16  C   LIG A   1      -7.958  -0.477 124.832  0.00  0.00    +0.316 C 
ATOM     17  O   LIG A   1      -7.882   0.749 124.890  0.00  0.00    -0.250 OA
ATOM     18  C   LIG A   1      -9.585  -2.796 123.362  0.00  0.00    +0.052 C 
ATOM     19  C   LIG A   1      -5.827  -3.049 124.426  0.00  0.00    +0.016 C 
ATOM     20  O   LIG A   1      -4.701  -2.993 128.688  0.00  0.00    -0.288 OA
ATOM     21  C   LIG A   1      -6.003   0.346 128.993  0.00  0.00    +0.007 C 
ATOM     22  C   LIG A   1      -5.826   1.635 129.650  0.00  0.00    +0.056 C 
ATOM     23  C   LIG A   1      -6.791   2.567 129.551  0.00  0.00    +0.128 C 
ENDROOT
BRANCH  11  24
ATOM     24  O   LIG A   1      -9.102  -3.474 126.194  0.00  0.00    -0.363 OA
ATOM     25  H   LIG A   1      -9.068  -4.287 125.658  0.00  0.00    +0.213 HD
ENDBRANCH  11  24
BRANCH  23  26
ATOM     26  C   LIG A   1      -6.729   3.861 130.198  0.00  0.00    +0.042 C 
ATOM     27  C   LIG A   1      -5.727   4.248 131.006  0.00  0.00    -0.017 C 
BRANCH  27  28
ATOM     28  C   LIG A   1      -5.642   5.580 131.723  0.00  0.00    +0.049 C 
ATOM     29  C   LIG A   1      -6.611   6.557 131.045  0.00  0.00    +0.015 C 
BRANCH  28  30
ATOM     30  C   LIG A   1      -5.936   5.416 133.241  0.00  0.00    +0.180 C 
ATOM     31  C   LIG A   1      -4.987   6.265 134.091  0.00  0.00    +0.052 C 
BRANCH  30  32
ATOM     32  O   LIG A   1      -7.288   5.854 133.507  0.00  0.00    -0.459 OA
BRANCH  32  33
ATOM     33  C   LIG A   1      -8.086   5.026 134.244  0.00  0.00    +0.341 C 
ATOM     34  O   LIG A   1      -7.912   4.778 135.446  0.00  0.00    -0.247 OA
BRANCH  33  35
ATOM     35  C   LIG A   1      -9.161   4.377 133.328  0.00  0.00    +0.256 C 
BRANCH  35  36
ATOM     36  C   LIG A   1      -8.778   2.940 132.939  0.00  0.00    -0.008 A 
ATOM     37  C   LIG A   1      -9.634   2.191 132.108  0.00  0.00    +0.007 A 
ATOM     38  C   LIG A   1      -9.324   0.878 131.742  0.00  0.00    +0.000 A 
ATOM     39  C   LIG A   1      -8.151   0.285 132.199  0.00  0.00    +0.000 A 
ATOM     40  C   LIG A   1      -7.299   1.002 133.038  0.00  0.00    +0.000 A 
ATOM     41  C   LIG A   1      -7.612   2.317 133.413  0.00  0.00    +0.007 A 
ENDBRANCH  35  36
BRANCH  35  42
ATOM     42  O   LIG A   1      -9.499   5.103 132.139  0.00  0.00    -0.364 OA
ATOM     43  C   LIG A   1     -10.559   6.038 132.322  0.00  0.00    +0.195 C 
ENDBRANCH  35  42
ENDBRANCH  33  35
ENDBRANCH  32  33
ENDBRANCH  30  32
ENDBRANCH  28  30
ENDBRANCH  27  28
ENDBRANCH  23  26
TORSDOF 9
ENDMDL
MODEL 3
REMARK VINA RESULT:      -8.8      2.542      3.936
REMARK  Name = NuBBE_490
REMARK  15 active torsions:
REMARK  status: ('A' for Active; 'I' for Inactive)
REMARK    1  A    between atoms: C_4  and  C_5
REMARK    2  A    between atoms: C_12  and  O_13
REMARK    3  A    between atoms: C_16  and  C_24
REMARK    4  A    between atoms: C_18  and  C_23
REMARK    5  A    between atoms: C_28  and  C_29
REMARK    6  A    between atoms: C_30  and  C_31
REMARK    7  A    between atoms: C_31  and  C_33
REMARK    8  A    between atoms: C_31  and  C_34
REMARK    9  A    between atoms: C_34  and  O_36
REMARK   10  A    between atoms: C_34  and  C_49
REMARK   11  A    between atoms: O_36  and  C_37
REMARK   12  A    between atoms: C_37  and  C_38
REMARK   13  A    between atoms: C_38  and  O_39
REMARK   14  A    between atoms: C_38  and  C_41
REMARK   15  A    between atoms: O_39  and  C_40
REMARK                            x       y       z     vdW  Elec       q    Type
REMARK                         _______ _______ _______ _____ _____    ______ ____
ROOT
ATOM      1 CL   LIG A   1      -4.282   0.659 129.934  0.00  0.00    -0.079 Cl
ATOM      2  C   LIG A   1      -5.597   0.225 128.894  0.00  0.00    +0.094 C 
ATOM      3  C   LIG A   1      -5.626  -1.219 128.452  0.00  0.00    +0.207 C 
ATOM      4  C   LIG A   1      -6.951  -1.705 127.840  0.00  0.00    +0.141 C 
ATOM      5  C   LIG A   1      -7.934  -2.000 128.989  0.00  0.00    +0.051 C 
ATOM      6  C   LIG A   1      -7.368  -0.620 126.856  0.00  0.00    +0.081 C 
ATOM      7  C   LIG A   1      -7.654   0.647 127.601  0.00  0.00    +0.003 C 
ATOM      8  C   LIG A   1      -8.740   1.430 127.490  0.00  0.00    +0.200 C 
ATOM      9  O   LIG A   1      -8.885   2.644 128.141  0.00  0.00    -0.463 OA
ATOM     10  O   LIG A   1      -6.874  -2.874 127.027  0.00  0.00    -0.333 OA
ATOM     11  C   LIG A   1      -7.852  -2.763 125.984  0.00  0.00    +0.188 C 
ATOM     12  C   LIG A   1      -8.378  -1.326 125.957  0.00  0.00    +0.168 C 
ATOM     13  C   LIG A   1      -7.275  -3.279 124.667  0.00  0.00    +0.086 C 
ATOM     14  C   LIG A   1      -8.181  -2.837 123.521  0.00  0.00    +0.181 C 
ATOM     15  O   LIG A   1      -8.280  -1.404 123.489  0.00  0.00    -0.461 OA
ATOM     16  C   LIG A   1      -8.424  -0.660 124.602  0.00  0.00    +0.316 C 
ATOM     17  O   LIG A   1      -8.592   0.554 124.500  0.00  0.00    -0.250 OA
ATOM     18  C   LIG A   1      -9.587  -3.426 123.515  0.00  0.00    +0.052 C 
ATOM     19  C   LIG A   1      -5.833  -2.801 124.426  0.00  0.00    +0.016 C 
ATOM     20  O   LIG A   1      -4.654  -1.959 128.590  0.00  0.00    -0.288 OA
ATOM     21  C   LIG A   1      -6.587   1.075 128.529  0.00  0.00    +0.007 C 
ATOM     22  C   LIG A   1      -6.656   2.449 129.008  0.00  0.00    +0.056 C 
ATOM     23  C   LIG A   1      -7.789   3.154 128.837  0.00  0.00    +0.128 C 
ENDROOT
BRANCH  11  24
ATOM     24  O   LIG A   1      -8.921  -3.614 126.384  0.00  0.00    -0.363 OA
ATOM     25  H   LIG A   1      -8.725  -3.846 127.310  0.00  0.00    +0.213 HD
ENDBRANCH  11  24
BRANCH  23  26
ATOM     26  C   LIG A   1      -7.972   4.510 129.311  0.00  0.00    +0.042 C 
ATOM     27  C   LIG A   1      -9.171   5.062 129.561  0.00  0.00    -0.017 C 
BRANCH  27  28
ATOM     28  C   LIG A   1      -9.403   6.484 130.029  0.00  0.00    +0.049 C 
ATOM     29  C   LIG A   1     -10.441   7.134 129.104  0.00  0.00    +0.015 C 
BRANCH  28  30
ATOM     30  C   LIG A   1      -9.840   6.517 131.520  0.00  0.00    +0.180 C 
ATOM     31  C   LIG A   1     -11.362   6.443 131.662  0.00  0.00    +0.052 C 
BRANCH  30  32
ATOM     32  O   LIG A   1      -9.270   5.376 132.201  0.00  0.00    -0.459 OA
BRANCH  32  33
ATOM     33  C   LIG A   1      -7.996   5.496 132.678  0.00  0.00    +0.341 C 
ATOM     34  O   LIG A   1      -7.210   6.395 132.349  0.00  0.00    -0.247 OA
BRANCH  33  35
ATOM     35  C   LIG A   1      -7.662   4.290 133.601  0.00  0.00    +0.256 C 
BRANCH  35  36
ATOM     36  C   LIG A   1      -8.048   2.954 132.945  0.00  0.00    -0.008 A 
ATOM     37  C   LIG A   1      -9.383   2.727 132.559  0.00  0.00    +0.007 A 
ATOM     38  C   LIG A   1      -9.773   1.521 131.969  0.00  0.00    +0.000 A 
ATOM     39  C   LIG A   1      -8.836   0.515 131.752  0.00  0.00    +0.000 A 
ATOM     40  C   LIG A   1      -7.512   0.713 132.143  0.00  0.00    +0.000 A 
ATOM     41  C   LIG A   1      -7.120   1.919 132.743  0.00  0.00    +0.007 A 
ENDBRANCH  35  36
BRANCH  35  42
ATOM     42  O   LIG A   1      -8.218   4.333 134.922  0.00  0.00    -0.364 OA
ATOM     43  C   LIG A   1      -7.682   5.375 135.733  0.00  0.00    +0.195 C 
ENDBRANCH  35  42
ENDBRANCH  33  35
ENDBRANCH  32  33
ENDBRANCH  30  32
ENDBRANCH  28  30
ENDBRANCH  27  28
ENDBRANCH  23  26
TORSDOF 9
ENDMDL
MODEL 4
REMARK VINA RESULT:      -8.7      1.368      1.880
REMARK  Name = NuBBE_490
REMARK  15 active torsions:
REMARK  status: ('A' for Active; 'I' for Inactive)
REMARK    1  A    between atoms: C_4  and  C_5
REMARK    2  A    between atoms: C_12  and  O_13
REMARK    3  A    between atoms: C_16  and  C_24
REMARK    4  A    between atoms: C_18  and  C_23
REMARK    5  A    between atoms: C_28  and  C_29
REMARK    6  A    between atoms: C_30  and  C_31
REMARK    7  A    between atoms: C_31  and  C_33
REMARK    8  A    between atoms: C_31  and  C_34
REMARK    9  A    between atoms: C_34  and  O_36
REMARK   10  A    between atoms: C_34  and  C_49
REMARK   11  A    between atoms: O_36  and  C_37
REMARK   12  A    between atoms: C_37  and  C_38
REMARK   13  A    between atoms: C_38  and  O_39
REMARK   14  A    between atoms: C_38  and  C_41
REMARK   15  A    between atoms: O_39  and  C_40
REMARK                            x       y       z     vdW  Elec       q    Type
REMARK                         _______ _______ _______ _____ _____    ______ ____
ROOT
ATOM      1 CL   LIG A   1      -4.221   0.157 130.181  0.00  0.00    -0.079 Cl
ATOM      2  C   LIG A   1      -5.522  -0.111 129.071  0.00  0.00    +0.094 C 
ATOM      3  C   LIG A   1      -5.569  -1.484 128.443  0.00  0.00    +0.207 C 
ATOM      4  C   LIG A   1      -6.890  -1.860 127.751  0.00  0.00    +0.141 C 
ATOM      5  C   LIG A   1      -7.899  -2.283 128.835  0.00  0.00    +0.051 C 
ATOM      6  C   LIG A   1      -7.269  -0.647 126.911  0.00  0.00    +0.081 C 
ATOM      7  C   LIG A   1      -7.548   0.517 127.810  0.00  0.00    +0.003 C 
ATOM      8  C   LIG A   1      -8.617   1.329 127.785  0.00  0.00    +0.200 C 
ATOM      9  O   LIG A   1      -8.754   2.450 128.587  0.00  0.00    -0.463 OA
ATOM     10  O   LIG A   1      -6.817  -2.914 126.793  0.00  0.00    -0.333 OA
ATOM     11  C   LIG A   1      -7.773  -2.648 125.757  0.00  0.00    +0.188 C 
ATOM     12  C   LIG A   1      -8.273  -1.210 125.910  0.00  0.00    +0.168 C 
ATOM     13  C   LIG A   1      -7.180  -2.999 124.394  0.00  0.00    +0.086 C 
ATOM     14  C   LIG A   1      -8.057  -2.392 123.301  0.00  0.00    +0.181 C 
ATOM     15  O   LIG A   1      -8.130  -0.967 123.455  0.00  0.00    -0.461 OA
ATOM     16  C   LIG A   1      -8.282  -0.372 124.653  0.00  0.00    +0.316 C 
ATOM     17  O   LIG A   1      -8.428   0.848 124.709  0.00  0.00    -0.250 OA
ATOM     18  C   LIG A   1      -9.472  -2.948 123.194  0.00  0.00    +0.052 C 
ATOM     19  C   LIG A   1      -5.726  -2.521 124.241  0.00  0.00    +0.016 C 
ATOM     20  O   LIG A   1      -4.612  -2.255 128.498  0.00  0.00    -0.288 OA
ATOM     21  C   LIG A   1      -6.490   0.798 128.804  0.00  0.00    +0.007 C 
ATOM     22  C   LIG A   1      -6.545   2.099 129.458  0.00  0.00    +0.056 C 
ATOM     23  C   LIG A   1      -7.662   2.843 129.362  0.00  0.00    +0.128 C 
ENDROOT
BRANCH  11  24
ATOM     24  O   LIG A   1      -8.864  -3.523 126.025  0.00  0.00    -0.363 OA
ATOM     25  H   LIG A   1      -9.562  -2.951 126.393  0.00  0.00    +0.213 HD
ENDBRANCH  11  24
BRANCH  23  26
ATOM     26  C   LIG A   1      -7.830   4.128 130.007  0.00  0.00    +0.042 C 
ATOM     27  C   LIG A   1      -6.815   4.959 130.298  0.00  0.00    -0.017 C 
BRANCH  27  28
ATOM     28  C   LIG A   1      -6.949   6.297 130.998  0.00  0.00    +0.049 C 
ATOM     29  C   LIG A   1      -8.383   6.804 130.801  0.00  0.00    +0.015 C 
BRANCH  28  30
ATOM     30  C   LIG A   1      -6.565   6.182 132.499  0.00  0.00    +0.180 C 
ATOM     31  C   LIG A   1      -7.777   5.825 133.363  0.00  0.00    +0.052 C 
BRANCH  30  32
ATOM     32  O   LIG A   1      -5.580   5.134 132.654  0.00  0.00    -0.459 OA
BRANCH  32  33
ATOM     33  C   LIG A   1      -4.285   5.511 132.873  0.00  0.00    +0.341 C 
ATOM     34  O   LIG A   1      -3.952   6.563 133.435  0.00  0.00    -0.247 OA
BRANCH  33  35
ATOM     35  C   LIG A   1      -3.319   4.481 132.223  0.00  0.00    +0.256 C 
BRANCH  35  36
ATOM     36  C   LIG A   1      -3.048   4.814 130.747  0.00  0.00    -0.008 A 
ATOM     37  C   LIG A   1      -2.436   6.036 130.410  0.00  0.00    +0.007 A 
ATOM     38  C   LIG A   1      -2.183   6.378 129.078  0.00  0.00    +0.000 A 
ATOM     39  C   LIG A   1      -2.537   5.504 128.054  0.00  0.00    +0.000 A 
ATOM     40  C   LIG A   1      -3.161   4.296 128.366  0.00  0.00    +0.000 A 
ATOM     41  C   LIG A   1      -3.423   3.956 129.701  0.00  0.00    +0.007 A 
ENDBRANCH  35  36
BRANCH  35  42
ATOM     42  O   LIG A   1      -3.706   3.104 132.323  0.00  0.00    -0.364 OA
ATOM     43  C   LIG A   1      -2.905   2.350 133.229  0.00  0.00    +0.195 C 
ENDBRANCH  35  42
ENDBRANCH  33  35
ENDBRANCH  32  33
ENDBRANCH  30  32
ENDBRANCH  28  30
ENDBRANCH  27  28
ENDBRANCH  23  26
TORSDOF 9
ENDMDL
MODEL 5
REMARK VINA RESULT:      -8.6      2.154      8.850
REMARK  Name = NuBBE_490
REMARK  15 active torsions:
REMARK  status: ('A' for Active; 'I' for Inactive)
REMARK    1  A    between atoms: C_4  and  C_5
REMARK    2  A    between atoms: C_12  and  O_13
REMARK    3  A    between atoms: C_16  and  C_24
REMARK    4  A    between atoms: C_18  and  C_23
REMARK    5  A    between atoms: C_28  and  C_29
REMARK    6  A    between atoms: C_30  and  C_31
REMARK    7  A    between atoms: C_31  and  C_33
REMARK    8  A    between atoms: C_31  and  C_34
REMARK    9  A    between atoms: C_34  and  O_36
REMARK   10  A    between atoms: C_34  and  C_49
REMARK   11  A    between atoms: O_36  and  C_37
REMARK   12  A    between atoms: C_37  and  C_38
REMARK   13  A    between atoms: C_38  and  O_39
REMARK   14  A    between atoms: C_38  and  C_41
REMARK   15  A    between atoms: O_39  and  C_40
REMARK                            x       y       z     vdW  Elec       q    Type
REMARK                         _______ _______ _______ _____ _____    ______ ____
ROOT
ATOM      1 CL   LIG A   1     -10.045   4.153 130.310  0.00  0.00    -0.079 Cl
ATOM      2  C   LIG A   1      -8.339   4.081 130.598  0.00  0.00    +0.094 C 
ATOM      3  C   LIG A   1      -7.757   5.254 131.351  0.00  0.00    +0.207 C 
ATOM      4  C   LIG A   1      -6.345   5.048 131.925  0.00  0.00    +0.141 C 
ATOM      5  C   LIG A   1      -6.467   4.229 133.225  0.00  0.00    +0.051 C 
ATOM      6  C   LIG A   1      -5.537   4.414 130.801  0.00  0.00    +0.081 C 
ATOM      7  C   LIG A   1      -6.095   3.062 130.484  0.00  0.00    +0.003 C 
ATOM      8  C   LIG A   1      -5.419   1.907 130.366  0.00  0.00    +0.200 C 
ATOM      9  O   LIG A   1      -5.996   0.712 129.970  0.00  0.00    -0.463 OA
ATOM     10  O   LIG A   1      -5.613   6.234 132.229  0.00  0.00    -0.333 OA
ATOM     11  C   LIG A   1      -4.222   5.977 131.990  0.00  0.00    +0.188 C 
ATOM     12  C   LIG A   1      -4.091   4.661 131.222  0.00  0.00    +0.168 C 
ATOM     13  C   LIG A   1      -3.571   7.193 131.333  0.00  0.00    +0.086 C 
ATOM     14  C   LIG A   1      -2.208   6.785 130.777  0.00  0.00    +0.181 C 
ATOM     15  O   LIG A   1      -2.359   5.727 129.817  0.00  0.00    -0.461 OA
ATOM     16  C   LIG A   1      -3.192   4.686 130.008  0.00  0.00    +0.316 C 
ATOM     17  O   LIG A   1      -3.210   3.768 129.190  0.00  0.00    -0.250 OA
ATOM     18  C   LIG A   1      -1.162   6.370 131.805  0.00  0.00    +0.052 C 
ATOM     19  C   LIG A   1      -4.443   7.803 130.223  0.00  0.00    +0.016 C 
ATOM     20  O   LIG A   1      -8.384   6.301 131.505  0.00  0.00    -0.288 OA
ATOM     21  C   LIG A   1      -7.554   3.034 130.246  0.00  0.00    +0.007 C 
ATOM     22  C   LIG A   1      -8.085   1.838 129.607  0.00  0.00    +0.056 C 
ATOM     23  C   LIG A   1      -7.320   0.733 129.529  0.00  0.00    +0.128 C 
ENDROOT
BRANCH  11  24
ATOM     24  O   LIG A   1      -3.652   5.790 133.282  0.00  0.00    -0.363 OA
ATOM     25  H   LIG A   1      -2.794   6.249 133.248  0.00  0.00    +0.213 HD
ENDBRANCH  11  24
BRANCH  23  26
ATOM     26  C   LIG A   1      -7.767  -0.516 128.950  0.00  0.00    +0.042 C 
ATOM     27  C   LIG A   1      -6.960  -1.376 128.306  0.00  0.00    -0.017 C 
BRANCH  27  28
ATOM     28  C   LIG A   1      -7.397  -2.676 127.662  0.00  0.00    +0.049 C 
ATOM     29  C   LIG A   1      -8.532  -3.274 128.502  0.00  0.00    +0.015 C 
BRANCH  28  30
ATOM     30  C   LIG A   1      -7.814  -2.453 126.181  0.00  0.00    +0.180 C 
ATOM     31  C   LIG A   1      -8.286  -3.754 125.528  0.00  0.00    +0.052 C 
BRANCH  30  32
ATOM     32  O   LIG A   1      -8.908  -1.508 126.139  0.00  0.00    -0.459 OA
BRANCH  32  33
ATOM     33  C   LIG A   1      -8.863  -0.532 125.184  0.00  0.00    +0.341 C 
ATOM     34  O   LIG A   1      -9.863  -0.028 124.655  0.00  0.00    -0.247 OA
BRANCH  33  35
ATOM     35  C   LIG A   1      -7.386  -0.236 124.802  0.00  0.00    +0.256 C 
BRANCH  35  36
ATOM     36  C   LIG A   1      -6.859   1.019 125.517  0.00  0.00    -0.008 A 
ATOM     37  C   LIG A   1      -5.539   1.039 126.007  0.00  0.00    +0.007 A 
ATOM     38  C   LIG A   1      -5.028   2.159 126.671  0.00  0.00    +0.000 A 
ATOM     39  C   LIG A   1      -5.827   3.282 126.860  0.00  0.00    +0.000 A 
ATOM     40  C   LIG A   1      -7.143   3.276 126.399  0.00  0.00    +0.000 A 
ATOM     41  C   LIG A   1      -7.660   2.151 125.740  0.00  0.00    +0.007 A 
ENDBRANCH  35  36
BRANCH  35  42
ATOM     42  O   LIG A   1      -7.107  -0.121 123.401  0.00  0.00    -0.364 OA
ATOM     43  C   LIG A   1      -6.601  -1.319 122.818  0.00  0.00    +0.195 C 
ENDBRANCH  35  42
ENDBRANCH  33  35
ENDBRANCH  32  33
ENDBRANCH  30  32
ENDBRANCH  28  30
ENDBRANCH  27  28
ENDBRANCH  23  26
TORSDOF 9
ENDMDL
MODEL 6
REMARK VINA RESULT:      -8.6      2.088      3.160
REMARK  Name = NuBBE_490
REMARK  15 active torsions:
REMARK  status: ('A' for Active; 'I' for Inactive)
REMARK    1  A    between atoms: C_4  and  C_5
REMARK    2  A    between atoms: C_12  and  O_13
REMARK    3  A    between atoms: C_16  and  C_24
REMARK    4  A    between atoms: C_18  and  C_23
REMARK    5  A    between atoms: C_28  and  C_29
REMARK    6  A    between atoms: C_30  and  C_31
REMARK    7  A    between atoms: C_31  and  C_33
REMARK    8  A    between atoms: C_31  and  C_34
REMARK    9  A    between atoms: C_34  and  O_36
REMARK   10  A    between atoms: C_34  and  C_49
REMARK   11  A    between atoms: O_36  and  C_37
REMARK   12  A    between atoms: C_37  and  C_38
REMARK   13  A    between atoms: C_38  and  O_39
REMARK   14  A    between atoms: C_38  and  C_41
REMARK   15  A    between atoms: O_39  and  C_40
REMARK                            x       y       z     vdW  Elec       q    Type
REMARK                         _______ _______ _______ _____ _____    ______ ____
ROOT
ATOM      1 CL   LIG A   1      -4.226   0.504 129.902  0.00  0.00    -0.079 Cl
ATOM      2  C   LIG A   1      -5.554   0.111 128.862  0.00  0.00    +0.094 C 
ATOM      3  C   LIG A   1      -5.614  -1.325 128.398  0.00  0.00    +0.207 C 
ATOM      4  C   LIG A   1      -6.950  -1.776 127.786  0.00  0.00    +0.141 C 
ATOM      5  C   LIG A   1      -7.933  -2.069 128.935  0.00  0.00    +0.051 C 
ATOM      6  C   LIG A   1      -7.350  -0.669 126.820  0.00  0.00    +0.081 C 
ATOM      7  C   LIG A   1      -7.609   0.592 127.584  0.00  0.00    +0.003 C 
ATOM      8  C   LIG A   1      -8.680   1.398 127.491  0.00  0.00    +0.200 C 
ATOM      9  O   LIG A   1      -8.798   2.604 128.161  0.00  0.00    -0.463 OA
ATOM     10  O   LIG A   1      -6.899  -2.934 126.955  0.00  0.00    -0.333 OA
ATOM     11  C   LIG A   1      -7.880  -2.789 125.919  0.00  0.00    +0.188 C 
ATOM     12  C   LIG A   1      -8.378  -1.342 125.916  0.00  0.00    +0.168 C 
ATOM     13  C   LIG A   1      -7.319  -3.296 124.592  0.00  0.00    +0.086 C 
ATOM     14  C   LIG A   1      -8.222  -2.819 123.457  0.00  0.00    +0.181 C 
ATOM     15  O   LIG A   1      -8.293  -1.385 123.446  0.00  0.00    -0.461 OA
ATOM     16  C   LIG A   1      -8.418  -0.655 124.570  0.00  0.00    +0.316 C 
ATOM     17  O   LIG A   1      -8.563   0.563 124.487  0.00  0.00    -0.250 OA
ATOM     18  C   LIG A   1      -9.639  -3.382 123.448  0.00  0.00    +0.052 C 
ATOM     19  C   LIG A   1      -5.869  -2.842 124.350  0.00  0.00    +0.016 C 
ATOM     20  O   LIG A   1      -4.655  -2.085 128.520  0.00  0.00    -0.288 OA
ATOM     21  C   LIG A   1      -6.529   0.985 128.514  0.00  0.00    +0.007 C 
ATOM     22  C   LIG A   1      -6.569   2.353 129.014  0.00  0.00    +0.056 C 
ATOM     23  C   LIG A   1      -7.689   3.083 128.859  0.00  0.00    +0.128 C 
ENDROOT
BRANCH  11  24
ATOM     24  O   LIG A   1      -8.963  -3.625 126.312  0.00  0.00    -0.363 OA
ATOM     25  H   LIG A   1      -8.638  -4.109 127.091  0.00  0.00    +0.213 HD
ENDBRANCH  11  24
BRANCH  23  26
ATOM     26  C   LIG A   1      -7.843   4.435 129.354  0.00  0.00    +0.042 C 
ATOM     27  C   LIG A   1      -9.006   4.944 129.794  0.00  0.00    -0.017 C 
BRANCH  27  28
ATOM     28  C   LIG A   1      -9.213   6.361 130.290  0.00  0.00    +0.049 C 
ATOM     29  C   LIG A   1     -10.272   7.033 129.408  0.00  0.00    +0.015 C 
BRANCH  28  30
ATOM     30  C   LIG A   1      -9.604   6.373 131.795  0.00  0.00    +0.180 C 
ATOM     31  C   LIG A   1     -11.122   6.418 131.980  0.00  0.00    +0.052 C 
BRANCH  30  32
ATOM     32  O   LIG A   1      -9.112   5.165 132.418  0.00  0.00    -0.459 OA
BRANCH  32  33
ATOM     33  C   LIG A   1      -8.165   5.297 133.394  0.00  0.00    +0.341 C 
ATOM     34  O   LIG A   1      -8.232   6.113 134.323  0.00  0.00    -0.247 OA
BRANCH  33  35
ATOM     35  C   LIG A   1      -6.967   4.352 133.098  0.00  0.00    +0.256 C 
BRANCH  35  36
ATOM     36  C   LIG A   1      -5.920   5.032 132.201  0.00  0.00    -0.008 A 
ATOM     37  C   LIG A   1      -4.871   4.270 131.654  0.00  0.00    +0.007 A 
ATOM     38  C   LIG A   1      -3.895   4.856 130.842  0.00  0.00    +0.000 A 
ATOM     39  C   LIG A   1      -3.946   6.218 130.562  0.00  0.00    +0.000 A 
ATOM     40  C   LIG A   1      -4.966   6.995 131.109  0.00  0.00    +0.000 A 
ATOM     41  C   LIG A   1      -5.942   6.410 131.930  0.00  0.00    +0.007 A 
ENDBRANCH  35  36
BRANCH  35  42
ATOM     42  O   LIG A   1      -7.295   3.074 132.538  0.00  0.00    -0.364 OA
ATOM     43  C   LIG A   1      -7.163   1.995 133.460  0.00  0.00    +0.195 C 
ENDBRANCH  35  42
ENDBRANCH  33  35
ENDBRANCH  32  33
ENDBRANCH  30  32
ENDBRANCH  28  30
ENDBRANCH  27  28
ENDBRANCH  23  26
TORSDOF 9
ENDMDL
MODEL 7
REMARK VINA RESULT:      -8.4      3.689      6.566
REMARK  Name = NuBBE_490
REMARK  15 active torsions:
REMARK  status: ('A' for Active; 'I' for Inactive)
REMARK    1  A    between atoms: C_4  and  C_5
REMARK    2  A    between atoms: C_12  and  O_13
REMARK    3  A    between atoms: C_16  and  C_24
REMARK    4  A    between atoms: C_18  and  C_23
REMARK    5  A    between atoms: C_28  and  C_29
REMARK    6  A    between atoms: C_30  and  C_31
REMARK    7  A    between atoms: C_31  and  C_33
REMARK    8  A    between atoms: C_31  and  C_34
REMARK    9  A    between atoms: C_34  and  O_36
REMARK   10  A    between atoms: C_34  and  C_49
REMARK   11  A    between atoms: O_36  and  C_37
REMARK   12  A    between atoms: C_37  and  C_38
REMARK   13  A    between atoms: C_38  and  O_39
REMARK   14  A    between atoms: C_38  and  C_41
REMARK   15  A    between atoms: O_39  and  C_40
REMARK                            x       y       z     vdW  Elec       q    Type
REMARK                         _______ _______ _______ _____ _____    ______ ____
ROOT
ATOM      1 CL   LIG A   1      -8.340   3.462 129.746  0.00  0.00    -0.079 Cl
ATOM      2  C   LIG A   1      -8.078   2.133 128.667  0.00  0.00    +0.094 C 
ATOM      3  C   LIG A   1      -7.921   2.499 127.210  0.00  0.00    +0.207 C 
ATOM      4  C   LIG A   1      -7.339   1.403 126.302  0.00  0.00    +0.141 C 
ATOM      5  C   LIG A   1      -5.811   1.377 126.497  0.00  0.00    +0.051 C 
ATOM      6  C   LIG A   1      -8.088   0.129 126.670  0.00  0.00    +0.081 C 
ATOM      7  C   LIG A   1      -7.775  -0.245 128.085  0.00  0.00    +0.003 C 
ATOM      8  C   LIG A   1      -7.389  -1.447 128.545  0.00  0.00    +0.200 C 
ATOM      9  O   LIG A   1      -7.216  -1.740 129.887  0.00  0.00    -0.463 OA
ATOM     10  O   LIG A   1      -7.595   1.544 124.906  0.00  0.00    -0.333 OA
ATOM     11  C   LIG A   1      -7.721   0.234 124.337  0.00  0.00    +0.188 C 
ATOM     12  C   LIG A   1      -7.842  -0.784 125.473  0.00  0.00    +0.168 C 
ATOM     13  C   LIG A   1      -8.853   0.215 123.312  0.00  0.00    +0.086 C 
ATOM     14  C   LIG A   1      -9.199  -1.235 122.981  0.00  0.00    +0.181 C 
ATOM     15  O   LIG A   1      -9.600  -1.934 124.170  0.00  0.00    -0.461 OA
ATOM     16  C   LIG A   1      -8.961  -1.792 125.347  0.00  0.00    +0.316 C 
ATOM     17  O   LIG A   1      -9.297  -2.485 126.305  0.00  0.00    -0.250 OA
ATOM     18  C   LIG A   1      -8.111  -2.040 122.281  0.00  0.00    +0.052 C 
ATOM     19  C   LIG A   1     -10.103   0.969 123.797  0.00  0.00    +0.016 C 
ATOM     20  O   LIG A   1      -8.228   3.612 126.786  0.00  0.00    -0.288 OA
ATOM     21  C   LIG A   1      -7.952   0.845 129.068  0.00  0.00    +0.007 C 
ATOM     22  C   LIG A   1      -7.997   0.453 130.470  0.00  0.00    +0.056 C 
ATOM     23  C   LIG A   1      -7.600  -0.783 130.826  0.00  0.00    +0.128 C 
ENDROOT
BRANCH  11  24
ATOM     24  O   LIG A   1      -6.487  -0.001 123.667  0.00  0.00    -0.363 OA
ATOM     25  H   LIG A   1      -5.878  -0.312 124.361  0.00  0.00    +0.213 HD
ENDBRANCH  11  24
BRANCH  23  26
ATOM     26  C   LIG A   1      -7.569  -1.255 132.195  0.00  0.00    +0.042 C 
ATOM     27  C   LIG A   1      -6.931  -2.369 132.590  0.00  0.00    -0.017 C 
BRANCH  27  28
ATOM     28  C   LIG A   1      -6.902  -2.910 134.005  0.00  0.00    +0.049 C 
ATOM     29  C   LIG A   1      -8.227  -3.636 134.272  0.00  0.00    +0.015 C 
BRANCH  28  30
ATOM     30  C   LIG A   1      -5.670  -3.832 134.224  0.00  0.00    +0.180 C 
ATOM     31  C   LIG A   1      -6.093  -5.265 134.554  0.00  0.00    +0.052 C 
BRANCH  30  32
ATOM     32  O   LIG A   1      -4.885  -3.864 133.010  0.00  0.00    -0.459 OA
BRANCH  32  33
ATOM     33  C   LIG A   1      -3.528  -3.772 133.133  0.00  0.00    +0.341 C 
ATOM     34  O   LIG A   1      -2.757  -4.740 133.089  0.00  0.00    -0.247 OA
BRANCH  33  35
ATOM     35  C   LIG A   1      -3.125  -2.301 133.433  0.00  0.00    +0.256 C 
BRANCH  35  36
ATOM     36  C   LIG A   1      -3.519  -1.362 132.281  0.00  0.00    -0.008 A 
ATOM     37  C   LIG A   1      -3.934  -0.047 132.566  0.00  0.00    +0.007 A 
ATOM     38  C   LIG A   1      -4.309   0.832 131.545  0.00  0.00    +0.000 A 
ATOM     39  C   LIG A   1      -4.278   0.415 130.218  0.00  0.00    +0.000 A 
ATOM     40  C   LIG A   1      -3.887  -0.889 129.916  0.00  0.00    +0.000 A 
ATOM     41  C   LIG A   1      -3.518  -1.775 130.939  0.00  0.00    +0.007 A 
ENDBRANCH  35  36
BRANCH  35  42
ATOM     42  O   LIG A   1      -1.748  -2.078 133.761  0.00  0.00    -0.364 OA
ATOM     43  C   LIG A   1      -1.482  -2.101 135.161  0.00  0.00    +0.195 C 
ENDBRANCH  35  42
ENDBRANCH  33  35
ENDBRANCH  32  33
ENDBRANCH  30  32
ENDBRANCH  28  30
ENDBRANCH  27  28
ENDBRANCH  23  26
TORSDOF 9
ENDMDL
MODEL 8
REMARK VINA RESULT:      -8.4      2.603      4.595
REMARK  Name = NuBBE_490
REMARK  15 active torsions:
REMARK  status: ('A' for Active; 'I' for Inactive)
REMARK    1  A    between atoms: C_4  and  C_5
REMARK    2  A    between atoms: C_12  and  O_13
REMARK    3  A    between atoms: C_16  and  C_24
REMARK    4  A    between atoms: C_18  and  C_23
REMARK    5  A    between atoms: C_28  and  C_29
REMARK    6  A    between atoms: C_30  and  C_31
REMARK    7  A    between atoms: C_31  and  C_33
REMARK    8  A    between atoms: C_31  and  C_34
REMARK    9  A    between atoms: C_34  and  O_36
REMARK   10  A    between atoms: C_34  and  C_49
REMARK   11  A    between atoms: O_36  and  C_37
REMARK   12  A    between atoms: C_37  and  C_38
REMARK   13  A    between atoms: C_38  and  O_39
REMARK   14  A    between atoms: C_38  and  C_41
REMARK   15  A    between atoms: O_39  and  C_40
REMARK                            x       y       z     vdW  Elec       q    Type
REMARK                         _______ _______ _______ _____ _____    ______ ____
ROOT
ATOM      1 CL   LIG A   1      -3.526  -1.451 130.475  0.00  0.00    -0.079 Cl
ATOM      2  C   LIG A   1      -4.716  -1.095 129.269  0.00  0.00    +0.094 C 
ATOM      3  C   LIG A   1      -5.154  -2.267 128.422  0.00  0.00    +0.207 C 
ATOM      4  C   LIG A   1      -6.443  -2.061 127.609  0.00  0.00    +0.141 C 
ATOM      5  C   LIG A   1      -7.645  -2.248 128.554  0.00  0.00    +0.051 C 
ATOM      6  C   LIG A   1      -6.300  -0.691 126.960  0.00  0.00    +0.081 C 
ATOM      7  C   LIG A   1      -6.265   0.364 128.021  0.00  0.00    +0.003 C 
ATOM      8  C   LIG A   1      -6.990   1.494 128.073  0.00  0.00    +0.200 C 
ATOM      9  O   LIG A   1      -6.826   2.472 129.039  0.00  0.00    -0.463 OA
ATOM     10  O   LIG A   1      -6.628  -2.935 126.496  0.00  0.00    -0.333 OA
ATOM     11  C   LIG A   1      -7.322  -2.214 125.469  0.00  0.00    +0.188 C 
ATOM     12  C   LIG A   1      -7.323  -0.727 125.829  0.00  0.00    +0.168 C 
ATOM     13  C   LIG A   1      -6.740  -2.562 124.100  0.00  0.00    +0.086 C 
ATOM     14  C   LIG A   1      -7.240  -1.546 123.076  0.00  0.00    +0.181 C 
ATOM     15  O   LIG A   1      -6.845  -0.219 123.457  0.00  0.00    -0.461 OA
ATOM     16  C   LIG A   1      -6.915   0.223 124.727  0.00  0.00    +0.316 C 
ATOM     17  O   LIG A   1      -6.647   1.398 124.974  0.00  0.00    -0.250 OA
ATOM     18  C   LIG A   1      -8.740  -1.554 122.804  0.00  0.00    +0.052 C 
ATOM     19  C   LIG A   1      -5.202  -2.606 124.106  0.00  0.00    +0.016 C 
ATOM     20  O   LIG A   1      -4.524  -3.323 128.402  0.00  0.00    -0.288 OA
ATOM     21  C   LIG A   1      -5.287   0.122 129.103  0.00  0.00    +0.007 C 
ATOM     22  C   LIG A   1      -4.970   1.259 129.957  0.00  0.00    +0.056 C 
ATOM     23  C   LIG A   1      -5.755   2.351 129.925  0.00  0.00    +0.128 C 
ENDROOT
BRANCH  11  24
ATOM     24  O   LIG A   1      -8.666  -2.681 125.531  0.00  0.00    -0.363 OA
ATOM     25  H   LIG A   1      -8.618  -3.621 125.279  0.00  0.00    +0.213 HD
ENDBRANCH  11  24
BRANCH  23  26
ATOM     26  C   LIG A   1      -5.549   3.515 130.761  0.00  0.00    +0.042 C 
ATOM     27  C   LIG A   1      -6.545   4.227 131.315  0.00  0.00    -0.017 C 
BRANCH  27  28
ATOM     28  C   LIG A   1      -6.369   5.466 132.170  0.00  0.00    +0.049 C 
ATOM     29  C   LIG A   1      -4.892   5.572 132.568  0.00  0.00    +0.015 C 
BRANCH  28  30
ATOM     30  C   LIG A   1      -6.872   6.734 131.425  0.00  0.00    +0.180 C 
ATOM     31  C   LIG A   1      -5.750   7.394 130.620  0.00  0.00    +0.052 C 
BRANCH  30  32
ATOM     32  O   LIG A   1      -7.920   6.353 130.504  0.00  0.00    -0.459 OA
BRANCH  32  33
ATOM     33  C   LIG A   1      -9.197   6.299 130.987  0.00  0.00    +0.341 C 
ATOM     34  O   LIG A   1      -9.531   6.684 132.116  0.00  0.00    -0.247 OA
BRANCH  33  35
ATOM     35  C   LIG A   1     -10.122   5.598 129.953  0.00  0.00    +0.256 C 
BRANCH  35  36
ATOM     36  C   LIG A   1     -11.158   6.573 129.371  0.00  0.00    -0.008 A 
ATOM     37  C   LIG A   1     -10.760   7.869 128.993  0.00  0.00    +0.007 A 
ATOM     38  C   LIG A   1     -11.676   8.786 128.469  0.00  0.00    +0.000 A 
ATOM     39  C   LIG A   1     -13.011   8.426 128.312  0.00  0.00    +0.000 A 
ATOM     40  C   LIG A   1     -13.430   7.153 128.697  0.00  0.00    +0.000 A 
ATOM     41  C   LIG A   1     -12.514   6.235 129.230  0.00  0.00    +0.007 A 
ENDBRANCH  35  36
BRANCH  35  42
ATOM     42  O   LIG A   1     -10.801   4.421 130.410  0.00  0.00    -0.364 OA
ATOM     43  C   LIG A   1      -9.984   3.253 130.408  0.00  0.00    +0.195 C 
ENDBRANCH  35  42
ENDBRANCH  33  35
ENDBRANCH  32  33
ENDBRANCH  30  32
ENDBRANCH  28  30
ENDBRANCH  27  28
ENDBRANCH  23  26
TORSDOF 9
ENDMDL
MODEL 9
REMARK VINA RESULT:      -8.2      1.019      2.351
REMARK  Name = NuBBE_490
REMARK  15 active torsions:
REMARK  status: ('A' for Active; 'I' for Inactive)
REMARK    1  A    between atoms: C_4  and  C_5
REMARK    2  A    between atoms: C_12  and  O_13
REMARK    3  A    between atoms: C_16  and  C_24
REMARK    4  A    between atoms: C_18  and  C_23
REMARK    5  A    between atoms: C_28  and  C_29
REMARK    6  A    between atoms: C_30  and  C_31
REMARK    7  A    between atoms: C_31  and  C_33
REMARK    8  A    between atoms: C_31  and  C_34
REMARK    9  A    between atoms: C_34  and  O_36
REMARK   10  A    between atoms: C_34  and  C_49
REMARK   11  A    between atoms: O_36  and  C_37
REMARK   12  A    between atoms: C_37  and  C_38
REMARK   13  A    between atoms: C_38  and  O_39
REMARK   14  A    between atoms: C_38  and  C_41
REMARK   15  A    between atoms: O_39  and  C_40
REMARK                            x       y       z     vdW  Elec       q    Type
REMARK                         _______ _______ _______ _____ _____    ______ ____
ROOT
ATOM      1 CL   LIG A   1      -4.272  -0.684 130.495  0.00  0.00    -0.079 Cl
ATOM      2  C   LIG A   1      -5.547  -0.702 129.323  0.00  0.00    +0.094 C 
ATOM      3  C   LIG A   1      -5.710  -1.994 128.559  0.00  0.00    +0.207 C 
ATOM      4  C   LIG A   1      -7.033  -2.157 127.792  0.00  0.00    +0.141 C 
ATOM      5  C   LIG A   1      -8.126  -2.571 128.796  0.00  0.00    +0.051 C 
ATOM      6  C   LIG A   1      -7.248  -0.835 127.066  0.00  0.00    +0.081 C 
ATOM      7  C   LIG A   1      -7.441   0.260 128.068  0.00  0.00    +0.003 C 
ATOM      8  C   LIG A   1      -8.418   1.182 128.091  0.00  0.00    +0.200 C 
ATOM      9  O   LIG A   1      -8.470   2.228 128.998  0.00  0.00    -0.463 OA
ATOM     10  O   LIG A   1      -7.031  -3.115 126.736  0.00  0.00    -0.333 OA
ATOM     11  C   LIG A   1      -7.910  -2.649 125.703  0.00  0.00    +0.188 C 
ATOM     12  C   LIG A   1      -8.263  -1.186 125.984  0.00  0.00    +0.168 C 
ATOM     13  C   LIG A   1      -7.300  -2.928 124.330  0.00  0.00    +0.086 C 
ATOM     14  C   LIG A   1      -8.062  -2.128 123.276  0.00  0.00    +0.181 C 
ATOM     15  O   LIG A   1      -7.992  -0.724 123.570  0.00  0.00    -0.461 OA
ATOM     16  C   LIG A   1      -8.132  -0.235 124.817  0.00  0.00    +0.316 C 
ATOM     17  O   LIG A   1      -8.151   0.982 124.990  0.00  0.00    -0.250 OA
ATOM     18  C   LIG A   1      -9.522  -2.515 123.070  0.00  0.00    +0.052 C 
ATOM     19  C   LIG A   1      -5.799  -2.598 124.272  0.00  0.00    +0.016 C 
ATOM     20  O   LIG A   1      -4.842  -2.865 128.567  0.00  0.00    -0.288 OA
ATOM     21  C   LIG A   1      -6.403   0.329 129.119  0.00  0.00    +0.007 C 
ATOM     22  C   LIG A   1      -6.349   1.559 129.898  0.00  0.00    +0.056 C 
ATOM     23  C   LIG A   1      -7.377   2.425 129.842  0.00  0.00    +0.128 C 
ENDROOT
BRANCH  11  24
ATOM     24  O   LIG A   1      -9.096  -3.422 125.847  0.00  0.00    -0.363 OA
ATOM     25  H   LIG A   1      -8.964  -3.937 126.663  0.00  0.00    +0.213 HD
ENDBRANCH  11  24
BRANCH  23  26
ATOM     26  C   LIG A   1      -7.437   3.653 130.607  0.00  0.00    +0.042 C 
ATOM     27  C   LIG A   1      -7.899   4.817 130.121  0.00  0.00    -0.017 C 
BRANCH  27  28
ATOM     28  C   LIG A   1      -7.950   6.127 130.880  0.00  0.00    +0.049 C 
ATOM     29  C   LIG A   1      -8.547   5.860 132.267  0.00  0.00    +0.015 C 
BRANCH  28  30
ATOM     30  C   LIG A   1      -6.542   6.780 130.960  0.00  0.00    +0.180 C 
ATOM     31  C   LIG A   1      -5.823   6.407 132.259  0.00  0.00    +0.052 C 
BRANCH  30  32
ATOM     32  O   LIG A   1      -5.741   6.307 129.853  0.00  0.00    -0.459 OA
BRANCH  32  33
ATOM     33  C   LIG A   1      -4.513   6.879 129.671  0.00  0.00    +0.341 C 
ATOM     34  O   LIG A   1      -4.321   8.098 129.570  0.00  0.00    -0.247 OA
BRANCH  33  35
ATOM     35  C   LIG A   1      -3.434   5.771 129.511  0.00  0.00    +0.256 C 
BRANCH  35  36
ATOM     36  C   LIG A   1      -2.505   5.708 130.734  0.00  0.00    -0.008 A 
ATOM     37  C   LIG A   1      -2.660   4.671 131.674  0.00  0.00    +0.007 A 
ATOM     38  C   LIG A   1      -1.840   4.587 132.803  0.00  0.00    +0.000 A 
ATOM     39  C   LIG A   1      -0.848   5.539 133.018  0.00  0.00    +0.000 A 
ATOM     40  C   LIG A   1      -0.691   6.585 132.110  0.00  0.00    +0.000 A 
ATOM     41  C   LIG A   1      -1.517   6.675 130.980  0.00  0.00    +0.007 A 
ENDBRANCH  35  36
BRANCH  35  42
ATOM     42  O   LIG A   1      -2.633   5.837 128.325  0.00  0.00    -0.364 OA
ATOM     43  C   LIG A   1      -2.656   4.640 127.552  0.00  0.00    +0.195 C 
ENDBRANCH  35  42
ENDBRANCH  33  35
ENDBRANCH  32  33
ENDBRANCH  30  32
ENDBRANCH  28  30
ENDBRANCH  27  28
ENDBRANCH  23  26
TORSDOF 9
ENDMDL
