MODEL 1
REMARK VINA RESULT:      -9.1      0.000      0.000
REMARK  Name = NuBBE_1729
REMARK  16 active torsions:
REMARK  status: ('A' for Active; 'I' for Inactive)
REMARK    1  A    between atoms: C_1  and  C_2
REMARK    2  A    between atoms: C_5  and  C_6
REMARK    3  A    between atoms: C_11  and  C_12
REMARK    4  A    between atoms: C_11  and  C_13
REMARK    5  A    between atoms: C_14  and  O_18
REMARK    6  A    between atoms: O_18  and  C_19
REMARK    7  A    between atoms: C_19  and  C_21
REMARK    8  A    between atoms: C_26  and  C_27
REMARK    9  A    between atoms: C_30  and  C_32
REMARK   10  A    between atoms: C_32  and  C_33
REMARK   11  A    between atoms: C_35  and  C_39
REMARK   12  A    between atoms: C_39  and  O_40
REMARK   13  A    between atoms: C_39  and  C_44
REMARK   14  A    between atoms: C_39  and  C_45
REMARK   15  A    between atoms: O_40  and  C_41
REMARK   16  A    between atoms: C_41  and  C_43
REMARK                            x       y       z     vdW  Elec       q    Type
REMARK                         _______ _______ _______ _____ _____    ______ ____
ROOT
ATOM      1  C   LIG A   1      -5.878   4.151 127.965  0.00  0.00    +0.012 C 
ATOM      2  C   LIG A   1      -4.737   3.258 127.380  0.00  0.00    -0.023 C 
ATOM      3  C   LIG A   1      -4.876   1.749 127.793  0.00  0.00    +0.002 C 
ATOM      4  C   LIG A   1      -6.185   1.008 127.284  0.00  0.00    -0.025 C 
ATOM      5  C   LIG A   1      -7.441   1.537 128.013  0.00  0.00    +0.012 C 
ATOM      6  C   LIG A   1      -6.232   1.158 125.719  0.00  0.00    +0.004 C 
ATOM      7  C   LIG A   1      -6.090   2.630 125.267  0.00  0.00    +0.005 C 
ATOM      8  C   LIG A   1      -4.845   3.319 125.831  0.00  0.00    +0.008 C 
ATOM      9  C   LIG A   1      -7.405   0.392 125.004  0.00  0.00    +0.005 C 
ATOM     10  C   LIG A   1      -8.714   1.221 124.979  0.00  0.00    +0.015 C 
ATOM     11  C   LIG A   1      -7.035   0.207 123.499  0.00  0.00    +0.015 C 
ATOM     12  C   LIG A   1      -7.579  -1.070 125.562  0.00  0.00    +0.182 C 
ATOM     13  C   LIG A   1      -7.266  -1.321 127.040  0.00  0.00    +0.046 C 
ATOM     14  C   LIG A   1      -6.073  -0.519 127.566  0.00  0.00    +0.011 C 
ATOM     15  C   LIG A   1      -4.499   1.478 129.265  0.00  0.00    +0.005 C 
ATOM     16  C   LIG A   1      -4.093   2.683 130.103  0.00  0.00    +0.005 C 
ATOM     17  C   LIG A   1      -3.162   3.703 129.433  0.00  0.00    +0.001 C 
ATOM     18  C   LIG A   1      -3.312   3.787 127.874  0.00  0.00    -0.023 C 
ATOM     19  C   LIG A   1      -2.115   3.001 127.267  0.00  0.00    +0.012 C 
ATOM     20  C   LIG A   1      -3.077   5.280 127.519  0.00  0.00    +0.008 C 
ATOM     21  C   LIG A   1      -2.684   5.968 128.815  0.00  0.00    +0.007 C 
ATOM     22  C   LIG A   1      -3.332   5.158 129.944  0.00  0.00    +0.024 C 
ENDROOT
BRANCH  22  23
ATOM     23  C   LIG A   1      -2.771   5.486 131.367  0.00  0.00    +0.070 C 
ATOM     24  C   LIG A   1      -2.105   4.249 131.987  0.00  0.00    +0.042 C 
ATOM     25  O   LIG A   1      -1.779   6.537 131.305  0.00  0.00    -0.366 OA
ATOM     26  C   LIG A   1      -2.259   7.745 131.952  0.00  0.00    +0.162 C 
ATOM     27  C   LIG A   1      -3.742   7.504 132.230  0.00  0.00    +0.038 C 
ATOM     28  C   LIG A   1      -3.870   6.002 132.303  0.00  0.00    +0.037 C 
BRANCH  26  29
ATOM     29  C   LIG A   1      -1.388   8.112 133.202  0.00  0.00    +0.134 C 
ATOM     30  C   LIG A   1      -2.205   8.113 134.507  0.00  0.00    +0.058 C 
ATOM     31  C   LIG A   1      -0.218   7.139 133.402  0.00  0.00    +0.058 C 
BRANCH  29  32
ATOM     32  O   LIG A   1      -0.707   9.393 133.002  0.00  0.00    -0.456 OA
BRANCH  32  33
ATOM     33  C   LIG A   1      -1.319  10.583 133.208  0.00  0.00    +0.304 C 
ATOM     34  O   LIG A   1      -2.337  10.977 132.656  0.00  0.00    -0.251 OA
ATOM     35  C   LIG A   1      -0.612  11.346 134.291  0.00  0.00    +0.136 C 
ENDBRANCH  32  33
ENDBRANCH  29  32
ENDBRANCH  26  29
ENDBRANCH  22  23
BRANCH  12  36
ATOM     36  O   LIG A   1      -8.915  -1.530 125.234  0.00  0.00    -0.461 OA
BRANCH  36  37
ATOM     37  C   LIG A   1      -9.036  -2.483 124.284  0.00  0.00    +0.304 C 
ATOM     38  O   LIG A   1      -9.768  -2.403 123.290  0.00  0.00    -0.251 OA
ATOM     39  C   LIG A   1      -8.249  -3.707 124.629  0.00  0.00    +0.136 C 
ENDBRANCH  36  37
ENDBRANCH  12  36
TORSDOF 6
ENDMDL
MODEL 2
REMARK VINA RESULT:      -8.8      7.211      9.620
REMARK  Name = NuBBE_1729
REMARK  16 active torsions:
REMARK  status: ('A' for Active; 'I' for Inactive)
REMARK    1  A    between atoms: C_1  and  C_2
REMARK    2  A    between atoms: C_5  and  C_6
REMARK    3  A    between atoms: C_11  and  C_12
REMARK    4  A    between atoms: C_11  and  C_13
REMARK    5  A    between atoms: C_14  and  O_18
REMARK    6  A    between atoms: O_18  and  C_19
REMARK    7  A    between atoms: C_19  and  C_21
REMARK    8  A    between atoms: C_26  and  C_27
REMARK    9  A    between atoms: C_30  and  C_32
REMARK   10  A    between atoms: C_32  and  C_33
REMARK   11  A    between atoms: C_35  and  C_39
REMARK   12  A    between atoms: C_39  and  O_40
REMARK   13  A    between atoms: C_39  and  C_44
REMARK   14  A    between atoms: C_39  and  C_45
REMARK   15  A    between atoms: O_40  and  C_41
REMARK   16  A    between atoms: C_41  and  C_43
REMARK                            x       y       z     vdW  Elec       q    Type
REMARK                         _______ _______ _______ _____ _____    ______ ____
ROOT
ATOM      1  C   LIG A   1      -5.313  -1.375 130.535  0.00  0.00    +0.012 C 
ATOM      2  C   LIG A   1      -5.498  -2.849 130.048  0.00  0.00    -0.023 C 
ATOM      3  C   LIG A   1      -6.925  -3.113 129.445  0.00  0.00    +0.002 C 
ATOM      4  C   LIG A   1      -7.297  -2.274 128.149  0.00  0.00    -0.025 C 
ATOM      5  C   LIG A   1      -7.492  -0.780 128.492  0.00  0.00    +0.012 C 
ATOM      6  C   LIG A   1      -6.184  -2.552 127.073  0.00  0.00    +0.004 C 
ATOM      7  C   LIG A   1      -4.760  -2.313 127.628  0.00  0.00    +0.005 C 
ATOM      8  C   LIG A   1      -4.470  -3.096 128.910  0.00  0.00    +0.008 C 
ATOM      9  C   LIG A   1      -6.429  -1.895 125.665  0.00  0.00    +0.005 C 
ATOM     10  C   LIG A   1      -5.918  -0.434 125.607  0.00  0.00    +0.015 C 
ATOM     11  C   LIG A   1      -5.565  -2.650 124.606  0.00  0.00    +0.015 C 
ATOM     12  C   LIG A   1      -7.916  -2.078 125.182  0.00  0.00    +0.182 C 
ATOM     13  C   LIG A   1      -9.023  -2.097 126.241  0.00  0.00    +0.046 C 
ATOM     14  C   LIG A   1      -8.627  -2.805 127.539  0.00  0.00    +0.011 C 
ATOM     15  C   LIG A   1      -8.036  -3.198 130.513  0.00  0.00    +0.005 C 
ATOM     16  C   LIG A   1      -7.615  -2.981 131.961  0.00  0.00    +0.005 C 
ATOM     17  C   LIG A   1      -6.315  -3.662 132.407  0.00  0.00    +0.001 C 
ATOM     18  C   LIG A   1      -5.266  -3.866 131.259  0.00  0.00    -0.023 C 
ATOM     19  C   LIG A   1      -5.350  -5.360 130.837  0.00  0.00    +0.012 C 
ATOM     20  C   LIG A   1      -3.879  -3.680 131.932  0.00  0.00    +0.008 C 
ATOM     21  C   LIG A   1      -4.146  -3.512 133.417  0.00  0.00    +0.007 C 
ATOM     22  C   LIG A   1      -5.554  -2.914 133.534  0.00  0.00    +0.024 C 
ENDROOT
BRANCH  22  23
ATOM     23  C   LIG A   1      -6.159  -2.984 134.975  0.00  0.00    +0.070 C 
ATOM     24  C   LIG A   1      -6.054  -1.622 135.675  0.00  0.00    +0.042 C 
ATOM     25  O   LIG A   1      -7.558  -3.352 134.933  0.00  0.00    -0.366 OA
ATOM     26  C   LIG A   1      -7.766  -4.669 135.509  0.00  0.00    +0.162 C 
ATOM     27  C   LIG A   1      -6.372  -5.259 135.709  0.00  0.00    +0.038 C 
ATOM     28  C   LIG A   1      -5.469  -4.056 135.826  0.00  0.00    +0.037 C 
BRANCH  26  29
ATOM     29  C   LIG A   1      -8.660  -4.599 136.793  0.00  0.00    +0.134 C 
ATOM     30  C   LIG A   1      -9.176  -3.175 137.073  0.00  0.00    +0.058 C 
ATOM     31  C   LIG A   1      -9.889  -5.513 136.698  0.00  0.00    +0.058 C 
BRANCH  29  32
ATOM     32  O   LIG A   1      -7.948  -5.142 137.952  0.00  0.00    -0.456 OA
BRANCH  32  33
ATOM     33  C   LIG A   1      -7.950  -4.530 139.160  0.00  0.00    +0.304 C 
ATOM     34  O   LIG A   1      -8.841  -4.585 139.997  0.00  0.00    -0.251 OA
ATOM     35  C   LIG A   1      -6.645  -3.820 139.380  0.00  0.00    +0.136 C 
ENDBRANCH  32  33
ENDBRANCH  29  32
ENDBRANCH  26  29
ENDBRANCH  22  23
BRANCH  12  36
ATOM     36  O   LIG A   1      -8.194  -1.081 124.165  0.00  0.00    -0.461 OA
BRANCH  36  37
ATOM     37  C   LIG A   1      -9.084  -1.399 123.200  0.00  0.00    +0.304 C 
ATOM     38  O   LIG A   1      -9.891  -0.610 122.693  0.00  0.00    -0.251 OA
ATOM     39  C   LIG A   1      -9.049  -2.860 122.880  0.00  0.00    +0.136 C 
ENDBRANCH  36  37
ENDBRANCH  12  36
TORSDOF 6
ENDMDL
MODEL 3
REMARK VINA RESULT:      -8.6      2.125     11.192
REMARK  Name = NuBBE_1729
REMARK  16 active torsions:
REMARK  status: ('A' for Active; 'I' for Inactive)
REMARK    1  A    between atoms: C_1  and  C_2
REMARK    2  A    between atoms: C_5  and  C_6
REMARK    3  A    between atoms: C_11  and  C_12
REMARK    4  A    between atoms: C_11  and  C_13
REMARK    5  A    between atoms: C_14  and  O_18
REMARK    6  A    between atoms: O_18  and  C_19
REMARK    7  A    between atoms: C_19  and  C_21
REMARK    8  A    between atoms: C_26  and  C_27
REMARK    9  A    between atoms: C_30  and  C_32
REMARK   10  A    between atoms: C_32  and  C_33
REMARK   11  A    between atoms: C_35  and  C_39
REMARK   12  A    between atoms: C_39  and  O_40
REMARK   13  A    between atoms: C_39  and  C_44
REMARK   14  A    between atoms: C_39  and  C_45
REMARK   15  A    between atoms: O_40  and  C_41
REMARK   16  A    between atoms: C_41  and  C_43
REMARK                            x       y       z     vdW  Elec       q    Type
REMARK                         _______ _______ _______ _____ _____    ______ ____
ROOT
ATOM      1  C   LIG A   1      -5.843   3.981 129.988  0.00  0.00    +0.012 C 
ATOM      2  C   LIG A   1      -5.804   3.602 131.504  0.00  0.00    -0.023 C 
ATOM      3  C   LIG A   1      -4.354   3.267 132.008  0.00  0.00    +0.002 C 
ATOM      4  C   LIG A   1      -3.300   4.451 131.924  0.00  0.00    -0.025 C 
ATOM      5  C   LIG A   1      -2.938   4.769 130.457  0.00  0.00    +0.012 C 
ATOM      6  C   LIG A   1      -3.893   5.667 132.724  0.00  0.00    +0.004 C 
ATOM      7  C   LIG A   1      -5.326   6.027 132.266  0.00  0.00    +0.005 C 
ATOM      8  C   LIG A   1      -6.291   4.840 132.307  0.00  0.00    +0.008 C 
ATOM      9  C   LIG A   1      -2.945   6.915 132.856  0.00  0.00    +0.005 C 
ATOM     10  C   LIG A   1      -3.046   7.857 131.630  0.00  0.00    +0.015 C 
ATOM     11  C   LIG A   1      -3.432   7.787 134.056  0.00  0.00    +0.015 C 
ATOM     12  C   LIG A   1      -1.473   6.497 133.229  0.00  0.00    +0.182 C 
ATOM     13  C   LIG A   1      -0.943   5.163 132.695  0.00  0.00    +0.046 C 
ATOM     14  C   LIG A   1      -1.991   4.047 132.664  0.00  0.00    +0.011 C 
ATOM     15  C   LIG A   1      -3.839   1.894 131.526  0.00  0.00    +0.005 C 
ATOM     16  C   LIG A   1      -4.765   1.092 130.621  0.00  0.00    +0.005 C 
ATOM     17  C   LIG A   1      -6.249   1.062 131.011  0.00  0.00    +0.001 C 
ATOM     18  C   LIG A   1      -6.740   2.336 131.782  0.00  0.00    -0.023 C 
ATOM     19  C   LIG A   1      -6.822   1.945 133.285  0.00  0.00    +0.012 C 
ATOM     20  C   LIG A   1      -8.201   2.564 131.311  0.00  0.00    +0.008 C 
ATOM     21  C   LIG A   1      -8.548   1.387 130.416  0.00  0.00    +0.007 C 
ATOM     22  C   LIG A   1      -7.223   0.902 129.814  0.00  0.00    +0.024 C 
ENDROOT
BRANCH  22  23
ATOM     23  C   LIG A   1      -7.306  -0.508 129.142  0.00  0.00    +0.070 C 
ATOM     24  C   LIG A   1      -7.739  -1.571 130.163  0.00  0.00    +0.042 C 
ATOM     25  O   LIG A   1      -8.270  -0.515 128.063  0.00  0.00    -0.366 OA
ATOM     26  C   LIG A   1      -7.613  -0.685 126.780  0.00  0.00    +0.162 C 
ATOM     27  C   LIG A   1      -6.118  -0.541 127.058  0.00  0.00    +0.038 C 
ATOM     28  C   LIG A   1      -5.969  -0.915 128.512  0.00  0.00    +0.037 C 
BRANCH  26  29
ATOM     29  C   LIG A   1      -8.045  -2.022 126.087  0.00  0.00    +0.134 C 
ATOM     30  C   LIG A   1      -6.869  -2.728 125.388  0.00  0.00    +0.058 C 
ATOM     31  C   LIG A   1      -8.647  -3.024 127.081  0.00  0.00    +0.058 C 
BRANCH  29  32
ATOM     32  O   LIG A   1      -9.153  -1.791 125.157  0.00  0.00    -0.456 OA
BRANCH  32  33
ATOM     33  C   LIG A   1      -8.998  -1.841 123.813  0.00  0.00    +0.304 C 
ATOM     34  O   LIG A   1      -8.484  -0.980 123.113  0.00  0.00    -0.251 OA
ATOM     35  C   LIG A   1      -9.479  -3.163 123.287  0.00  0.00    +0.136 C 
ENDBRANCH  32  33
ENDBRANCH  29  32
ENDBRANCH  26  29
ENDBRANCH  22  23
BRANCH  12  36
ATOM     36  O   LIG A   1      -0.583   7.585 132.870  0.00  0.00    -0.461 OA
BRANCH  36  37
ATOM     37  C   LIG A   1       0.249   8.058 133.824  0.00  0.00    +0.304 C 
ATOM     38  O   LIG A   1       0.820   7.364 134.674  0.00  0.00    -0.251 OA
ATOM     39  C   LIG A   1       0.321   9.552 133.799  0.00  0.00    +0.136 C 
ENDBRANCH  36  37
ENDBRANCH  12  36
TORSDOF 6
ENDMDL
MODEL 4
REMARK VINA RESULT:      -8.5      4.040      5.478
REMARK  Name = NuBBE_1729
REMARK  16 active torsions:
REMARK  status: ('A' for Active; 'I' for Inactive)
REMARK    1  A    between atoms: C_1  and  C_2
REMARK    2  A    between atoms: C_5  and  C_6
REMARK    3  A    between atoms: C_11  and  C_12
REMARK    4  A    between atoms: C_11  and  C_13
REMARK    5  A    between atoms: C_14  and  O_18
REMARK    6  A    between atoms: O_18  and  C_19
REMARK    7  A    between atoms: C_19  and  C_21
REMARK    8  A    between atoms: C_26  and  C_27
REMARK    9  A    between atoms: C_30  and  C_32
REMARK   10  A    between atoms: C_32  and  C_33
REMARK   11  A    between atoms: C_35  and  C_39
REMARK   12  A    between atoms: C_39  and  O_40
REMARK   13  A    between atoms: C_39  and  C_44
REMARK   14  A    between atoms: C_39  and  C_45
REMARK   15  A    between atoms: O_40  and  C_41
REMARK   16  A    between atoms: C_41  and  C_43
REMARK                            x       y       z     vdW  Elec       q    Type
REMARK                         _______ _______ _______ _____ _____    ______ ____
ROOT
ATOM      1  C   LIG A   1      -5.713   5.907 132.652  0.00  0.00    +0.012 C 
ATOM      2  C   LIG A   1      -4.909   5.077 131.600  0.00  0.00    -0.023 C 
ATOM      3  C   LIG A   1      -4.348   3.732 132.188  0.00  0.00    +0.002 C 
ATOM      4  C   LIG A   1      -5.434   2.689 132.691  0.00  0.00    -0.025 C 
ATOM      5  C   LIG A   1      -6.140   3.193 133.969  0.00  0.00    +0.012 C 
ATOM      6  C   LIG A   1      -6.402   2.400 131.486  0.00  0.00    +0.004 C 
ATOM      7  C   LIG A   1      -6.972   3.699 130.869  0.00  0.00    +0.005 C 
ATOM      8  C   LIG A   1      -5.890   4.699 130.455  0.00  0.00    +0.008 C 
ATOM      9  C   LIG A   1      -7.493   1.297 131.747  0.00  0.00    +0.005 C 
ATOM     10  C   LIG A   1      -8.754   1.876 132.436  0.00  0.00    +0.015 C 
ATOM     11  C   LIG A   1      -8.010   0.772 130.371  0.00  0.00    +0.015 C 
ATOM     12  C   LIG A   1      -6.889   0.033 132.464  0.00  0.00    +0.182 C 
ATOM     13  C   LIG A   1      -5.736   0.242 133.450  0.00  0.00    +0.046 C 
ATOM     14  C   LIG A   1      -4.748   1.332 133.026  0.00  0.00    +0.011 C 
ATOM     15  C   LIG A   1      -3.143   3.932 133.133  0.00  0.00    +0.005 C 
ATOM     16  C   LIG A   1      -2.700   5.367 133.387  0.00  0.00    +0.005 C 
ATOM     17  C   LIG A   1      -2.656   6.298 132.169  0.00  0.00    +0.001 C 
ATOM     18  C   LIG A   1      -3.681   5.933 131.040  0.00  0.00    -0.023 C 
ATOM     19  C   LIG A   1      -2.878   5.208 129.924  0.00  0.00    +0.012 C 
ATOM     20  C   LIG A   1      -4.132   7.293 130.439  0.00  0.00    +0.008 C 
ATOM     21  C   LIG A   1      -3.290   8.358 131.119  0.00  0.00    +0.007 C 
ATOM     22  C   LIG A   1      -2.915   7.793 132.495  0.00  0.00    +0.024 C 
ENDROOT
BRANCH  22  23
ATOM     23  C   LIG A   1      -1.768   8.577 133.215  0.00  0.00    +0.070 C 
ATOM     24  C   LIG A   1      -0.412   7.899 132.974  0.00  0.00    +0.042 C 
ATOM     25  O   LIG A   1      -1.677   9.934 132.722  0.00  0.00    -0.366 OA
ATOM     26  C   LIG A   1      -2.059  10.887 133.749  0.00  0.00    +0.162 C 
ATOM     27  C   LIG A   1      -2.653  10.056 134.885  0.00  0.00    +0.038 C 
ATOM     28  C   LIG A   1      -2.023   8.695 134.722  0.00  0.00    +0.037 C 
BRANCH  26  29
ATOM     29  C   LIG A   1      -0.861  11.814 134.146  0.00  0.00    +0.134 C 
ATOM     30  C   LIG A   1      -1.277  13.291 134.273  0.00  0.00    +0.058 C 
ATOM     31  C   LIG A   1      -0.227  11.407 135.483  0.00  0.00    +0.058 C 
BRANCH  29  32
ATOM     32  O   LIG A   1       0.252  11.657 133.206  0.00  0.00    -0.456 OA
BRANCH  32  33
ATOM     33  C   LIG A   1       0.866  12.713 132.622  0.00  0.00    +0.304 C 
ATOM     34  O   LIG A   1       1.745  13.403 133.119  0.00  0.00    -0.251 OA
ATOM     35  C   LIG A   1       0.374  12.881 131.213  0.00  0.00    +0.136 C 
ENDBRANCH  32  33
ENDBRANCH  29  32
ENDBRANCH  26  29
ENDBRANCH  22  23
BRANCH  12  36
ATOM     36  O   LIG A   1      -7.974  -0.701 133.091  0.00  0.00    -0.461 OA
BRANCH  36  37
ATOM     37  C   LIG A   1      -7.824  -2.034 133.246  0.00  0.00    +0.304 C 
ATOM     38  O   LIG A   1      -8.002  -2.649 134.304  0.00  0.00    -0.251 OA
ATOM     39  C   LIG A   1      -7.310  -2.678 131.997  0.00  0.00    +0.136 C 
ENDBRANCH  36  37
ENDBRANCH  12  36
TORSDOF 6
ENDMDL
MODEL 5
REMARK VINA RESULT:      -8.4      6.835     11.822
REMARK  Name = NuBBE_1729
REMARK  16 active torsions:
REMARK  status: ('A' for Active; 'I' for Inactive)
REMARK    1  A    between atoms: C_1  and  C_2
REMARK    2  A    between atoms: C_5  and  C_6
REMARK    3  A    between atoms: C_11  and  C_12
REMARK    4  A    between atoms: C_11  and  C_13
REMARK    5  A    between atoms: C_14  and  O_18
REMARK    6  A    between atoms: O_18  and  C_19
REMARK    7  A    between atoms: C_19  and  C_21
REMARK    8  A    between atoms: C_26  and  C_27
REMARK    9  A    between atoms: C_30  and  C_32
REMARK   10  A    between atoms: C_32  and  C_33
REMARK   11  A    between atoms: C_35  and  C_39
REMARK   12  A    between atoms: C_39  and  O_40
REMARK   13  A    between atoms: C_39  and  C_44
REMARK   14  A    between atoms: C_39  and  C_45
REMARK   15  A    between atoms: O_40  and  C_41
REMARK   16  A    between atoms: C_41  and  C_43
REMARK                            x       y       z     vdW  Elec       q    Type
REMARK                         _______ _______ _______ _____ _____    ______ ____
ROOT
ATOM      1  C   LIG A   1      -5.748  -4.422 130.928  0.00  0.00    +0.012 C 
ATOM      2  C   LIG A   1      -5.038  -3.107 131.387  0.00  0.00    -0.023 C 
ATOM      3  C   LIG A   1      -5.819  -2.364 132.530  0.00  0.00    +0.002 C 
ATOM      4  C   LIG A   1      -5.978  -3.162 133.894  0.00  0.00    -0.025 C 
ATOM      5  C   LIG A   1      -6.944  -4.356 133.729  0.00  0.00    +0.012 C 
ATOM      6  C   LIG A   1      -4.536  -3.557 134.380  0.00  0.00    +0.004 C 
ATOM      7  C   LIG A   1      -3.727  -4.285 133.281  0.00  0.00    +0.005 C 
ATOM      8  C   LIG A   1      -3.652  -3.504 131.966  0.00  0.00    +0.008 C 
ATOM      9  C   LIG A   1      -4.467  -4.265 135.783  0.00  0.00    +0.005 C 
ATOM     10  C   LIG A   1      -4.695  -5.794 135.677  0.00  0.00    +0.015 C 
ATOM     11  C   LIG A   1      -3.016  -4.126 136.340  0.00  0.00    +0.015 C 
ATOM     12  C   LIG A   1      -5.381  -3.549 136.846  0.00  0.00    +0.182 C 
ATOM     13  C   LIG A   1      -6.678  -2.894 136.362  0.00  0.00    +0.046 C 
ATOM     14  C   LIG A   1      -6.559  -2.223 134.991  0.00  0.00    +0.011 C 
ATOM     15  C   LIG A   1      -7.094  -1.647 132.037  0.00  0.00    +0.005 C 
ATOM     16  C   LIG A   1      -7.431  -1.787 130.558  0.00  0.00    +0.005 C 
ATOM     17  C   LIG A   1      -6.262  -1.660 129.572  0.00  0.00    +0.001 C 
ATOM     18  C   LIG A   1      -4.876  -2.105 130.153  0.00  0.00    -0.023 C 
ATOM     19  C   LIG A   1      -4.101  -0.804 130.509  0.00  0.00    +0.012 C 
ATOM     20  C   LIG A   1      -4.118  -2.750 128.961  0.00  0.00    +0.008 C 
ATOM     21  C   LIG A   1      -4.999  -2.550 127.740  0.00  0.00    +0.007 C 
ATOM     22  C   LIG A   1      -6.440  -2.468 128.259  0.00  0.00    +0.024 C 
ENDROOT
BRANCH  22  23
ATOM     23  C   LIG A   1      -7.465  -1.919 127.213  0.00  0.00    +0.070 C 
ATOM     24  C   LIG A   1      -7.751  -0.431 127.464  0.00  0.00    +0.042 C 
ATOM     25  O   LIG A   1      -6.953  -2.049 125.866  0.00  0.00    -0.366 OA
ATOM     26  C   LIG A   1      -7.724  -3.020 125.109  0.00  0.00    +0.162 C 
ATOM     27  C   LIG A   1      -8.630  -3.712 126.125  0.00  0.00    +0.038 C 
ATOM     28  C   LIG A   1      -8.779  -2.708 127.241  0.00  0.00    +0.037 C 
BRANCH  26  29
ATOM     29  C   LIG A   1      -8.456  -2.351 123.897  0.00  0.00    +0.134 C 
ATOM     30  C   LIG A   1      -7.493  -2.013 122.743  0.00  0.00    +0.058 C 
ATOM     31  C   LIG A   1      -9.558  -3.247 123.316  0.00  0.00    +0.058 C 
BRANCH  29  32
ATOM     32  O   LIG A   1      -9.201  -1.167 124.328  0.00  0.00    -0.456 OA
BRANCH  32  33
ATOM     33  C   LIG A   1      -9.373  -0.084 123.533  0.00  0.00    +0.304 C 
ATOM     34  O   LIG A   1     -10.186   0.025 122.626  0.00  0.00    -0.251 OA
ATOM     35  C   LIG A   1      -8.465   1.028 123.974  0.00  0.00    +0.136 C 
ENDBRANCH  32  33
ENDBRANCH  29  32
ENDBRANCH  26  29
ENDBRANCH  22  23
BRANCH  12  36
ATOM     36  O   LIG A   1      -5.648  -4.484 137.924  0.00  0.00    -0.461 OA
BRANCH  36  37
ATOM     37  C   LIG A   1      -5.722  -3.990 139.180  0.00  0.00    +0.304 C 
ATOM     38  O   LIG A   1      -6.588  -4.291 140.010  0.00  0.00    -0.251 OA
ATOM     39  C   LIG A   1      -4.678  -2.947 139.422  0.00  0.00    +0.136 C 
ENDBRANCH  36  37
ENDBRANCH  12  36
TORSDOF 6
ENDMDL
MODEL 6
REMARK VINA RESULT:      -8.4      5.957      9.480
REMARK  Name = NuBBE_1729
REMARK  16 active torsions:
REMARK  status: ('A' for Active; 'I' for Inactive)
REMARK    1  A    between atoms: C_1  and  C_2
REMARK    2  A    between atoms: C_5  and  C_6
REMARK    3  A    between atoms: C_11  and  C_12
REMARK    4  A    between atoms: C_11  and  C_13
REMARK    5  A    between atoms: C_14  and  O_18
REMARK    6  A    between atoms: O_18  and  C_19
REMARK    7  A    between atoms: C_19  and  C_21
REMARK    8  A    between atoms: C_26  and  C_27
REMARK    9  A    between atoms: C_30  and  C_32
REMARK   10  A    between atoms: C_32  and  C_33
REMARK   11  A    between atoms: C_35  and  C_39
REMARK   12  A    between atoms: C_39  and  O_40
REMARK   13  A    between atoms: C_39  and  C_44
REMARK   14  A    between atoms: C_39  and  C_45
REMARK   15  A    between atoms: O_40  and  C_41
REMARK   16  A    between atoms: C_41  and  C_43
REMARK                            x       y       z     vdW  Elec       q    Type
REMARK                         _______ _______ _______ _____ _____    ______ ____
ROOT
ATOM      1  C   LIG A   1      -6.894   2.853 134.234  0.00  0.00    +0.012 C 
ATOM      2  C   LIG A   1      -6.382   2.959 132.761  0.00  0.00    -0.023 C 
ATOM      3  C   LIG A   1      -7.457   2.504 131.710  0.00  0.00    +0.002 C 
ATOM      4  C   LIG A   1      -8.794   3.359 131.670  0.00  0.00    -0.025 C 
ATOM      5  C   LIG A   1      -9.640   3.128 132.942  0.00  0.00    +0.012 C 
ATOM      6  C   LIG A   1      -8.386   4.858 131.426  0.00  0.00    +0.004 C 
ATOM      7  C   LIG A   1      -7.321   5.347 132.435  0.00  0.00    +0.005 C 
ATOM      8  C   LIG A   1      -6.077   4.457 132.481  0.00  0.00    +0.008 C 
ATOM      9  C   LIG A   1      -9.584   5.861 131.242  0.00  0.00    +0.005 C 
ATOM     10  C   LIG A   1     -10.125   6.379 132.599  0.00  0.00    +0.015 C 
ATOM     11  C   LIG A   1      -9.056   7.141 130.521  0.00  0.00    +0.015 C 
ATOM     12  C   LIG A   1     -10.692   5.284 130.285  0.00  0.00    +0.182 C 
ATOM     13  C   LIG A   1     -10.931   3.771 130.284  0.00  0.00    +0.046 C 
ATOM     14  C   LIG A   1      -9.653   2.942 130.441  0.00  0.00    +0.011 C 
ATOM     15  C   LIG A   1      -7.656   0.974 131.659  0.00  0.00    +0.005 C 
ATOM     16  C   LIG A   1      -6.833   0.142 132.635  0.00  0.00    +0.005 C 
ATOM     17  C   LIG A   1      -5.362   0.541 132.806  0.00  0.00    +0.001 C 
ATOM     18  C   LIG A   1      -5.073   2.063 132.564  0.00  0.00    -0.023 C 
ATOM     19  C   LIG A   1      -4.450   2.180 131.144  0.00  0.00    +0.012 C 
ATOM     20  C   LIG A   1      -3.946   2.432 133.566  0.00  0.00    +0.008 C 
ATOM     21  C   LIG A   1      -3.536   1.134 134.242  0.00  0.00    +0.007 C 
ATOM     22  C   LIG A   1      -4.771   0.225 134.206  0.00  0.00    +0.024 C 
ENDROOT
BRANCH  22  23
ATOM     23  C   LIG A   1      -4.468  -1.275 134.533  0.00  0.00    +0.070 C 
ATOM     24  C   LIG A   1      -4.934  -1.625 135.954  0.00  0.00    +0.042 C 
ATOM     25  O   LIG A   1      -5.154  -2.156 133.614  0.00  0.00    -0.366 OA
ATOM     26  C   LIG A   1      -4.210  -2.851 132.758  0.00  0.00    +0.162 C 
ATOM     27  C   LIG A   1      -2.859  -2.182 133.002  0.00  0.00    +0.038 C 
ATOM     28  C   LIG A   1      -2.976  -1.595 134.387  0.00  0.00    +0.037 C 
BRANCH  26  29
ATOM     29  C   LIG A   1      -4.250  -4.399 132.997  0.00  0.00    +0.134 C 
ATOM     30  C   LIG A   1      -2.874  -4.969 133.389  0.00  0.00    +0.058 C 
ATOM     31  C   LIG A   1      -5.235  -4.791 134.106  0.00  0.00    +0.058 C 
BRANCH  29  32
ATOM     32  O   LIG A   1      -4.796  -5.092 131.827  0.00  0.00    -0.456 OA
BRANCH  32  33
ATOM     33  C   LIG A   1      -4.931  -4.490 130.622  0.00  0.00    +0.304 C 
ATOM     34  O   LIG A   1      -4.029  -4.241 129.834  0.00  0.00    -0.251 OA
ATOM     35  C   LIG A   1      -6.382  -4.234 130.333  0.00  0.00    +0.136 C 
ENDBRANCH  32  33
ENDBRANCH  29  32
ENDBRANCH  26  29
ENDBRANCH  22  23
BRANCH  12  36
ATOM     36  O   LIG A   1     -11.930   5.999 130.532  0.00  0.00    -0.461 OA
BRANCH  36  37
ATOM     37  C   LIG A   1     -12.443   6.735 129.522  0.00  0.00    +0.304 C 
ATOM     38  O   LIG A   1     -12.631   6.325 128.370  0.00  0.00    -0.251 OA
ATOM     39  C   LIG A   1     -12.667   8.155 129.935  0.00  0.00    +0.136 C 
ENDBRANCH  36  37
ENDBRANCH  12  36
TORSDOF 6
ENDMDL
MODEL 7
REMARK VINA RESULT:      -8.4      3.563     10.221
REMARK  Name = NuBBE_1729
REMARK  16 active torsions:
REMARK  status: ('A' for Active; 'I' for Inactive)
REMARK    1  A    between atoms: C_1  and  C_2
REMARK    2  A    between atoms: C_5  and  C_6
REMARK    3  A    between atoms: C_11  and  C_12
REMARK    4  A    between atoms: C_11  and  C_13
REMARK    5  A    between atoms: C_14  and  O_18
REMARK    6  A    between atoms: O_18  and  C_19
REMARK    7  A    between atoms: C_19  and  C_21
REMARK    8  A    between atoms: C_26  and  C_27
REMARK    9  A    between atoms: C_30  and  C_32
REMARK   10  A    between atoms: C_32  and  C_33
REMARK   11  A    between atoms: C_35  and  C_39
REMARK   12  A    between atoms: C_39  and  O_40
REMARK   13  A    between atoms: C_39  and  C_44
REMARK   14  A    between atoms: C_39  and  C_45
REMARK   15  A    between atoms: O_40  and  C_41
REMARK   16  A    between atoms: C_41  and  C_43
REMARK                            x       y       z     vdW  Elec       q    Type
REMARK                         _______ _______ _______ _____ _____    ______ ____
ROOT
ATOM      1  C   LIG A   1      -2.852   4.634 132.112  0.00  0.00    +0.012 C 
ATOM      2  C   LIG A   1      -3.712   5.926 131.931  0.00  0.00    -0.023 C 
ATOM      3  C   LIG A   1      -5.177   5.762 132.474  0.00  0.00    +0.002 C 
ATOM      4  C   LIG A   1      -5.312   5.475 134.030  0.00  0.00    -0.025 C 
ATOM      5  C   LIG A   1      -4.802   4.060 134.381  0.00  0.00    +0.012 C 
ATOM      6  C   LIG A   1      -4.571   6.637 134.788  0.00  0.00    +0.004 C 
ATOM      7  C   LIG A   1      -3.125   6.841 134.278  0.00  0.00    +0.005 C 
ATOM      8  C   LIG A   1      -3.041   7.053 132.765  0.00  0.00    +0.008 C 
ATOM      9  C   LIG A   1      -4.684   6.599 136.356  0.00  0.00    +0.005 C 
ATOM     10  C   LIG A   1      -3.607   5.688 136.997  0.00  0.00    +0.015 C 
ATOM     11  C   LIG A   1      -4.369   8.023 136.914  0.00  0.00    +0.015 C 
ATOM     12  C   LIG A   1      -6.154   6.293 136.832  0.00  0.00    +0.182 C 
ATOM     13  C   LIG A   1      -7.019   5.376 135.961  0.00  0.00    +0.046 C 
ATOM     14  C   LIG A   1      -6.806   5.568 134.458  0.00  0.00    +0.011 C 
ATOM     15  C   LIG A   1      -6.073   4.891 131.567  0.00  0.00    +0.005 C 
ATOM     16  C   LIG A   1      -5.422   4.297 130.325  0.00  0.00    +0.005 C 
ATOM     17  C   LIG A   1      -4.495   5.223 129.526  0.00  0.00    +0.001 C 
ATOM     18  C   LIG A   1      -3.789   6.328 130.386  0.00  0.00    -0.023 C 
ATOM     19  C   LIG A   1      -4.559   7.654 130.128  0.00  0.00    +0.012 C 
ATOM     20  C   LIG A   1      -2.385   6.509 129.749  0.00  0.00    +0.008 C 
ATOM     21  C   LIG A   1      -2.365   5.634 128.508  0.00  0.00    +0.007 C 
ATOM     22  C   LIG A   1      -3.352   4.491 128.774  0.00  0.00    +0.024 C 
ENDROOT
BRANCH  22  23
ATOM     23  C   LIG A   1      -3.743   3.676 127.497  0.00  0.00    +0.070 C 
ATOM     24  C   LIG A   1      -2.490   3.128 126.798  0.00  0.00    +0.042 C 
ATOM     25  O   LIG A   1      -4.587   2.550 127.836  0.00  0.00    -0.366 OA
ATOM     26  C   LIG A   1      -5.929   2.730 127.312  0.00  0.00    +0.162 C 
ATOM     27  C   LIG A   1      -5.989   4.172 126.813  0.00  0.00    +0.038 C 
ATOM     28  C   LIG A   1      -4.553   4.524 126.510  0.00  0.00    +0.037 C 
BRANCH  26  29
ATOM     29  C   LIG A   1      -6.281   1.633 126.251  0.00  0.00    +0.134 C 
ATOM     30  C   LIG A   1      -6.450   2.216 124.836  0.00  0.00    +0.058 C 
ATOM     31  C   LIG A   1      -5.208   0.540 126.164  0.00  0.00    +0.058 C 
BRANCH  29  32
ATOM     32  O   LIG A   1      -7.470   0.880 126.657  0.00  0.00    -0.456 OA
BRANCH  32  33
ATOM     33  C   LIG A   1      -8.154   1.156 127.793  0.00  0.00    +0.304 C 
ATOM     34  O   LIG A   1      -9.036   1.993 127.919  0.00  0.00    -0.251 OA
ATOM     35  C   LIG A   1      -7.734   0.218 128.889  0.00  0.00    +0.136 C 
ENDBRANCH  32  33
ENDBRANCH  29  32
ENDBRANCH  26  29
ENDBRANCH  22  23
BRANCH  12  36
ATOM     36  O   LIG A   1      -6.101   5.805 138.198  0.00  0.00    -0.461 OA
BRANCH  36  37
ATOM     37  C   LIG A   1      -7.067   6.215 139.049  0.00  0.00    +0.304 C 
ATOM     38  O   LIG A   1      -7.532   5.537 139.973  0.00  0.00    -0.251 OA
ATOM     39  C   LIG A   1      -7.590   7.567 138.677  0.00  0.00    +0.136 C 
ENDBRANCH  36  37
ENDBRANCH  12  36
TORSDOF 6
ENDMDL
MODEL 8
REMARK VINA RESULT:      -8.3      2.237     10.852
REMARK  Name = NuBBE_1729
REMARK  16 active torsions:
REMARK  status: ('A' for Active; 'I' for Inactive)
REMARK    1  A    between atoms: C_1  and  C_2
REMARK    2  A    between atoms: C_5  and  C_6
REMARK    3  A    between atoms: C_11  and  C_12
REMARK    4  A    between atoms: C_11  and  C_13
REMARK    5  A    between atoms: C_14  and  O_18
REMARK    6  A    between atoms: O_18  and  C_19
REMARK    7  A    between atoms: C_19  and  C_21
REMARK    8  A    between atoms: C_26  and  C_27
REMARK    9  A    between atoms: C_30  and  C_32
REMARK   10  A    between atoms: C_32  and  C_33
REMARK   11  A    between atoms: C_35  and  C_39
REMARK   12  A    between atoms: C_39  and  O_40
REMARK   13  A    between atoms: C_39  and  C_44
REMARK   14  A    between atoms: C_39  and  C_45
REMARK   15  A    between atoms: O_40  and  C_41
REMARK   16  A    between atoms: C_41  and  C_43
REMARK                            x       y       z     vdW  Elec       q    Type
REMARK                         _______ _______ _______ _____ _____    ______ ____
ROOT
ATOM      1  C   LIG A   1      -7.863   0.999 130.341  0.00  0.00    +0.012 C 
ATOM      2  C   LIG A   1      -6.475   0.408 130.754  0.00  0.00    -0.023 C 
ATOM      3  C   LIG A   1      -5.269   1.242 130.189  0.00  0.00    +0.002 C 
ATOM      4  C   LIG A   1      -5.167   2.744 130.694  0.00  0.00    -0.025 C 
ATOM      5  C   LIG A   1      -6.306   3.607 130.106  0.00  0.00    +0.012 C 
ATOM      6  C   LIG A   1      -5.124   2.710 132.265  0.00  0.00    +0.004 C 
ATOM      7  C   LIG A   1      -6.291   1.891 132.865  0.00  0.00    +0.005 C 
ATOM      8  C   LIG A   1      -6.385   0.471 132.304  0.00  0.00    +0.008 C 
ATOM      9  C   LIG A   1      -4.910   4.103 132.964  0.00  0.00    +0.005 C 
ATOM     10  C   LIG A   1      -6.243   4.869 133.159  0.00  0.00    +0.015 C 
ATOM     11  C   LIG A   1      -4.388   3.858 134.414  0.00  0.00    +0.015 C 
ATOM     12  C   LIG A   1      -3.780   4.945 132.261  0.00  0.00    +0.182 C 
ATOM     13  C   LIG A   1      -3.599   4.792 130.748  0.00  0.00    +0.046 C 
ATOM     14  C   LIG A   1      -3.813   3.364 130.240  0.00  0.00    +0.011 C 
ATOM     15  C   LIG A   1      -5.041   1.042 128.675  0.00  0.00    +0.005 C 
ATOM     16  C   LIG A   1      -6.013   0.120 127.950  0.00  0.00    +0.005 C 
ATOM     17  C   LIG A   1      -6.388  -1.183 128.668  0.00  0.00    +0.001 C 
ATOM     18  C   LIG A   1      -6.336  -1.096 130.233  0.00  0.00    -0.023 C 
ATOM     19  C   LIG A   1      -5.015  -1.785 130.676  0.00  0.00    +0.012 C 
ATOM     20  C   LIG A   1      -7.491  -2.006 130.734  0.00  0.00    +0.008 C 
ATOM     21  C   LIG A   1      -8.072  -2.672 129.499  0.00  0.00    +0.007 C 
ATOM     22  C   LIG A   1      -7.806  -1.716 128.330  0.00  0.00    +0.024 C 
ENDROOT
BRANCH  22  23
ATOM     23  C   LIG A   1      -8.010  -2.360 126.919  0.00  0.00    +0.070 C 
ATOM     24  C   LIG A   1      -8.709  -3.722 127.041  0.00  0.00    +0.042 C 
ATOM     25  O   LIG A   1      -8.830  -1.518 126.077  0.00  0.00    -0.366 OA
ATOM     26  C   LIG A   1      -8.057  -0.975 124.974  0.00  0.00    +0.162 C 
ATOM     27  C   LIG A   1      -6.600  -1.316 125.283  0.00  0.00    +0.038 C 
ATOM     28  C   LIG A   1      -6.680  -2.529 126.176  0.00  0.00    +0.037 C 
BRANCH  26  29
ATOM     29  C   LIG A   1      -8.592  -1.486 123.593  0.00  0.00    +0.134 C 
ATOM     30  C   LIG A   1      -7.457  -1.765 122.590  0.00  0.00    +0.058 C 
ATOM     31  C   LIG A   1      -9.405  -2.781 123.726  0.00  0.00    +0.058 C 
BRANCH  29  32
ATOM     32  O   LIG A   1      -9.571  -0.550 123.037  0.00  0.00    -0.456 OA
BRANCH  32  33
ATOM     33  C   LIG A   1      -9.807   0.667 123.581  0.00  0.00    +0.304 C 
ATOM     34  O   LIG A   1     -10.571   0.910 124.504  0.00  0.00    -0.251 OA
ATOM     35  C   LIG A   1      -8.922   1.698 122.941  0.00  0.00    +0.136 C 
ENDBRANCH  32  33
ENDBRANCH  29  32
ENDBRANCH  26  29
ENDBRANCH  22  23
BRANCH  12  36
ATOM     36  O   LIG A   1      -3.959   6.340 132.619  0.00  0.00    -0.461 OA
BRANCH  36  37
ATOM     37  C   LIG A   1      -2.884   7.010 133.091  0.00  0.00    +0.304 C 
ATOM     38  O   LIG A   1      -2.203   6.662 134.063  0.00  0.00    -0.251 OA
ATOM     39  C   LIG A   1      -2.671   8.295 132.355  0.00  0.00    +0.136 C 
ENDBRANCH  36  37
ENDBRANCH  12  36
TORSDOF 6
ENDMDL
MODEL 9
REMARK VINA RESULT:      -8.2      6.343      9.129
REMARK  Name = NuBBE_1729
REMARK  16 active torsions:
REMARK  status: ('A' for Active; 'I' for Inactive)
REMARK    1  A    between atoms: C_1  and  C_2
REMARK    2  A    between atoms: C_5  and  C_6
REMARK    3  A    between atoms: C_11  and  C_12
REMARK    4  A    between atoms: C_11  and  C_13
REMARK    5  A    between atoms: C_14  and  O_18
REMARK    6  A    between atoms: O_18  and  C_19
REMARK    7  A    between atoms: C_19  and  C_21
REMARK    8  A    between atoms: C_26  and  C_27
REMARK    9  A    between atoms: C_30  and  C_32
REMARK   10  A    between atoms: C_32  and  C_33
REMARK   11  A    between atoms: C_35  and  C_39
REMARK   12  A    between atoms: C_39  and  O_40
REMARK   13  A    between atoms: C_39  and  C_44
REMARK   14  A    between atoms: C_39  and  C_45
REMARK   15  A    between atoms: O_40  and  C_41
REMARK   16  A    between atoms: C_41  and  C_43
REMARK                            x       y       z     vdW  Elec       q    Type
REMARK                         _______ _______ _______ _____ _____    ______ ____
ROOT
ATOM      1  C   LIG A   1      -6.418   2.273 133.661  0.00  0.00    +0.012 C 
ATOM      2  C   LIG A   1      -6.121   2.543 132.150  0.00  0.00    -0.023 C 
ATOM      3  C   LIG A   1      -7.348   2.222 131.223  0.00  0.00    +0.002 C 
ATOM      4  C   LIG A   1      -8.654   3.090 131.476  0.00  0.00    -0.025 C 
ATOM      5  C   LIG A   1      -9.313   2.721 132.824  0.00  0.00    +0.012 C 
ATOM      6  C   LIG A   1      -8.247   4.603 131.345  0.00  0.00    +0.004 C 
ATOM      7  C   LIG A   1      -7.034   4.962 132.236  0.00  0.00    +0.005 C 
ATOM      8  C   LIG A   1      -5.820   4.060 131.999  0.00  0.00    +0.008 C 
ATOM      9  C   LIG A   1      -9.431   5.632 131.453  0.00  0.00    +0.005 C 
ATOM     10  C   LIG A   1      -9.757   5.995 132.924  0.00  0.00    +0.015 C 
ATOM     11  C   LIG A   1      -8.979   6.981 130.812  0.00  0.00    +0.015 C 
ATOM     12  C   LIG A   1     -10.680   5.179 130.609  0.00  0.00    +0.182 C 
ATOM     13  C   LIG A   1     -10.956   3.678 130.473  0.00  0.00    +0.046 C 
ATOM     14  C   LIG A   1      -9.692   2.825 130.346  0.00  0.00    +0.011 C 
ATOM     15  C   LIG A   1      -7.592   0.710 131.030  0.00  0.00    +0.005 C 
ATOM     16  C   LIG A   1      -6.660  -0.237 131.775  0.00  0.00    +0.005 C 
ATOM     17  C   LIG A   1      -5.169   0.126 131.773  0.00  0.00    +0.001 C 
ATOM     18  C   LIG A   1      -4.878   1.663 131.664  0.00  0.00    -0.023 C 
ATOM     19  C   LIG A   1      -4.464   1.937 130.191  0.00  0.00    +0.012 C 
ATOM     20  C   LIG A   1      -3.609   1.903 132.526  0.00  0.00    +0.008 C 
ATOM     21  C   LIG A   1      -3.141   0.533 132.984  0.00  0.00    +0.007 C 
ATOM     22  C   LIG A   1      -4.391  -0.355 133.027  0.00  0.00    +0.024 C 
ENDROOT
BRANCH  22  23
ATOM     23  C   LIG A   1      -4.084  -1.885 133.135  0.00  0.00    +0.070 C 
ATOM     24  C   LIG A   1      -4.220  -2.564 131.764  0.00  0.00    +0.042 C 
ATOM     25  O   LIG A   1      -2.735  -2.112 133.608  0.00  0.00    -0.366 OA
ATOM     26  C   LIG A   1      -2.742  -2.704 134.933  0.00  0.00    +0.162 C 
ATOM     27  C   LIG A   1      -4.190  -2.625 135.415  0.00  0.00    +0.038 C 
ATOM     28  C   LIG A   1      -5.005  -2.577 134.146  0.00  0.00    +0.037 C 
BRANCH  26  29
ATOM     29  C   LIG A   1      -2.111  -4.138 134.924  0.00  0.00    +0.134 C 
ATOM     30  C   LIG A   1      -2.291  -4.868 136.268  0.00  0.00    +0.058 C 
ATOM     31  C   LIG A   1      -2.720  -5.035 133.838  0.00  0.00    +0.058 C 
BRANCH  29  32
ATOM     32  O   LIG A   1      -0.700  -4.082 134.537  0.00  0.00    -0.456 OA
BRANCH  32  33
ATOM     33  C   LIG A   1       0.227  -3.405 135.256  0.00  0.00    +0.304 C 
ATOM     34  O   LIG A   1       0.754  -3.783 136.293  0.00  0.00    -0.251 OA
ATOM     35  C   LIG A   1       0.594  -2.130 134.553  0.00  0.00    +0.136 C 
ENDBRANCH  32  33
ENDBRANCH  29  32
ENDBRANCH  26  29
ENDBRANCH  22  23
BRANCH  12  36
ATOM     36  O   LIG A   1     -11.851   5.873 131.113  0.00  0.00    -0.461 OA
BRANCH  36  37
ATOM     37  C   LIG A   1     -12.352   6.883 130.369  0.00  0.00    +0.304 C 
ATOM     38  O   LIG A   1     -12.761   7.960 130.820  0.00  0.00    -0.251 OA
ATOM     39  C   LIG A   1     -12.452   6.505 128.925  0.00  0.00    +0.136 C 
ENDBRANCH  36  37
ENDBRANCH  12  36
TORSDOF 6
ENDMDL
