MODEL 1
REMARK VINA RESULT:      -8.1      0.000      0.000
REMARK  Name = NuBBE_1316
REMARK  5 active torsions:
REMARK  status: ('A' for Active; 'I' for Inactive)
REMARK    1  A    between atoms: C_3  and  O_4
REMARK    2  A    between atoms: O_4  and  C_5
REMARK    3  A    between atoms: C_6  and  C_7
REMARK    4  A    between atoms: C_10  and  O_11
REMARK    5  A    between atoms: O_11  and  C_12
REMARK                            x       y       z     vdW  Elec       q    Type
REMARK                         _______ _______ _______ _____ _____    ______ ____
ROOT
ATOM      1  O   LIG A   1      -7.214   1.975 127.214  0.00  0.00    -0.283 OA
ATOM      2  C   LIG A   1      -7.454   1.636 126.062  0.00  0.00    +0.235 A 
ATOM      3  C   LIG A   1      -7.242   2.526 124.879  0.00  0.00    +0.210 A 
ATOM      4  C   LIG A   1      -7.584   2.035 123.668  0.00  0.00    +0.181 A 
ATOM      5  O   LIG A   1      -8.074   0.764 123.425  0.00  0.00    -0.450 OA
ATOM      6  C   LIG A   1      -7.977   0.282 125.801  0.00  0.00    +0.069 A 
ATOM      7  C   LIG A   1      -8.247  -0.091 124.483  0.00  0.00    +0.150 A 
ATOM      8  C   LIG A   1      -8.716  -1.396 124.238  0.00  0.00    +0.063 A 
ATOM      9  C   LIG A   1      -9.079  -2.151 123.088  0.00  0.00    +0.053 A 
ATOM     10  C   LIG A   1      -9.465  -3.393 123.543  0.00  0.00    +0.196 A 
ATOM     11  O   LIG A   1      -9.363  -3.459 124.895  0.00  0.00    -0.463 OA
ATOM     12  C   LIG A   1      -8.907  -2.249 125.320  0.00  0.00    +0.138 A 
ATOM     13  C   LIG A   1      -8.662  -1.902 126.645  0.00  0.00    +0.048 A 
ATOM     14  C   LIG A   1      -8.184  -0.606 126.868  0.00  0.00    +0.019 A 
ENDROOT
BRANCH   4  15
ATOM     15  C   LIG A   1      -7.428   2.810 122.424  0.00  0.00    +0.021 A 
ATOM     16  C   LIG A   1      -6.147   3.097 121.936  0.00  0.00    +0.015 A 
ATOM     17  C   LIG A   1      -5.980   3.781 120.725  0.00  0.00    +0.046 A 
ATOM     18  C   LIG A   1      -7.090   4.185 119.985  0.00  0.00    +0.120 A 
ATOM     19  C   LIG A   1      -8.370   3.901 120.471  0.00  0.00    +0.046 A 
ATOM     20  C   LIG A   1      -8.541   3.219 121.682  0.00  0.00    +0.015 A 
BRANCH  18  21
ATOM     21  O   LIG A   1      -7.058   4.848 118.788  0.00  0.00    -0.495 OA
ATOM     22  C   LIG A   1      -5.954   5.720 118.568  0.00  0.00    +0.277 C 
ENDBRANCH  18  21
ENDBRANCH   4  15
BRANCH   3  23
ATOM     23  O   LIG A   1      -6.747   3.820 125.000  0.00  0.00    -0.488 OA
ATOM     24  C   LIG A   1      -7.665   4.795 125.486  0.00  0.00    +0.277 C 
ENDBRANCH   3  23
TORSDOF 3
ENDMDL
MODEL 2
REMARK VINA RESULT:      -7.5      8.602      9.964
REMARK  Name = NuBBE_1316
REMARK  5 active torsions:
REMARK  status: ('A' for Active; 'I' for Inactive)
REMARK    1  A    between atoms: C_3  and  O_4
REMARK    2  A    between atoms: O_4  and  C_5
REMARK    3  A    between atoms: C_6  and  C_7
REMARK    4  A    between atoms: C_10  and  O_11
REMARK    5  A    between atoms: O_11  and  C_12
REMARK                            x       y       z     vdW  Elec       q    Type
REMARK                         _______ _______ _______ _____ _____    ______ ____
ROOT
ATOM      1  O   LIG A   1      -9.814   4.989 133.602  0.00  0.00    -0.283 OA
ATOM      2  C   LIG A   1      -9.349   5.526 132.605  0.00  0.00    +0.235 A 
ATOM      3  C   LIG A   1      -7.900   5.474 132.240  0.00  0.00    +0.210 A 
ATOM      4  C   LIG A   1      -7.519   6.143 131.129  0.00  0.00    +0.181 A 
ATOM      5  O   LIG A   1      -8.363   6.836 130.279  0.00  0.00    -0.450 OA
ATOM      6  C   LIG A   1     -10.246   6.265 131.698  0.00  0.00    +0.069 A 
ATOM      7  C   LIG A   1      -9.704   6.872 130.564  0.00  0.00    +0.150 A 
ATOM      8  C   LIG A   1     -10.571   7.550 129.685  0.00  0.00    +0.063 A 
ATOM      9  C   LIG A   1     -10.434   8.259 128.460  0.00  0.00    +0.053 A 
ATOM     10  C   LIG A   1     -11.695   8.689 128.114  0.00  0.00    +0.196 A 
ATOM     11  O   LIG A   1     -12.606   8.292 129.040  0.00  0.00    -0.463 OA
ATOM     12  C   LIG A   1     -11.927   7.599 129.994  0.00  0.00    +0.138 A 
ATOM     13  C   LIG A   1     -12.495   7.017 131.124  0.00  0.00    +0.048 A 
ATOM     14  C   LIG A   1     -11.620   6.338 131.978  0.00  0.00    +0.019 A 
ENDROOT
BRANCH   4  15
ATOM     15  C   LIG A   1      -6.122   6.174 130.661  0.00  0.00    +0.021 A 
ATOM     16  C   LIG A   1      -5.615   5.110 129.905  0.00  0.00    +0.015 A 
ATOM     17  C   LIG A   1      -4.308   5.150 129.402  0.00  0.00    +0.046 A 
ATOM     18  C   LIG A   1      -3.492   6.253 129.647  0.00  0.00    +0.120 A 
ATOM     19  C   LIG A   1      -3.996   7.316 130.403  0.00  0.00    +0.046 A 
ATOM     20  C   LIG A   1      -5.301   7.279 130.909  0.00  0.00    +0.015 A 
BRANCH  18  21
ATOM     21  O   LIG A   1      -2.207   6.415 129.204  0.00  0.00    -0.495 OA
ATOM     22  C   LIG A   1      -2.037   7.092 127.962  0.00  0.00    +0.277 C 
ENDBRANCH  18  21
ENDBRANCH   4  15
BRANCH   3  23
ATOM     23  O   LIG A   1      -6.961   4.802 133.014  0.00  0.00    -0.488 OA
ATOM     24  C   LIG A   1      -6.485   5.499 134.161  0.00  0.00    +0.277 C 
ENDBRANCH   3  23
TORSDOF 3
ENDMDL
MODEL 3
REMARK VINA RESULT:      -7.2      5.429      7.909
REMARK  Name = NuBBE_1316
REMARK  5 active torsions:
REMARK  status: ('A' for Active; 'I' for Inactive)
REMARK    1  A    between atoms: C_3  and  O_4
REMARK    2  A    between atoms: O_4  and  C_5
REMARK    3  A    between atoms: C_6  and  C_7
REMARK    4  A    between atoms: C_10  and  O_11
REMARK    5  A    between atoms: O_11  and  C_12
REMARK                            x       y       z     vdW  Elec       q    Type
REMARK                         _______ _______ _______ _____ _____    ______ ____
ROOT
ATOM      1  O   LIG A   1      -8.574   2.309 133.290  0.00  0.00    -0.283 OA
ATOM      2  C   LIG A   1      -8.830   2.685 132.153  0.00  0.00    +0.235 A 
ATOM      3  C   LIG A   1      -9.465   4.003 131.844  0.00  0.00    +0.210 A 
ATOM      4  C   LIG A   1      -9.724   4.274 130.546  0.00  0.00    +0.181 A 
ATOM      5  O   LIG A   1      -9.412   3.454 129.476  0.00  0.00    -0.450 OA
ATOM      6  C   LIG A   1      -8.499   1.813 131.011  0.00  0.00    +0.069 A 
ATOM      7  C   LIG A   1      -8.796   2.254 129.720  0.00  0.00    +0.150 A 
ATOM      8  C   LIG A   1      -8.449   1.429 128.633  0.00  0.00    +0.063 A 
ATOM      9  C   LIG A   1      -8.554   1.509 127.216  0.00  0.00    +0.053 A 
ATOM     10  C   LIG A   1      -8.016   0.344 126.719  0.00  0.00    +0.196 A 
ATOM     11  O   LIG A   1      -7.582  -0.452 127.730  0.00  0.00    -0.463 OA
ATOM     12  C   LIG A   1      -7.841   0.205 128.893  0.00  0.00    +0.138 A 
ATOM     13  C   LIG A   1      -7.547  -0.269 130.168  0.00  0.00    +0.048 A 
ATOM     14  C   LIG A   1      -7.888   0.569 131.235  0.00  0.00    +0.019 A 
ENDROOT
BRANCH   4  15
ATOM     15  C   LIG A   1     -10.349   5.535 130.107  0.00  0.00    +0.021 A 
ATOM     16  C   LIG A   1      -9.547   6.631 129.767  0.00  0.00    +0.015 A 
ATOM     17  C   LIG A   1     -10.122   7.817 129.292  0.00  0.00    +0.046 A 
ATOM     18  C   LIG A   1     -11.504   7.922 129.149  0.00  0.00    +0.120 A 
ATOM     19  C   LIG A   1     -12.307   6.830 129.490  0.00  0.00    +0.046 A 
ATOM     20  C   LIG A   1     -11.737   5.643 129.967  0.00  0.00    +0.015 A 
BRANCH  18  21
ATOM     21  O   LIG A   1     -12.182   9.019 128.689  0.00  0.00    -0.495 OA
ATOM     22  C   LIG A   1     -13.000   9.709 129.629  0.00  0.00    +0.277 C 
ENDBRANCH  18  21
ENDBRANCH   4  15
BRANCH   3  23
ATOM     23  O   LIG A   1      -9.815   4.912 132.836  0.00  0.00    -0.488 OA
ATOM     24  C   LIG A   1      -8.763   5.745 133.315  0.00  0.00    +0.277 C 
ENDBRANCH   3  23
TORSDOF 3
ENDMDL
MODEL 4
REMARK VINA RESULT:      -7.2      2.112      4.329
REMARK  Name = NuBBE_1316
REMARK  5 active torsions:
REMARK  status: ('A' for Active; 'I' for Inactive)
REMARK    1  A    between atoms: C_3  and  O_4
REMARK    2  A    between atoms: O_4  and  C_5
REMARK    3  A    between atoms: C_6  and  C_7
REMARK    4  A    between atoms: C_10  and  O_11
REMARK    5  A    between atoms: O_11  and  C_12
REMARK                            x       y       z     vdW  Elec       q    Type
REMARK                         _______ _______ _______ _____ _____    ______ ____
ROOT
ATOM      1  O   LIG A   1      -9.688  -2.973 124.139  0.00  0.00    -0.283 OA
ATOM      2  C   LIG A   1      -9.023  -2.154 124.760  0.00  0.00    +0.235 A 
ATOM      3  C   LIG A   1      -8.521  -0.877 124.165  0.00  0.00    +0.210 A 
ATOM      4  C   LIG A   1      -7.768  -0.081 124.956  0.00  0.00    +0.181 A 
ATOM      5  O   LIG A   1      -7.458  -0.328 126.282  0.00  0.00    -0.450 OA
ATOM      6  C   LIG A   1      -8.691  -2.415 126.173  0.00  0.00    +0.069 A 
ATOM      7  C   LIG A   1      -7.933  -1.472 126.870  0.00  0.00    +0.150 A 
ATOM      8  C   LIG A   1      -7.645  -1.714 128.228  0.00  0.00    +0.063 A 
ATOM      9  C   LIG A   1      -6.949  -1.028 129.261  0.00  0.00    +0.053 A 
ATOM     10  C   LIG A   1      -7.036  -1.821 130.384  0.00  0.00    +0.196 A 
ATOM     11  O   LIG A   1      -7.742  -2.950 130.117  0.00  0.00    -0.463 OA
ATOM     12  C   LIG A   1      -8.115  -2.887 128.809  0.00  0.00    +0.138 A 
ATOM     13  C   LIG A   1      -8.859  -3.852 128.137  0.00  0.00    +0.048 A 
ATOM     14  C   LIG A   1      -9.145  -3.590 126.793  0.00  0.00    +0.019 A 
ENDROOT
BRANCH   4  15
ATOM     15  C   LIG A   1      -7.211   1.201 124.492  0.00  0.00    +0.021 A 
ATOM     16  C   LIG A   1      -6.696   2.116 125.419  0.00  0.00    +0.015 A 
ATOM     17  C   LIG A   1      -6.109   3.314 124.991  0.00  0.00    +0.046 A 
ATOM     18  C   LIG A   1      -6.027   3.612 123.632  0.00  0.00    +0.120 A 
ATOM     19  C   LIG A   1      -6.542   2.701 122.705  0.00  0.00    +0.046 A 
ATOM     20  C   LIG A   1      -7.131   1.503 123.129  0.00  0.00    +0.015 A 
BRANCH  18  21
ATOM     21  O   LIG A   1      -5.471   4.739 123.090  0.00  0.00    -0.495 OA
ATOM     22  C   LIG A   1      -4.839   4.597 121.822  0.00  0.00    +0.277 C 
ENDBRANCH  18  21
ENDBRANCH   4  15
BRANCH   3  23
ATOM     23  O   LIG A   1      -8.777  -0.519 122.847  0.00  0.00    -0.488 OA
ATOM     24  C   LIG A   1     -10.106  -0.089 122.565  0.00  0.00    +0.277 C 
ENDBRANCH   3  23
TORSDOF 3
ENDMDL
MODEL 5
REMARK VINA RESULT:      -7.1      2.870      8.166
REMARK  Name = NuBBE_1316
REMARK  5 active torsions:
REMARK  status: ('A' for Active; 'I' for Inactive)
REMARK    1  A    between atoms: C_3  and  O_4
REMARK    2  A    between atoms: O_4  and  C_5
REMARK    3  A    between atoms: C_6  and  C_7
REMARK    4  A    between atoms: C_10  and  O_11
REMARK    5  A    between atoms: O_11  and  C_12
REMARK                            x       y       z     vdW  Elec       q    Type
REMARK                         _______ _______ _______ _____ _____    ______ ____
ROOT
ATOM      1  O   LIG A   1      -9.549  -1.821 123.341  0.00  0.00    -0.283 OA
ATOM      2  C   LIG A   1      -9.017  -1.340 124.333  0.00  0.00    +0.235 A 
ATOM      3  C   LIG A   1      -8.456  -2.162 125.449  0.00  0.00    +0.210 A 
ATOM      4  C   LIG A   1      -7.928  -1.498 126.501  0.00  0.00    +0.181 A 
ATOM      5  O   LIG A   1      -7.824  -0.122 126.612  0.00  0.00    -0.450 OA
ATOM      6  C   LIG A   1      -8.905   0.126 124.454  0.00  0.00    +0.069 A 
ATOM      7  C   LIG A   1      -8.295   0.661 125.590  0.00  0.00    +0.150 A 
ATOM      8  C   LIG A   1      -8.165   2.061 125.685  0.00  0.00    +0.063 A 
ATOM      9  C   LIG A   1      -7.613   2.973 126.627  0.00  0.00    +0.053 A 
ATOM     10  C   LIG A   1      -7.814   4.234 126.113  0.00  0.00    +0.196 A 
ATOM     11  O   LIG A   1      -8.451   4.165 124.915  0.00  0.00    -0.463 OA
ATOM     12  C   LIG A   1      -8.663   2.847 124.652  0.00  0.00    +0.138 A 
ATOM     13  C   LIG A   1      -9.290   2.344 123.516  0.00  0.00    +0.048 A 
ATOM     14  C   LIG A   1      -9.400   0.952 123.433  0.00  0.00    +0.019 A 
ENDROOT
BRANCH   4  15
ATOM     15  C   LIG A   1      -7.346  -2.188 127.665  0.00  0.00    +0.021 A 
ATOM     16  C   LIG A   1      -5.955  -2.236 127.826  0.00  0.00    +0.015 A 
ATOM     17  C   LIG A   1      -5.386  -2.837 128.956  0.00  0.00    +0.046 A 
ATOM     18  C   LIG A   1      -6.199  -3.395 129.941  0.00  0.00    +0.120 A 
ATOM     19  C   LIG A   1      -7.587  -3.350 129.782  0.00  0.00    +0.046 A 
ATOM     20  C   LIG A   1      -8.160  -2.752 128.653  0.00  0.00    +0.015 A 
BRANCH  18  21
ATOM     21  O   LIG A   1      -5.767  -3.999 131.091  0.00  0.00    -0.495 OA
ATOM     22  C   LIG A   1      -4.372  -3.921 131.371  0.00  0.00    +0.277 C 
ENDBRANCH  18  21
ENDBRANCH   4  15
BRANCH   3  23
ATOM     23  O   LIG A   1      -8.496  -3.551 125.443  0.00  0.00    -0.488 OA
ATOM     24  C   LIG A   1      -7.546  -4.198 124.600  0.00  0.00    +0.277 C 
ENDBRANCH   3  23
TORSDOF 3
ENDMDL
MODEL 6
REMARK VINA RESULT:      -7.1      2.841      5.615
REMARK  Name = NuBBE_1316
REMARK  5 active torsions:
REMARK  status: ('A' for Active; 'I' for Inactive)
REMARK    1  A    between atoms: C_3  and  O_4
REMARK    2  A    between atoms: O_4  and  C_5
REMARK    3  A    between atoms: C_6  and  C_7
REMARK    4  A    between atoms: C_10  and  O_11
REMARK    5  A    between atoms: O_11  and  C_12
REMARK                            x       y       z     vdW  Elec       q    Type
REMARK                         _______ _______ _______ _____ _____    ______ ____
ROOT
ATOM      1  O   LIG A   1      -9.125  -4.148 127.575  0.00  0.00    -0.283 OA
ATOM      2  C   LIG A   1      -8.532  -3.083 127.463  0.00  0.00    +0.235 A 
ATOM      3  C   LIG A   1      -8.783  -2.112 126.353  0.00  0.00    +0.210 A 
ATOM      4  C   LIG A   1      -8.030  -0.990 126.332  0.00  0.00    +0.181 A 
ATOM      5  O   LIG A   1      -7.077  -0.645 127.274  0.00  0.00    -0.450 OA
ATOM      6  C   LIG A   1      -7.516  -2.712 128.465  0.00  0.00    +0.069 A 
ATOM      7  C   LIG A   1      -6.847  -1.494 128.325  0.00  0.00    +0.150 A 
ATOM      8  C   LIG A   1      -5.900  -1.133 129.303  0.00  0.00    +0.063 A 
ATOM      9  C   LIG A   1      -5.047  -0.018 129.535  0.00  0.00    +0.053 A 
ATOM     10  C   LIG A   1      -4.353  -0.292 130.692  0.00  0.00    +0.196 A 
ATOM     11  O   LIG A   1      -4.720  -1.499 131.194  0.00  0.00    -0.463 OA
ATOM     12  C   LIG A   1      -5.660  -2.011 130.354  0.00  0.00    +0.138 A 
ATOM     13  C   LIG A   1      -6.299  -3.238 130.513  0.00  0.00    +0.048 A 
ATOM     14  C   LIG A   1      -7.245  -3.574 129.539  0.00  0.00    +0.019 A 
ENDROOT
BRANCH   4  15
ATOM     15  C   LIG A   1      -8.176   0.044 125.293  0.00  0.00    +0.021 A 
ATOM     16  C   LIG A   1      -9.181   1.012 125.407  0.00  0.00    +0.015 A 
ATOM     17  C   LIG A   1      -9.297   2.038 124.459  0.00  0.00    +0.046 A 
ATOM     18  C   LIG A   1      -8.408   2.110 123.387  0.00  0.00    +0.120 A 
ATOM     19  C   LIG A   1      -7.405   1.143 123.271  0.00  0.00    +0.046 A 
ATOM     20  C   LIG A   1      -7.287   0.116 124.215  0.00  0.00    +0.015 A 
BRANCH  18  21
ATOM     21  O   LIG A   1      -8.411   3.064 122.406  0.00  0.00    -0.495 OA
ATOM     22  C   LIG A   1      -7.150   3.405 121.839  0.00  0.00    +0.277 C 
ENDBRANCH  18  21
ENDBRANCH   4  15
BRANCH   3  23
ATOM     23  O   LIG A   1      -9.722  -2.349 125.356  0.00  0.00    -0.488 OA
ATOM     24  C   LIG A   1      -9.290  -3.172 124.277  0.00  0.00    +0.277 C 
ENDBRANCH   3  23
TORSDOF 3
ENDMDL
MODEL 7
REMARK VINA RESULT:      -7.1      8.178     11.241
REMARK  Name = NuBBE_1316
REMARK  5 active torsions:
REMARK  status: ('A' for Active; 'I' for Inactive)
REMARK    1  A    between atoms: C_3  and  O_4
REMARK    2  A    between atoms: O_4  and  C_5
REMARK    3  A    between atoms: C_6  and  C_7
REMARK    4  A    between atoms: C_10  and  O_11
REMARK    5  A    between atoms: O_11  and  C_12
REMARK                            x       y       z     vdW  Elec       q    Type
REMARK                         _______ _______ _______ _____ _____    ______ ____
ROOT
ATOM      1  O   LIG A   1      -6.578   2.934 132.031  0.00  0.00    -0.283 OA
ATOM      2  C   LIG A   1      -7.246   3.879 132.431  0.00  0.00    +0.235 A 
ATOM      3  C   LIG A   1      -8.284   4.565 131.601  0.00  0.00    +0.210 A 
ATOM      4  C   LIG A   1      -8.922   5.618 132.157  0.00  0.00    +0.181 A 
ATOM      5  O   LIG A   1      -8.726   6.088 133.444  0.00  0.00    -0.450 OA
ATOM      6  C   LIG A   1      -7.040   4.381 133.802  0.00  0.00    +0.069 A 
ATOM      7  C   LIG A   1      -7.809   5.458 134.246  0.00  0.00    +0.150 A 
ATOM      8  C   LIG A   1      -7.629   5.913 135.566  0.00  0.00    +0.063 A 
ATOM      9  C   LIG A   1      -8.199   6.928 136.383  0.00  0.00    +0.053 A 
ATOM     10  C   LIG A   1      -7.566   6.849 137.603  0.00  0.00    +0.196 A 
ATOM     11  O   LIG A   1      -6.644   5.852 137.599  0.00  0.00    -0.463 OA
ATOM     12  C   LIG A   1      -6.681   5.280 136.364  0.00  0.00    +0.138 A 
ATOM     13  C   LIG A   1      -5.889   4.215 135.946  0.00  0.00    +0.048 A 
ATOM     14  C   LIG A   1      -6.091   3.769 134.636  0.00  0.00    +0.019 A 
ENDROOT
BRANCH   4  15
ATOM     15  C   LIG A   1      -9.962   6.382 131.446  0.00  0.00    +0.021 A 
ATOM     16  C   LIG A   1      -9.635   7.096 130.286  0.00  0.00    +0.015 A 
ATOM     17  C   LIG A   1     -10.622   7.779 129.564  0.00  0.00    +0.046 A 
ATOM     18  C   LIG A   1     -11.949   7.756 129.991  0.00  0.00    +0.120 A 
ATOM     19  C   LIG A   1     -12.278   7.047 131.149  0.00  0.00    +0.046 A 
ATOM     20  C   LIG A   1     -11.293   6.363 131.875  0.00  0.00    +0.015 A 
BRANCH  18  21
ATOM     21  O   LIG A   1     -13.002   8.373 129.370  0.00  0.00    -0.495 OA
ATOM     22  C   LIG A   1     -13.525   7.735 128.209  0.00  0.00    +0.277 C 
ENDBRANCH  18  21
ENDBRANCH   4  15
BRANCH   3  23
ATOM     23  O   LIG A   1      -8.572   4.176 130.298  0.00  0.00    -0.488 OA
ATOM     24  C   LIG A   1      -9.456   3.067 130.161  0.00  0.00    +0.277 C 
ENDBRANCH   3  23
TORSDOF 3
ENDMDL
MODEL 8
REMARK VINA RESULT:      -7.1      4.043      6.968
REMARK  Name = NuBBE_1316
REMARK  5 active torsions:
REMARK  status: ('A' for Active; 'I' for Inactive)
REMARK    1  A    between atoms: C_3  and  O_4
REMARK    2  A    between atoms: O_4  and  C_5
REMARK    3  A    between atoms: C_6  and  C_7
REMARK    4  A    between atoms: C_10  and  O_11
REMARK    5  A    between atoms: O_11  and  C_12
REMARK                            x       y       z     vdW  Elec       q    Type
REMARK                         _______ _______ _______ _____ _____    ______ ____
ROOT
ATOM      1  O   LIG A   1      -7.744   3.654 130.743  0.00  0.00    -0.283 OA
ATOM      2  C   LIG A   1      -8.073   4.208 129.702  0.00  0.00    +0.235 A 
ATOM      3  C   LIG A   1      -7.537   3.824 128.360  0.00  0.00    +0.210 A 
ATOM      4  C   LIG A   1      -7.960   4.545 127.298  0.00  0.00    +0.181 A 
ATOM      5  O   LIG A   1      -8.879   5.579 127.343  0.00  0.00    -0.450 OA
ATOM      6  C   LIG A   1      -9.051   5.310 129.747  0.00  0.00    +0.069 A 
ATOM      7  C   LIG A   1      -9.418   5.932 128.553  0.00  0.00    +0.150 A 
ATOM      8  C   LIG A   1     -10.376   6.963 128.600  0.00  0.00    +0.063 A 
ATOM      9  C   LIG A   1     -11.013   7.809 127.650  0.00  0.00    +0.053 A 
ATOM     10  C   LIG A   1     -11.868   8.621 128.361  0.00  0.00    +0.196 A 
ATOM     11  O   LIG A   1     -11.805   8.335 129.687  0.00  0.00    -0.463 OA
ATOM     12  C   LIG A   1     -10.902   7.327 129.835  0.00  0.00    +0.138 A 
ATOM     13  C   LIG A   1     -10.545   6.737 131.044  0.00  0.00    +0.048 A 
ATOM     14  C   LIG A   1      -9.602   5.707 130.976  0.00  0.00    +0.019 A 
ENDROOT
BRANCH   4  15
ATOM     15  C   LIG A   1      -7.507   4.272 125.922  0.00  0.00    +0.021 A 
ATOM     16  C   LIG A   1      -6.264   4.748 125.488  0.00  0.00    +0.015 A 
ATOM     17  C   LIG A   1      -5.792   4.449 124.204  0.00  0.00    +0.046 A 
ATOM     18  C   LIG A   1      -6.554   3.667 123.338  0.00  0.00    +0.120 A 
ATOM     19  C   LIG A   1      -7.796   3.192 123.768  0.00  0.00    +0.046 A 
ATOM     20  C   LIG A   1      -8.273   3.490 125.051  0.00  0.00    +0.015 A 
BRANCH  18  21
ATOM     21  O   LIG A   1      -6.200   3.298 122.068  0.00  0.00    -0.495 OA
ATOM     22  C   LIG A   1      -5.329   4.178 121.364  0.00  0.00    +0.277 C 
ENDBRANCH  18  21
ENDBRANCH   4  15
BRANCH   3  23
ATOM     23  O   LIG A   1      -6.616   2.797 128.191  0.00  0.00    -0.488 OA
ATOM     24  C   LIG A   1      -7.154   1.477 128.165  0.00  0.00    +0.277 C 
ENDBRANCH   3  23
TORSDOF 3
ENDMDL
MODEL 9
REMARK VINA RESULT:      -7.0      3.390      7.027
REMARK  Name = NuBBE_1316
REMARK  5 active torsions:
REMARK  status: ('A' for Active; 'I' for Inactive)
REMARK    1  A    between atoms: C_3  and  O_4
REMARK    2  A    between atoms: O_4  and  C_5
REMARK    3  A    between atoms: C_6  and  C_7
REMARK    4  A    between atoms: C_10  and  O_11
REMARK    5  A    between atoms: O_11  and  C_12
REMARK                            x       y       z     vdW  Elec       q    Type
REMARK                         _______ _______ _______ _____ _____    ______ ____
ROOT
ATOM      1  O   LIG A   1      -9.065   2.515 125.473  0.00  0.00    -0.283 OA
ATOM      2  C   LIG A   1      -7.979   3.017 125.212  0.00  0.00    +0.235 A 
ATOM      3  C   LIG A   1      -6.970   3.385 126.252  0.00  0.00    +0.210 A 
ATOM      4  C   LIG A   1      -5.826   3.965 125.825  0.00  0.00    +0.181 A 
ATOM      5  O   LIG A   1      -5.494   4.207 124.503  0.00  0.00    -0.450 OA
ATOM      6  C   LIG A   1      -7.622   3.276 123.805  0.00  0.00    +0.069 A 
ATOM      7  C   LIG A   1      -6.380   3.848 123.521  0.00  0.00    +0.150 A 
ATOM      8  C   LIG A   1      -6.033   4.064 122.174  0.00  0.00    +0.063 A 
ATOM      9  C   LIG A   1      -4.905   4.585 121.481  0.00  0.00    +0.053 A 
ATOM     10  C   LIG A   1      -5.208   4.522 120.139  0.00  0.00    +0.196 A 
ATOM     11  O   LIG A   1      -6.446   3.996 119.953  0.00  0.00    -0.463 OA
ATOM     12  C   LIG A   1      -6.949   3.715 121.186  0.00  0.00    +0.138 A 
ATOM     13  C   LIG A   1      -8.199   3.158 121.438  0.00  0.00    +0.048 A 
ATOM     14  C   LIG A   1      -8.521   2.939 122.781  0.00  0.00    +0.019 A 
ENDROOT
BRANCH   4  15
ATOM     15  C   LIG A   1      -4.753   4.378 126.746  0.00  0.00    +0.021 A 
ATOM     16  C   LIG A   1      -4.683   5.705 127.186  0.00  0.00    +0.015 A 
ATOM     17  C   LIG A   1      -3.705   6.103 128.107  0.00  0.00    +0.046 A 
ATOM     18  C   LIG A   1      -2.787   5.178 128.602  0.00  0.00    +0.120 A 
ATOM     19  C   LIG A   1      -2.854   3.852 128.163  0.00  0.00    +0.046 A 
ATOM     20  C   LIG A   1      -3.829   3.452 127.241  0.00  0.00    +0.015 A 
BRANCH  18  21
ATOM     21  O   LIG A   1      -1.796   5.439 129.510  0.00  0.00    -0.495 OA
ATOM     22  C   LIG A   1      -2.054   6.462 130.466  0.00  0.00    +0.277 C 
ENDBRANCH  18  21
ENDBRANCH   4  15
BRANCH   3  23
ATOM     23  O   LIG A   1      -7.191   3.181 127.609  0.00  0.00    -0.488 OA
ATOM     24  C   LIG A   1      -7.940   4.192 128.277  0.00  0.00    +0.277 C 
ENDBRANCH   3  23
TORSDOF 3
ENDMDL
