MODEL 1
REMARK VINA RESULT:      -5.8      0.000      0.000
REMARK  Name = NuBBE_393
REMARK  3 active torsions:
REMARK  status: ('A' for Active; 'I' for Inactive)
REMARK    1  A    between atoms: C_1  and  O_2
REMARK    2  A    between atoms: O_2  and  C_3
REMARK    3  A    between atoms: C_4  and  O_5
REMARK                            x       y       z     vdW  Elec       q    Type
REMARK                         _______ _______ _______ _____ _____    ______ ____
ROOT
ATOM      1  C   LIG A   1     -11.100   7.593 129.385  0.00  0.00    +0.162 A 
ATOM      2  C   LIG A   1     -11.997   7.050 130.319  0.00  0.00    +0.162 A 
ATOM      3  C   LIG A   1     -11.556   6.426 131.477  0.00  0.00    +0.096 A 
ATOM      4  C   LIG A   1     -10.187   6.346 131.700  0.00  0.00    +0.143 A 
ATOM      5  O   LIG A   1      -9.761   5.707 132.882  0.00  0.00    -0.422 OA
ATOM      6  C   LIG A   1      -8.412   5.582 133.185  0.00  0.00    +0.337 A 
ATOM      7  C   LIG A   1      -7.456   6.147 132.216  0.00  0.00    +0.092 A 
ATOM      8  C   LIG A   1      -7.846   6.756 131.092  0.00  0.00    +0.019 A 
ATOM      9  O   LIG A   1      -8.015   5.030 134.204  0.00  0.00    -0.245 OA
ATOM     10  C   LIG A   1      -9.265   6.875 130.795  0.00  0.00    +0.021 A 
ATOM     11  C   LIG A   1      -9.726   7.501 129.630  0.00  0.00    +0.061 A 
ENDROOT
BRANCH   1  13
ATOM     12  C   LIG A   1     -11.012   8.041 127.050  0.00  0.00    +0.277 C 
ATOM     13  O   LIG A   1     -11.691   8.176 128.293  0.00  0.00    -0.491 OA
ENDBRANCH   1  13
BRANCH   2  14
ATOM     14  O   LIG A   1     -13.345   7.129 130.100  0.00  0.00    -0.503 OA
ATOM     15  H   LIG A   1     -13.752   6.584 130.802  0.00  0.00    +0.292 HD
ENDBRANCH   2  14
TORSDOF 2
ENDMDL
MODEL 2
REMARK VINA RESULT:      -5.8     11.885     12.072
REMARK  Name = NuBBE_393
REMARK  3 active torsions:
REMARK  status: ('A' for Active; 'I' for Inactive)
REMARK    1  A    between atoms: C_1  and  O_2
REMARK    2  A    between atoms: O_2  and  C_3
REMARK    3  A    between atoms: C_4  and  O_5
REMARK                            x       y       z     vdW  Elec       q    Type
REMARK                         _______ _______ _______ _____ _____    ______ ____
ROOT
ATOM      1  C   LIG A   1      -8.790  -1.509 124.919  0.00  0.00    +0.162 A 
ATOM      2  C   LIG A   1      -9.121  -2.842 125.207  0.00  0.00    +0.162 A 
ATOM      3  C   LIG A   1      -8.236  -3.883 124.963  0.00  0.00    +0.096 A 
ATOM      4  C   LIG A   1      -6.995  -3.576 124.420  0.00  0.00    +0.143 A 
ATOM      5  O   LIG A   1      -6.111  -4.647 124.180  0.00  0.00    -0.422 OA
ATOM      6  C   LIG A   1      -4.851  -4.432 123.640  0.00  0.00    +0.337 A 
ATOM      7  C   LIG A   1      -4.486  -3.038 123.333  0.00  0.00    +0.092 A 
ATOM      8  C   LIG A   1      -5.313  -2.012 123.557  0.00  0.00    +0.019 A 
ATOM      9  O   LIG A   1      -4.065  -5.346 123.420  0.00  0.00    -0.245 OA
ATOM     10  C   LIG A   1      -6.630  -2.261 124.123  0.00  0.00    +0.021 A 
ATOM     11  C   LIG A   1      -7.535  -1.222 124.374  0.00  0.00    +0.061 A 
ENDROOT
BRANCH   1  13
ATOM     12  C   LIG A   1      -9.357   0.601 125.863  0.00  0.00    +0.277 C 
ATOM     13  O   LIG A   1      -9.771  -0.597 125.216  0.00  0.00    -0.491 OA
ENDBRANCH   1  13
BRANCH   2  14
ATOM     14  O   LIG A   1     -10.344  -3.146 125.741  0.00  0.00    -0.503 OA
ATOM     15  H   LIG A   1     -10.450  -2.540 126.501  0.00  0.00    +0.292 HD
ENDBRANCH   2  14
TORSDOF 2
ENDMDL
MODEL 3
REMARK VINA RESULT:      -5.8      8.181     10.373
REMARK  Name = NuBBE_393
REMARK  3 active torsions:
REMARK  status: ('A' for Active; 'I' for Inactive)
REMARK    1  A    between atoms: C_1  and  O_2
REMARK    2  A    between atoms: O_2  and  C_3
REMARK    3  A    between atoms: C_4  and  O_5
REMARK                            x       y       z     vdW  Elec       q    Type
REMARK                         _______ _______ _______ _____ _____    ______ ____
ROOT
ATOM      1  C   LIG A   1      -7.421   2.723 124.521  0.00  0.00    +0.162 A 
ATOM      2  C   LIG A   1      -8.675   2.627 123.898  0.00  0.00    +0.162 A 
ATOM      3  C   LIG A   1      -8.859   2.980 122.569  0.00  0.00    +0.096 A 
ATOM      4  C   LIG A   1      -7.759   3.438 121.854  0.00  0.00    +0.143 A 
ATOM      5  O   LIG A   1      -7.967   3.793 120.505  0.00  0.00    -0.422 OA
ATOM      6  C   LIG A   1      -6.925   4.260 119.716  0.00  0.00    +0.337 A 
ATOM      7  C   LIG A   1      -5.601   4.365 120.354  0.00  0.00    +0.092 A 
ATOM      8  C   LIG A   1      -5.389   4.032 121.631  0.00  0.00    +0.019 A 
ATOM      9  O   LIG A   1      -7.079   4.577 118.543  0.00  0.00    -0.245 OA
ATOM     10  C   LIG A   1      -6.496   3.546 122.440  0.00  0.00    +0.021 A 
ATOM     11  C   LIG A   1      -6.328   3.185 123.783  0.00  0.00    +0.061 A 
ENDROOT
BRANCH   1  13
ATOM     12  C   LIG A   1      -6.670   3.159 126.737  0.00  0.00    +0.277 C 
ATOM     13  O   LIG A   1      -7.404   2.336 125.837  0.00  0.00    -0.491 OA
ENDBRANCH   1  13
BRANCH   2  14
ATOM     14  O   LIG A   1      -9.759   2.176 124.602  0.00  0.00    -0.503 OA
ATOM     15  H   LIG A   1     -10.367   2.939 124.655  0.00  0.00    +0.292 HD
ENDBRANCH   2  14
TORSDOF 2
ENDMDL
MODEL 4
REMARK VINA RESULT:      -5.8      1.274      5.365
REMARK  Name = NuBBE_393
REMARK  3 active torsions:
REMARK  status: ('A' for Active; 'I' for Inactive)
REMARK    1  A    between atoms: C_1  and  O_2
REMARK    2  A    between atoms: O_2  and  C_3
REMARK    3  A    between atoms: C_4  and  O_5
REMARK                            x       y       z     vdW  Elec       q    Type
REMARK                         _______ _______ _______ _____ _____    ______ ____
ROOT
ATOM      1  C   LIG A   1      -9.140   5.836 132.693  0.00  0.00    +0.162 A 
ATOM      2  C   LIG A   1      -8.227   6.348 131.757  0.00  0.00    +0.162 A 
ATOM      3  C   LIG A   1      -8.647   7.025 130.622  0.00  0.00    +0.096 A 
ATOM      4  C   LIG A   1     -10.013   7.190 130.424  0.00  0.00    +0.143 A 
ATOM      5  O   LIG A   1     -10.419   7.880 129.263  0.00  0.00    -0.422 OA
ATOM      6  C   LIG A   1     -11.762   8.090 128.986  0.00  0.00    +0.337 A 
ATOM      7  C   LIG A   1     -12.735   7.561 129.958  0.00  0.00    +0.092 A 
ATOM      8  C   LIG A   1     -12.364   6.906 131.062  0.00  0.00    +0.019 A 
ATOM      9  O   LIG A   1     -12.142   8.684 127.984  0.00  0.00    -0.245 OA
ATOM     10  C   LIG A   1     -10.950   6.696 131.332  0.00  0.00    +0.021 A 
ATOM     11  C   LIG A   1     -10.509   6.014 132.474  0.00  0.00    +0.061 A 
ENDROOT
BRANCH   1  13
ATOM     12  C   LIG A   1      -8.951   3.840 133.974  0.00  0.00    +0.277 C 
ATOM     13  O   LIG A   1      -8.567   5.193 133.760  0.00  0.00    -0.491 OA
ENDBRANCH   1  13
BRANCH   2  14
ATOM     14  O   LIG A   1      -6.882   6.186 131.952  0.00  0.00    -0.503 OA
ATOM     15  H   LIG A   1      -6.587   5.597 131.230  0.00  0.00    +0.292 HD
ENDBRANCH   2  14
TORSDOF 2
ENDMDL
MODEL 5
REMARK VINA RESULT:      -5.7      8.589     10.343
REMARK  Name = NuBBE_393
REMARK  3 active torsions:
REMARK  status: ('A' for Active; 'I' for Inactive)
REMARK    1  A    between atoms: C_1  and  O_2
REMARK    2  A    between atoms: O_2  and  C_3
REMARK    3  A    between atoms: C_4  and  O_5
REMARK                            x       y       z     vdW  Elec       q    Type
REMARK                         _______ _______ _______ _____ _____    ______ ____
ROOT
ATOM      1  C   LIG A   1      -6.959   4.211 119.816  0.00  0.00    +0.162 A 
ATOM      2  C   LIG A   1      -8.353   4.051 119.782  0.00  0.00    +0.162 A 
ATOM      3  C   LIG A   1      -9.064   3.599 120.884  0.00  0.00    +0.096 A 
ATOM      4  C   LIG A   1      -8.358   3.302 122.043  0.00  0.00    +0.143 A 
ATOM      5  O   LIG A   1      -9.099   2.843 123.151  0.00  0.00    -0.422 OA
ATOM      6  C   LIG A   1      -8.476   2.523 124.349  0.00  0.00    +0.337 A 
ATOM      7  C   LIG A   1      -7.012   2.686 124.405  0.00  0.00    +0.092 A 
ATOM      8  C   LIG A   1      -6.298   3.120 123.362  0.00  0.00    +0.019 A 
ATOM      9  O   LIG A   1      -9.096   2.120 125.327  0.00  0.00    -0.245 OA
ATOM     10  C   LIG A   1      -6.972   3.449 122.116  0.00  0.00    +0.021 A 
ATOM     11  C   LIG A   1      -6.269   3.907 120.994  0.00  0.00    +0.061 A 
ENDROOT
BRANCH   1  13
ATOM     12  C   LIG A   1      -5.791   5.949 118.687  0.00  0.00    +0.277 C 
ATOM     13  O   LIG A   1      -6.404   4.666 118.647  0.00  0.00    -0.491 OA
ENDBRANCH   1  13
BRANCH   2  14
ATOM     14  O   LIG A   1      -9.049   4.344 118.640  0.00  0.00    -0.503 OA
ATOM     15  H   LIG A   1      -8.735   3.700 117.975  0.00  0.00    +0.292 HD
ENDBRANCH   2  14
TORSDOF 2
ENDMDL
MODEL 6
REMARK VINA RESULT:      -5.6      9.044      9.983
REMARK  Name = NuBBE_393
REMARK  3 active torsions:
REMARK  status: ('A' for Active; 'I' for Inactive)
REMARK    1  A    between atoms: C_1  and  O_2
REMARK    2  A    between atoms: O_2  and  C_3
REMARK    3  A    between atoms: C_4  and  O_5
REMARK                            x       y       z     vdW  Elec       q    Type
REMARK                         _______ _______ _______ _____ _____    ______ ____
ROOT
ATOM      1  C   LIG A   1      -7.317   2.660 124.111  0.00  0.00    +0.162 A 
ATOM      2  C   LIG A   1      -8.637   2.631 124.589  0.00  0.00    +0.162 A 
ATOM      3  C   LIG A   1      -9.406   1.477 124.541  0.00  0.00    +0.096 A 
ATOM      4  C   LIG A   1      -8.836   0.331 124.002  0.00  0.00    +0.143 A 
ATOM      5  O   LIG A   1      -9.634  -0.830 123.961  0.00  0.00    -0.422 OA
ATOM      6  C   LIG A   1      -9.146  -2.020 123.440  0.00  0.00    +0.337 A 
ATOM      7  C   LIG A   1      -7.761  -2.009 122.935  0.00  0.00    +0.092 A 
ATOM      8  C   LIG A   1      -6.993  -0.916 122.969  0.00  0.00    +0.019 A 
ATOM      9  O   LIG A   1      -9.819  -3.043 123.391  0.00  0.00    -0.245 OA
ATOM     10  C   LIG A   1      -7.526   0.321 123.518  0.00  0.00    +0.021 A 
ATOM     11  C   LIG A   1      -6.763   1.494 123.574  0.00  0.00    +0.061 A 
ENDROOT
BRANCH   1  13
ATOM     12  C   LIG A   1      -5.697   4.179 123.257  0.00  0.00    +0.277 C 
ATOM     13  O   LIG A   1      -6.690   3.874 124.229  0.00  0.00    -0.491 OA
ENDBRANCH   1  13
BRANCH   2  14
ATOM     14  O   LIG A   1      -9.199   3.761 125.120  0.00  0.00    -0.503 OA
ATOM     15  H   LIG A   1      -8.517   4.133 125.713  0.00  0.00    +0.292 HD
ENDBRANCH   2  14
TORSDOF 2
ENDMDL
MODEL 7
REMARK VINA RESULT:      -5.6      8.501     10.286
REMARK  Name = NuBBE_393
REMARK  3 active torsions:
REMARK  status: ('A' for Active; 'I' for Inactive)
REMARK    1  A    between atoms: C_1  and  O_2
REMARK    2  A    between atoms: O_2  and  C_3
REMARK    3  A    between atoms: C_4  and  O_5
REMARK                            x       y       z     vdW  Elec       q    Type
REMARK                         _______ _______ _______ _____ _____    ______ ____
ROOT
ATOM      1  C   LIG A   1      -5.751   4.447 120.653  0.00  0.00    +0.162 A 
ATOM      2  C   LIG A   1      -5.002   4.641 121.825  0.00  0.00    +0.162 A 
ATOM      3  C   LIG A   1      -5.468   4.230 123.065  0.00  0.00    +0.096 A 
ATOM      4  C   LIG A   1      -6.710   3.612 123.128  0.00  0.00    +0.143 A 
ATOM      5  O   LIG A   1      -7.166   3.203 124.398  0.00  0.00    -0.422 OA
ATOM      6  C   LIG A   1      -8.394   2.577 124.554  0.00  0.00    +0.337 A 
ATOM      7  C   LIG A   1      -9.193   2.363 123.334  0.00  0.00    +0.092 A 
ATOM      8  C   LIG A   1      -8.774   2.745 122.124  0.00  0.00    +0.019 A 
ATOM      9  O   LIG A   1      -8.814   2.214 125.646  0.00  0.00    -0.245 OA
ATOM     10  C   LIG A   1      -7.482   3.400 121.984  0.00  0.00    +0.021 A 
ATOM     11  C   LIG A   1      -6.998   3.821 120.739  0.00  0.00    +0.061 A 
ENDROOT
BRANCH   1  13
ATOM     12  C   LIG A   1      -5.967   5.673 118.625  0.00  0.00    +0.277 C 
ATOM     13  O   LIG A   1      -5.154   4.908 119.508  0.00  0.00    -0.491 OA
ENDBRANCH   1  13
BRANCH   2  14
ATOM     14  O   LIG A   1      -3.778   5.251 121.763  0.00  0.00    -0.503 OA
ATOM     15  H   LIG A   1      -3.222   4.777 122.412  0.00  0.00    +0.292 HD
ENDBRANCH   2  14
TORSDOF 2
ENDMDL
MODEL 8
REMARK VINA RESULT:      -5.5      1.207      4.880
REMARK  Name = NuBBE_393
REMARK  3 active torsions:
REMARK  status: ('A' for Active; 'I' for Inactive)
REMARK    1  A    between atoms: C_1  and  O_2
REMARK    2  A    between atoms: O_2  and  C_3
REMARK    3  A    between atoms: C_4  and  O_5
REMARK                            x       y       z     vdW  Elec       q    Type
REMARK                         _______ _______ _______ _____ _____    ______ ____
ROOT
ATOM      1  C   LIG A   1      -9.044   6.462 131.475  0.00  0.00    +0.162 A 
ATOM      2  C   LIG A   1     -10.262   6.071 132.053  0.00  0.00    +0.162 A 
ATOM      3  C   LIG A   1     -11.482   6.402 131.481  0.00  0.00    +0.096 A 
ATOM      4  C   LIG A   1     -11.476   7.141 130.305  0.00  0.00    +0.143 A 
ATOM      5  O   LIG A   1     -12.726   7.468 129.740  0.00  0.00    -0.422 OA
ATOM      6  C   LIG A   1     -12.814   8.203 128.567  0.00  0.00    +0.337 A 
ATOM      7  C   LIG A   1     -11.546   8.621 127.944  0.00  0.00    +0.092 A 
ATOM      8  C   LIG A   1     -10.354   8.318 128.468  0.00  0.00    +0.019 A 
ATOM      9  O   LIG A   1     -13.888   8.502 128.056  0.00  0.00    -0.245 OA
ATOM     10  C   LIG A   1     -10.285   7.547 129.700  0.00  0.00    +0.021 A 
ATOM     11  C   LIG A   1      -9.062   7.205 130.290  0.00  0.00    +0.061 A 
ENDROOT
BRANCH   1  13
ATOM     12  C   LIG A   1      -6.670   6.456 131.626  0.00  0.00    +0.277 C 
ATOM     13  O   LIG A   1      -7.927   6.058 132.160  0.00  0.00    -0.491 OA
ENDBRANCH   1  13
BRANCH   2  14
ATOM     14  O   LIG A   1     -10.268   5.343 133.212  0.00  0.00    -0.503 OA
ATOM     15  H   LIG A   1     -11.206   5.301 133.484  0.00  0.00    +0.292 HD
ENDBRANCH   2  14
TORSDOF 2
ENDMDL
MODEL 9
REMARK VINA RESULT:      -5.4      8.326      9.361
REMARK  Name = NuBBE_393
REMARK  3 active torsions:
REMARK  status: ('A' for Active; 'I' for Inactive)
REMARK    1  A    between atoms: C_1  and  O_2
REMARK    2  A    between atoms: O_2  and  C_3
REMARK    3  A    between atoms: C_4  and  O_5
REMARK                            x       y       z     vdW  Elec       q    Type
REMARK                         _______ _______ _______ _____ _____    ______ ____
ROOT
ATOM      1  C   LIG A   1      -7.944  -0.170 123.348  0.00  0.00    +0.162 A 
ATOM      2  C   LIG A   1      -9.268   0.295 123.309  0.00  0.00    +0.162 A 
ATOM      3  C   LIG A   1      -9.621   1.538 123.814  0.00  0.00    +0.096 A 
ATOM      4  C   LIG A   1      -8.622   2.329 124.368  0.00  0.00    +0.143 A 
ATOM      5  O   LIG A   1      -9.001   3.587 124.877  0.00  0.00    -0.422 OA
ATOM      6  C   LIG A   1      -8.070   4.442 125.448  0.00  0.00    +0.337 A 
ATOM      7  C   LIG A   1      -6.673   3.972 125.495  0.00  0.00    +0.092 A 
ATOM      8  C   LIG A   1      -6.300   2.781 125.016  0.00  0.00    +0.019 A 
ATOM      9  O   LIG A   1      -8.373   5.541 125.899  0.00  0.00    -0.245 OA
ATOM     10  C   LIG A   1      -7.294   1.901 124.423  0.00  0.00    +0.021 A 
ATOM     11  C   LIG A   1      -6.955   0.643 123.909  0.00  0.00    +0.061 A 
ENDROOT
BRANCH   1  13
ATOM     12  C   LIG A   1      -6.425  -1.916 122.795  0.00  0.00    +0.277 C 
ATOM     13  O   LIG A   1      -7.758  -1.417 122.809  0.00  0.00    -0.491 OA
ENDBRANCH   1  13
BRANCH   2  14
ATOM     14  O   LIG A   1     -10.253  -0.484 122.763  0.00  0.00    -0.503 OA
ATOM     15  H   LIG A   1     -10.036  -0.543 121.812  0.00  0.00    +0.292 HD
ENDBRANCH   2  14
TORSDOF 2
ENDMDL
