MODEL 1
REMARK VINA RESULT:      -8.9      0.000      0.000
REMARK  Name = NuBBE_1635
REMARK  11 active torsions:
REMARK  status: ('A' for Active; 'I' for Inactive)
REMARK    1  A    between atoms: C_1  and  C_2
REMARK    2  A    between atoms: C_4  and  C_5
REMARK    3  A    between atoms: C_6  and  C_14
REMARK    4  A    between atoms: C_23  and  C_24
REMARK    5  A    between atoms: C_23  and  C_30
REMARK    6  A    between atoms: C_25  and  C_26
REMARK    7  A    between atoms: C_26  and  O_28
REMARK    8  A    between atoms: O_28  and  C_29
REMARK    9  A    between atoms: C_34  and  O_36
REMARK   10  A    between atoms: C_37  and  C_39
REMARK   11  A    between atoms: C_37  and  C_40
REMARK                            x       y       z     vdW  Elec       q    Type
REMARK                         _______ _______ _______ _____ _____    ______ ____
ROOT
ATOM      1  C   LIG A   1      -6.957   1.166 124.538  0.00  0.00    +0.017 C 
ATOM      2  C   LIG A   1      -7.422   0.925 126.001  0.00  0.00    +0.037 C 
ATOM      3  C   LIG A   1      -7.507   2.328 126.733  0.00  0.00    +0.124 C 
ATOM      4  C   LIG A   1      -6.331   2.905 127.556  0.00  0.00    +0.042 C 
ATOM      5  C   LIG A   1      -6.828   3.636 128.846  0.00  0.00    +0.018 C 
ATOM      6  C   LIG A   1      -5.660   3.938 126.588  0.00  0.00    +0.218 C 
ATOM      7  O   LIG A   1      -6.576   5.038 126.313  0.00  0.00    -0.454 OA
ATOM      8  C   LIG A   1      -7.905   4.816 126.098  0.00  0.00    +0.340 C 
ATOM      9  O   LIG A   1      -8.701   5.725 125.924  0.00  0.00    -0.248 OA
ATOM     10  C   LIG A   1      -8.332   3.402 126.014  0.00  0.00    +0.260 C 
ATOM     11  O   LIG A   1      -8.791   2.758 127.209  0.00  0.00    -0.352 OA
ATOM     12  C   LIG A   1      -5.404   1.795 128.086  0.00  0.00    +0.014 C 
ATOM     13  C   LIG A   1      -5.133   0.685 127.097  0.00  0.00    +0.006 C 
ATOM     14  C   LIG A   1      -6.459  -0.041 126.771  0.00  0.00    +0.014 C 
ATOM     15  C   LIG A   1      -6.248  -1.486 126.132  0.00  0.00    +0.029 C 
ATOM     16  C   LIG A   1      -5.262  -1.422 124.924  0.00  0.00    +0.019 C 
ATOM     17  C   LIG A   1      -7.621  -2.065 125.634  0.00  0.00    +0.167 C 
ATOM     18  C   LIG A   1      -8.882  -1.245 125.780  0.00  0.00    +0.197 C 
ATOM     19  O   LIG A   1      -9.997  -1.774 125.722  0.00  0.00    -0.291 OA
ATOM     20  C   LIG A   1      -8.819   0.255 126.001  0.00  0.00    +0.192 C 
ATOM     21  C   LIG A   1      -7.635  -3.321 124.635  0.00  0.00    +0.102 C 
ATOM     22  O   LIG A   1      -7.905  -3.425 126.026  0.00  0.00    -0.353 OA
ATOM     23  C   LIG A   1      -8.831  -3.562 123.750  0.00  0.00    +0.044 C 
ATOM     24  C   LIG A   1      -6.460  -4.200 124.295  0.00  0.00    +0.044 C 
ENDROOT
BRANCH   6  25
ATOM     25  C   LIG A   1      -4.351   4.499 127.068  0.00  0.00    +0.031 A 
ATOM     26  C   LIG A   1      -4.132   5.704 127.802  0.00  0.00    +0.048 A 
ATOM     27  C   LIG A   1      -2.777   5.798 128.010  0.00  0.00    +0.195 A 
ATOM     28  O   LIG A   1      -2.139   4.743 127.447  0.00  0.00    -0.471 OA
ATOM     29  C   LIG A   1      -3.090   3.969 126.869  0.00  0.00    +0.202 A 
ENDBRANCH   6  25
BRANCH  15  30
ATOM     30  C   LIG A   1      -5.536  -2.334 127.211  0.00  0.00    -0.010 C 
ATOM     31  C   LIG A   1      -5.858  -2.434 128.513  0.00  0.00    +0.088 C 
BRANCH  31  32
ATOM     32  C   LIG A   1      -5.135  -3.367 129.405  0.00  0.00    +0.331 C 
ATOM     33  O   LIG A   1      -3.925  -3.519 129.431  0.00  0.00    -0.246 OA
BRANCH  32  34
ATOM     34  O   LIG A   1      -6.056  -4.029 130.147  0.00  0.00    -0.465 OA
ATOM     35  C   LIG A   1      -7.112  -3.205 130.638  0.00  0.00    +0.280 C 
ENDBRANCH  32  34
ENDBRANCH  31  32
ENDBRANCH  15  30
BRANCH  20  36
ATOM     36  O   LIG A   1      -9.672   0.841 125.008  0.00  0.00    -0.384 OA
ATOM     37  H   LIG A   1     -10.184   1.534 125.473  0.00  0.00    +0.210 HD
ENDBRANCH  20  36
TORSDOF 5
ENDMDL
MODEL 2
REMARK VINA RESULT:      -8.3      2.889      7.428
REMARK  Name = NuBBE_1635
REMARK  11 active torsions:
REMARK  status: ('A' for Active; 'I' for Inactive)
REMARK    1  A    between atoms: C_1  and  C_2
REMARK    2  A    between atoms: C_4  and  C_5
REMARK    3  A    between atoms: C_6  and  C_14
REMARK    4  A    between atoms: C_23  and  C_24
REMARK    5  A    between atoms: C_23  and  C_30
REMARK    6  A    between atoms: C_25  and  C_26
REMARK    7  A    between atoms: C_26  and  O_28
REMARK    8  A    between atoms: O_28  and  C_29
REMARK    9  A    between atoms: C_34  and  O_36
REMARK   10  A    between atoms: C_37  and  C_39
REMARK   11  A    between atoms: C_37  and  C_40
REMARK                            x       y       z     vdW  Elec       q    Type
REMARK                         _______ _______ _______ _____ _____    ______ ____
ROOT
ATOM      1  C   LIG A   1      -5.326   0.858 127.093  0.00  0.00    +0.017 C 
ATOM      2  C   LIG A   1      -6.367   0.011 127.874  0.00  0.00    +0.037 C 
ATOM      3  C   LIG A   1      -6.929  -1.107 126.902  0.00  0.00    +0.124 C 
ATOM      4  C   LIG A   1      -8.215  -0.909 126.066  0.00  0.00    +0.042 C 
ATOM      5  C   LIG A   1      -9.069  -2.216 125.995  0.00  0.00    +0.018 C 
ATOM      6  C   LIG A   1      -7.687  -0.542 124.637  0.00  0.00    +0.218 C 
ATOM      7  O   LIG A   1      -6.968  -1.672 124.062  0.00  0.00    -0.454 OA
ATOM      8  C   LIG A   1      -6.125  -2.434 124.817  0.00  0.00    +0.340 C 
ATOM      9  O   LIG A   1      -5.557  -3.419 124.373  0.00  0.00    -0.248 OA
ATOM     10  C   LIG A   1      -5.871  -1.964 126.197  0.00  0.00    +0.260 C 
ATOM     11  O   LIG A   1      -6.692  -2.480 127.252  0.00  0.00    -0.352 OA
ATOM     12  C   LIG A   1      -9.161   0.123 126.708  0.00  0.00    +0.014 C 
ATOM     13  C   LIG A   1      -8.463   1.335 127.281  0.00  0.00    +0.006 C 
ATOM     14  C   LIG A   1      -7.536   0.889 128.436  0.00  0.00    +0.014 C 
ATOM     15  C   LIG A   1      -7.120   2.082 129.408  0.00  0.00    +0.029 C 
ATOM     16  C   LIG A   1      -6.562   3.293 128.597  0.00  0.00    +0.019 C 
ATOM     17  C   LIG A   1      -6.017   1.599 130.418  0.00  0.00    +0.167 C 
ATOM     18  C   LIG A   1      -5.498   0.182 130.345  0.00  0.00    +0.197 C 
ATOM     19  O   LIG A   1      -4.903  -0.330 131.300  0.00  0.00    -0.291 OA
ATOM     20  C   LIG A   1      -5.687  -0.658 129.095  0.00  0.00    +0.192 C 
ATOM     21  C   LIG A   1      -5.171   2.684 131.246  0.00  0.00    +0.102 C 
ATOM     22  O   LIG A   1      -6.246   1.938 131.803  0.00  0.00    -0.353 OA
ATOM     23  C   LIG A   1      -3.814   2.320 131.790  0.00  0.00    +0.044 C 
ATOM     24  C   LIG A   1      -5.482   4.153 131.362  0.00  0.00    +0.044 C 
ENDROOT
BRANCH   6  25
ATOM     25  C   LIG A   1      -8.743  -0.089 123.668  0.00  0.00    +0.031 A 
ATOM     26  C   LIG A   1      -9.183   1.244 123.415  0.00  0.00    +0.048 A 
ATOM     27  C   LIG A   1     -10.162   1.161 122.453  0.00  0.00    +0.195 A 
ATOM     28  O   LIG A   1     -10.367  -0.132 122.101  0.00  0.00    -0.471 OA
ATOM     29  C   LIG A   1      -9.519  -0.884 122.845  0.00  0.00    +0.202 A 
ENDBRANCH   6  25
BRANCH  15  30
ATOM     30  C   LIG A   1      -8.428   2.582 130.063  0.00  0.00    -0.010 C 
ATOM     31  C   LIG A   1      -8.987   3.799 129.941  0.00  0.00    +0.088 C 
BRANCH  31  32
ATOM     32  C   LIG A   1     -10.299   4.098 130.556  0.00  0.00    +0.331 C 
ATOM     33  O   LIG A   1     -11.383   3.878 130.042  0.00  0.00    -0.246 OA
BRANCH  32  34
ATOM     34  O   LIG A   1     -10.071   4.678 131.760  0.00  0.00    -0.465 OA
ATOM     35  C   LIG A   1     -10.248   6.094 131.768  0.00  0.00    +0.280 C 
ENDBRANCH  32  34
ENDBRANCH  31  32
ENDBRANCH  15  30
BRANCH  20  36
ATOM     36  O   LIG A   1      -4.388  -1.159 128.750  0.00  0.00    -0.384 OA
ATOM     37  H   LIG A   1      -4.546  -1.903 128.132  0.00  0.00    +0.210 HD
ENDBRANCH  20  36
TORSDOF 5
ENDMDL
MODEL 3
REMARK VINA RESULT:      -8.2      2.850      5.773
REMARK  Name = NuBBE_1635
REMARK  11 active torsions:
REMARK  status: ('A' for Active; 'I' for Inactive)
REMARK    1  A    between atoms: C_1  and  C_2
REMARK    2  A    between atoms: C_4  and  C_5
REMARK    3  A    between atoms: C_6  and  C_14
REMARK    4  A    between atoms: C_23  and  C_24
REMARK    5  A    between atoms: C_23  and  C_30
REMARK    6  A    between atoms: C_25  and  C_26
REMARK    7  A    between atoms: C_26  and  O_28
REMARK    8  A    between atoms: O_28  and  C_29
REMARK    9  A    between atoms: C_34  and  O_36
REMARK   10  A    between atoms: C_37  and  C_39
REMARK   11  A    between atoms: C_37  and  C_40
REMARK                            x       y       z     vdW  Elec       q    Type
REMARK                         _______ _______ _______ _____ _____    ______ ____
ROOT
ATOM      1  C   LIG A   1      -7.659   0.347 127.931  0.00  0.00    +0.017 C 
ATOM      2  C   LIG A   1      -6.512   1.080 127.183  0.00  0.00    +0.037 C 
ATOM      3  C   LIG A   1      -5.793   2.052 128.207  0.00  0.00    +0.124 C 
ATOM      4  C   LIG A   1      -6.193   3.539 128.359  0.00  0.00    +0.042 C 
ATOM      5  C   LIG A   1      -4.945   4.456 128.576  0.00  0.00    +0.018 C 
ATOM      6  C   LIG A   1      -7.096   3.561 129.638  0.00  0.00    +0.218 C 
ATOM      7  O   LIG A   1      -6.311   3.203 130.813  0.00  0.00    -0.454 OA
ATOM      8  C   LIG A   1      -5.388   2.199 130.770  0.00  0.00    +0.340 C 
ATOM      9  O   LIG A   1      -4.678   1.921 131.723  0.00  0.00    -0.248 OA
ATOM     10  C   LIG A   1      -5.333   1.409 129.521  0.00  0.00    +0.260 C 
ATOM     11  O   LIG A   1      -4.408   1.809 128.502  0.00  0.00    -0.352 OA
ATOM     12  C   LIG A   1      -6.845   4.089 127.077  0.00  0.00    +0.014 C 
ATOM     13  C   LIG A   1      -7.808   3.133 126.409  0.00  0.00    +0.006 C 
ATOM     14  C   LIG A   1      -7.036   1.878 125.942  0.00  0.00    +0.014 C 
ATOM     15  C   LIG A   1      -7.814   1.034 124.836  0.00  0.00    +0.029 C 
ATOM     16  C   LIG A   1      -9.274   0.729 125.292  0.00  0.00    +0.019 C 
ATOM     17  C   LIG A   1      -7.073  -0.327 124.571  0.00  0.00    +0.167 C 
ATOM     18  C   LIG A   1      -5.823  -0.668 125.350  0.00  0.00    +0.197 C 
ATOM     19  O   LIG A   1      -5.040  -1.536 124.950  0.00  0.00    -0.291 OA
ATOM     20  C   LIG A   1      -5.491   0.044 126.648  0.00  0.00    +0.192 C 
ATOM     21  C   LIG A   1      -7.834  -1.505 123.790  0.00  0.00    +0.102 C 
ATOM     22  O   LIG A   1      -6.861  -0.664 123.184  0.00  0.00    -0.353 OA
ATOM     23  C   LIG A   1      -7.394  -2.934 123.974  0.00  0.00    +0.044 C 
ATOM     24  C   LIG A   1      -9.131  -1.377 123.035  0.00  0.00    +0.044 C 
ENDROOT
BRANCH   6  25
ATOM     25  C   LIG A   1      -7.797   4.865 129.897  0.00  0.00    +0.031 A 
ATOM     26  C   LIG A   1      -7.443   5.878 130.838  0.00  0.00    +0.048 A 
ATOM     27  C   LIG A   1      -8.377   6.878 130.712  0.00  0.00    +0.195 A 
ATOM     28  O   LIG A   1      -9.292   6.552 129.767  0.00  0.00    -0.471 OA
ATOM     29  C   LIG A   1      -8.947   5.332 129.287  0.00  0.00    +0.202 A 
ENDBRANCH   6  25
BRANCH  15  30
ATOM     30  C   LIG A   1      -7.942   1.955 123.601  0.00  0.00    -0.010 C 
ATOM     31  C   LIG A   1      -6.967   2.673 123.014  0.00  0.00    +0.088 C 
BRANCH  31  32
ATOM     32  C   LIG A   1      -7.228   3.437 121.775  0.00  0.00    +0.331 C 
ATOM     33  O   LIG A   1      -6.373   3.954 121.075  0.00  0.00    -0.246 OA
BRANCH  32  34
ATOM     34  O   LIG A   1      -8.570   3.479 121.588  0.00  0.00    -0.465 OA
ATOM     35  C   LIG A   1      -8.964   3.867 120.272  0.00  0.00    +0.280 C 
ENDBRANCH  32  34
ENDBRANCH  31  32
ENDBRANCH  15  30
BRANCH  20  36
ATOM     36  O   LIG A   1      -5.247  -0.986 127.616  0.00  0.00    -0.384 OA
ATOM     37  H   LIG A   1      -4.831  -0.537 128.382  0.00  0.00    +0.210 HD
ENDBRANCH  20  36
TORSDOF 5
ENDMDL
MODEL 4
REMARK VINA RESULT:      -8.2      2.770      5.118
REMARK  Name = NuBBE_1635
REMARK  11 active torsions:
REMARK  status: ('A' for Active; 'I' for Inactive)
REMARK    1  A    between atoms: C_1  and  C_2
REMARK    2  A    between atoms: C_4  and  C_5
REMARK    3  A    between atoms: C_6  and  C_14
REMARK    4  A    between atoms: C_23  and  C_24
REMARK    5  A    between atoms: C_23  and  C_30
REMARK    6  A    between atoms: C_25  and  C_26
REMARK    7  A    between atoms: C_26  and  O_28
REMARK    8  A    between atoms: O_28  and  C_29
REMARK    9  A    between atoms: C_34  and  O_36
REMARK   10  A    between atoms: C_37  and  C_39
REMARK   11  A    between atoms: C_37  and  C_40
REMARK                            x       y       z     vdW  Elec       q    Type
REMARK                         _______ _______ _______ _____ _____    ______ ____
ROOT
ATOM      1  C   LIG A   1      -5.753   2.791 127.729  0.00  0.00    +0.017 C 
ATOM      2  C   LIG A   1      -7.296   2.773 127.904  0.00  0.00    +0.037 C 
ATOM      3  C   LIG A   1      -7.640   3.358 129.337  0.00  0.00    +0.124 C 
ATOM      4  C   LIG A   1      -7.825   2.453 130.578  0.00  0.00    +0.042 C 
ATOM      5  C   LIG A   1      -8.984   2.959 131.497  0.00  0.00    +0.018 C 
ATOM      6  C   LIG A   1      -6.459   2.566 131.337  0.00  0.00    +0.218 C 
ATOM      7  O   LIG A   1      -6.263   3.927 131.820  0.00  0.00    -0.454 OA
ATOM      8  C   LIG A   1      -6.593   5.005 131.052  0.00  0.00    +0.340 C 
ATOM      9  O   LIG A   1      -6.492   6.153 131.457  0.00  0.00    -0.248 OA
ATOM     10  C   LIG A   1      -7.017   4.720 129.664  0.00  0.00    +0.260 C 
ATOM     11  O   LIG A   1      -8.417   4.564 129.399  0.00  0.00    -0.352 OA
ATOM     12  C   LIG A   1      -8.251   1.026 130.187  0.00  0.00    +0.014 C 
ATOM     13  C   LIG A   1      -7.536   0.473 128.975  0.00  0.00    +0.006 C 
ATOM     14  C   LIG A   1      -7.889   1.334 127.740  0.00  0.00    +0.014 C 
ATOM     15  C   LIG A   1      -7.595   0.601 126.355  0.00  0.00    +0.029 C 
ATOM     16  C   LIG A   1      -6.142   0.036 126.321  0.00  0.00    +0.019 C 
ATOM     17  C   LIG A   1      -7.774   1.607 125.161  0.00  0.00    +0.167 C 
ATOM     18  C   LIG A   1      -8.148   3.045 125.437  0.00  0.00    +0.197 C 
ATOM     19  O   LIG A   1      -8.621   3.763 124.549  0.00  0.00    -0.291 OA
ATOM     20  C   LIG A   1      -7.955   3.654 126.813  0.00  0.00    +0.192 C 
ATOM     21  C   LIG A   1      -7.188   1.232 123.714  0.00  0.00    +0.102 C 
ATOM     22  O   LIG A   1      -8.564   1.127 124.052  0.00  0.00    -0.353 OA
ATOM     23  C   LIG A   1      -6.871   2.326 122.727  0.00  0.00    +0.044 C 
ATOM     24  C   LIG A   1      -6.684  -0.120 123.283  0.00  0.00    +0.044 C 
ENDROOT
BRANCH   6  25
ATOM     25  C   LIG A   1      -6.292   1.610 132.485  0.00  0.00    +0.031 A 
ATOM     26  C   LIG A   1      -5.723   0.301 132.458  0.00  0.00    +0.048 A 
ATOM     27  C   LIG A   1      -5.789  -0.184 133.742  0.00  0.00    +0.195 A 
ATOM     28  O   LIG A   1      -6.369   0.727 134.561  0.00  0.00    -0.471 OA
ATOM     29  C   LIG A   1      -6.683   1.802 133.797  0.00  0.00    +0.202 A 
ENDBRANCH   6  25
BRANCH  15  30
ATOM     30  C   LIG A   1      -8.527  -0.632 126.313  0.00  0.00    -0.010 C 
ATOM     31  C   LIG A   1      -8.173  -1.915 126.115  0.00  0.00    +0.088 C 
BRANCH  31  32
ATOM     32  C   LIG A   1      -9.174  -3.000 126.197  0.00  0.00    +0.331 C 
ATOM     33  O   LIG A   1      -9.282  -3.789 127.121  0.00  0.00    -0.246 OA
BRANCH  32  34
ATOM     34  O   LIG A   1      -9.911  -2.972 125.059  0.00  0.00    -0.465 OA
ATOM     35  C   LIG A   1      -9.169  -3.268 123.877  0.00  0.00    +0.280 C 
ENDBRANCH  32  34
ENDBRANCH  31  32
ENDBRANCH  15  30
BRANCH  20  36
ATOM     36  O   LIG A   1      -7.215   4.866 126.613  0.00  0.00    -0.384 OA
ATOM     37  H   LIG A   1      -7.243   5.038 125.648  0.00  0.00    +0.210 HD
ENDBRANCH  20  36
TORSDOF 5
ENDMDL
MODEL 5
REMARK VINA RESULT:      -8.1      3.127      7.384
REMARK  Name = NuBBE_1635
REMARK  11 active torsions:
REMARK  status: ('A' for Active; 'I' for Inactive)
REMARK    1  A    between atoms: C_1  and  C_2
REMARK    2  A    between atoms: C_4  and  C_5
REMARK    3  A    between atoms: C_6  and  C_14
REMARK    4  A    between atoms: C_23  and  C_24
REMARK    5  A    between atoms: C_23  and  C_30
REMARK    6  A    between atoms: C_25  and  C_26
REMARK    7  A    between atoms: C_26  and  O_28
REMARK    8  A    between atoms: O_28  and  C_29
REMARK    9  A    between atoms: C_34  and  O_36
REMARK   10  A    between atoms: C_37  and  C_39
REMARK   11  A    between atoms: C_37  and  C_40
REMARK                            x       y       z     vdW  Elec       q    Type
REMARK                         _______ _______ _______ _____ _____    ______ ____
ROOT
ATOM      1  C   LIG A   1      -6.080   1.825 128.615  0.00  0.00    +0.017 C 
ATOM      2  C   LIG A   1      -7.596   2.036 128.352  0.00  0.00    +0.037 C 
ATOM      3  C   LIG A   1      -7.927   1.498 126.898  0.00  0.00    +0.124 C 
ATOM      4  C   LIG A   1      -7.925   2.418 125.654  0.00  0.00    +0.042 C 
ATOM      5  C   LIG A   1      -9.083   2.062 124.667  0.00  0.00    +0.018 C 
ATOM      6  C   LIG A   1      -6.543   2.134 124.974  0.00  0.00    +0.218 C 
ATOM      7  O   LIG A   1      -6.492   0.759 124.495  0.00  0.00    -0.454 OA
ATOM      8  C   LIG A   1      -6.999  -0.269 125.236  0.00  0.00    +0.340 C 
ATOM      9  O   LIG A   1      -7.020  -1.420 124.830  0.00  0.00    -0.248 OA
ATOM     10  C   LIG A   1      -7.463   0.068 126.599  0.00  0.00    +0.260 C 
ATOM     11  O   LIG A   1      -8.846   0.400 126.784  0.00  0.00    -0.352 OA
ATOM     12  C   LIG A   1      -8.190   3.888 126.029  0.00  0.00    +0.014 C 
ATOM     13  C   LIG A   1      -7.482   4.348 127.284  0.00  0.00    +0.006 C 
ATOM     14  C   LIG A   1      -8.012   3.539 128.491  0.00  0.00    +0.014 C 
ATOM     15  C   LIG A   1      -7.709   4.230 129.895  0.00  0.00    +0.029 C 
ATOM     16  C   LIG A   1      -6.200   4.608 130.016  0.00  0.00    +0.019 C 
ATOM     17  C   LIG A   1      -8.081   3.256 131.070  0.00  0.00    +0.167 C 
ATOM     18  C   LIG A   1      -8.617   1.876 130.764  0.00  0.00    +0.197 C 
ATOM     19  O   LIG A   1      -9.226   1.224 131.619  0.00  0.00    -0.291 OA
ATOM     20  C   LIG A   1      -8.423   1.247 129.397  0.00  0.00    +0.192 C 
ATOM     21  C   LIG A   1      -7.537   3.555 132.551  0.00  0.00    +0.102 C 
ATOM     22  O   LIG A   1      -8.868   3.832 132.135  0.00  0.00    -0.353 OA
ATOM     23  C   LIG A   1      -7.418   2.431 133.547  0.00  0.00    +0.044 C 
ATOM     24  C   LIG A   1      -6.893   4.834 133.019  0.00  0.00    +0.044 C 
ENDROOT
BRANCH   6  25
ATOM     25  C   LIG A   1      -6.190   3.060 123.844  0.00  0.00    +0.031 A 
ATOM     26  C   LIG A   1      -6.497   2.906 122.458  0.00  0.00    +0.048 A 
ATOM     27  C   LIG A   1      -5.970   3.999 121.814  0.00  0.00    +0.195 A 
ATOM     28  O   LIG A   1      -5.348   4.814 122.700  0.00  0.00    -0.471 OA
ATOM     29  C   LIG A   1      -5.471   4.238 123.921  0.00  0.00    +0.202 A 
ENDBRANCH   6  25
BRANCH  15  30
ATOM     30  C   LIG A   1      -8.479   5.571 129.892  0.00  0.00    -0.010 C 
ATOM     31  C   LIG A   1      -9.776   5.765 129.593  0.00  0.00    +0.088 C 
BRANCH  31  32
ATOM     32  C   LIG A   1     -10.395   7.102 129.729  0.00  0.00    +0.331 C 
ATOM     33  O   LIG A   1     -11.289   7.387 130.507  0.00  0.00    -0.246 OA
BRANCH  32  34
ATOM     34  O   LIG A   1      -9.813   7.922 128.820  0.00  0.00    -0.465 OA
ATOM     35  C   LIG A   1     -10.684   8.343 127.771  0.00  0.00    +0.280 C 
ENDBRANCH  32  34
ENDBRANCH  31  32
ENDBRANCH  15  30
BRANCH  20  36
ATOM     36  O   LIG A   1      -7.854  -0.049 129.632  0.00  0.00    -0.384 OA
ATOM     37  H   LIG A   1      -7.015  -0.067 129.125  0.00  0.00    +0.210 HD
ENDBRANCH  20  36
TORSDOF 5
ENDMDL
MODEL 6
REMARK VINA RESULT:      -8.0      3.038      6.891
REMARK  Name = NuBBE_1635
REMARK  11 active torsions:
REMARK  status: ('A' for Active; 'I' for Inactive)
REMARK    1  A    between atoms: C_1  and  C_2
REMARK    2  A    between atoms: C_4  and  C_5
REMARK    3  A    between atoms: C_6  and  C_14
REMARK    4  A    between atoms: C_23  and  C_24
REMARK    5  A    between atoms: C_23  and  C_30
REMARK    6  A    between atoms: C_25  and  C_26
REMARK    7  A    between atoms: C_26  and  O_28
REMARK    8  A    between atoms: O_28  and  C_29
REMARK    9  A    between atoms: C_34  and  O_36
REMARK   10  A    between atoms: C_37  and  C_39
REMARK   11  A    between atoms: C_37  and  C_40
REMARK                            x       y       z     vdW  Elec       q    Type
REMARK                         _______ _______ _______ _____ _____    ______ ____
ROOT
ATOM      1  C   LIG A   1      -5.519  -0.220 128.732  0.00  0.00    +0.017 C 
ATOM      2  C   LIG A   1      -7.024  -0.590 128.644  0.00  0.00    +0.037 C 
ATOM      3  C   LIG A   1      -7.335  -1.061 127.164  0.00  0.00    +0.124 C 
ATOM      4  C   LIG A   1      -7.854  -0.090 126.077  0.00  0.00    +0.042 C 
ATOM      5  C   LIG A   1      -8.924  -0.766 125.158  0.00  0.00    +0.018 C 
ATOM      6  C   LIG A   1      -6.579   0.258 125.237  0.00  0.00    +0.218 C 
ATOM      7  O   LIG A   1      -6.087  -0.931 124.554  0.00  0.00    -0.454 OA
ATOM      8  C   LIG A   1      -6.061  -2.146 125.176  0.00  0.00    +0.340 C 
ATOM      9  O   LIG A   1      -5.709  -3.166 124.605  0.00  0.00    -0.248 OA
ATOM     10  C   LIG A   1      -6.418  -2.158 126.611  0.00  0.00    +0.260 C 
ATOM     11  O   LIG A   1      -7.782  -2.412 126.970  0.00  0.00    -0.352 OA
ATOM     12  C   LIG A   1      -8.593   1.114 126.691  0.00  0.00    +0.014 C 
ATOM     13  C   LIG A   1      -7.937   1.680 127.930  0.00  0.00    +0.006 C 
ATOM     14  C   LIG A   1      -7.948   0.609 129.046  0.00  0.00    +0.014 C 
ATOM     15  C   LIG A   1      -7.727   1.215 130.504  0.00  0.00    +0.029 C 
ATOM     16  C   LIG A   1      -6.468   2.136 130.540  0.00  0.00    +0.019 C 
ATOM     17  C   LIG A   1      -7.536   0.057 131.549  0.00  0.00    +0.167 C 
ATOM     18  C   LIG A   1      -7.556  -1.383 131.089  0.00  0.00    +0.197 C 
ATOM     19  O   LIG A   1      -7.748  -2.305 131.889  0.00  0.00    -0.291 OA
ATOM     20  C   LIG A   1      -7.338  -1.742 129.632  0.00  0.00    +0.192 C 
ATOM     21  C   LIG A   1      -6.938   0.390 133.001  0.00  0.00    +0.102 C 
ATOM     22  O   LIG A   1      -8.320   0.168 132.756  0.00  0.00    -0.353 OA
ATOM     23  C   LIG A   1      -6.266  -0.695 133.801  0.00  0.00    +0.044 C 
ATOM     24  C   LIG A   1      -6.758   1.762 133.594  0.00  0.00    +0.044 C 
ENDROOT
BRANCH   6  25
ATOM     25  C   LIG A   1      -6.764   1.360 124.231  0.00  0.00    +0.031 A 
ATOM     26  C   LIG A   1      -6.361   2.724 124.344  0.00  0.00    +0.048 A 
ATOM     27  C   LIG A   1      -6.745   3.346 123.180  0.00  0.00    +0.195 A 
ATOM     28  O   LIG A   1      -7.367   2.466 122.358  0.00  0.00    -0.471 OA
ATOM     29  C   LIG A   1      -7.389   1.273 123.001  0.00  0.00    +0.202 A 
ENDBRANCH   6  25
BRANCH  15  30
ATOM     30  C   LIG A   1      -8.934   2.142 130.773  0.00  0.00    -0.010 C 
ATOM     31  C   LIG A   1      -8.940   3.487 130.794  0.00  0.00    +0.088 C 
BRANCH  31  32
ATOM     32  C   LIG A   1     -10.202   4.239 130.974  0.00  0.00    +0.331 C 
ATOM     33  O   LIG A   1     -11.194   4.123 130.275  0.00  0.00    -0.246 OA
BRANCH  32  34
ATOM     34  O   LIG A   1     -10.035   5.085 132.019  0.00  0.00    -0.465 OA
ATOM     35  C   LIG A   1     -10.850   6.255 131.959  0.00  0.00    +0.280 C 
ENDBRANCH  32  34
ENDBRANCH  31  32
ENDBRANCH  15  30
BRANCH  20  36
ATOM     36  O   LIG A   1      -6.298  -2.731 129.615  0.00  0.00    -0.384 OA
ATOM     37  H   LIG A   1      -6.165  -2.961 128.672  0.00  0.00    +0.210 HD
ENDBRANCH  20  36
TORSDOF 5
ENDMDL
MODEL 7
REMARK VINA RESULT:      -8.0      2.779      5.451
REMARK  Name = NuBBE_1635
REMARK  11 active torsions:
REMARK  status: ('A' for Active; 'I' for Inactive)
REMARK    1  A    between atoms: C_1  and  C_2
REMARK    2  A    between atoms: C_4  and  C_5
REMARK    3  A    between atoms: C_6  and  C_14
REMARK    4  A    between atoms: C_23  and  C_24
REMARK    5  A    between atoms: C_23  and  C_30
REMARK    6  A    between atoms: C_25  and  C_26
REMARK    7  A    between atoms: C_26  and  O_28
REMARK    8  A    between atoms: O_28  and  C_29
REMARK    9  A    between atoms: C_34  and  O_36
REMARK   10  A    between atoms: C_37  and  C_39
REMARK   11  A    between atoms: C_37  and  C_40
REMARK                            x       y       z     vdW  Elec       q    Type
REMARK                         _______ _______ _______ _____ _____    ______ ____
ROOT
ATOM      1  C   LIG A   1      -6.041  -1.695 126.749  0.00  0.00    +0.017 C 
ATOM      2  C   LIG A   1      -7.471  -1.213 127.116  0.00  0.00    +0.037 C 
ATOM      3  C   LIG A   1      -8.183  -0.716 125.791  0.00  0.00    +0.124 C 
ATOM      4  C   LIG A   1      -8.162   0.764 125.344  0.00  0.00    +0.042 C 
ATOM      5  C   LIG A   1      -9.529   1.205 124.727  0.00  0.00    +0.018 C 
ATOM      6  C   LIG A   1      -7.045   0.815 124.247  0.00  0.00    +0.218 C 
ATOM      7  O   LIG A   1      -7.440   0.020 123.091  0.00  0.00    -0.454 OA
ATOM      8  C   LIG A   1      -8.058  -1.187 123.239  0.00  0.00    +0.340 C 
ATOM      9  O   LIG A   1      -8.450  -1.843 122.286  0.00  0.00    -0.248 OA
ATOM     10  C   LIG A   1      -8.169  -1.706 124.620  0.00  0.00    +0.260 C 
ATOM     11  O   LIG A   1      -9.361  -1.417 125.360  0.00  0.00    -0.352 OA
ATOM     12  C   LIG A   1      -7.963   1.719 126.537  0.00  0.00    +0.014 C 
ATOM     13  C   LIG A   1      -6.950   1.243 127.553  0.00  0.00    +0.006 C 
ATOM     14  C   LIG A   1      -7.449  -0.074 128.190  0.00  0.00    +0.014 C 
ATOM     15  C   LIG A   1      -6.733  -0.418 129.572  0.00  0.00    +0.029 C 
ATOM     16  C   LIG A   1      -5.181  -0.349 129.427  0.00  0.00    +0.019 C 
ATOM     17  C   LIG A   1      -7.132  -1.862 130.045  0.00  0.00    +0.167 C 
ATOM     18  C   LIG A   1      -8.054  -2.705 129.195  0.00  0.00    +0.197 C 
ATOM     19  O   LIG A   1      -8.651  -3.677 129.672  0.00  0.00    -0.291 OA
ATOM     20  C   LIG A   1      -8.276  -2.387 127.729  0.00  0.00    +0.192 C 
ATOM     21  C   LIG A   1      -6.275  -2.585 131.195  0.00  0.00    +0.102 C 
ATOM     22  O   LIG A   1      -7.539  -1.978 131.426  0.00  0.00    -0.353 OA
ATOM     23  C   LIG A   1      -6.278  -4.088 131.299  0.00  0.00    +0.044 C 
ATOM     24  C   LIG A   1      -5.247  -1.931 132.080  0.00  0.00    +0.044 C 
ENDROOT
BRANCH   6  25
ATOM     25  C   LIG A   1      -6.669   2.196 123.787  0.00  0.00    +0.031 A 
ATOM     26  C   LIG A   1      -5.914   3.178 124.495  0.00  0.00    +0.048 A 
ATOM     27  C   LIG A   1      -5.831   4.278 123.675  0.00  0.00    +0.195 A 
ATOM     28  O   LIG A   1      -6.492   4.051 122.514  0.00  0.00    -0.471 OA
ATOM     29  C   LIG A   1      -7.008   2.800 122.591  0.00  0.00    +0.202 A 
ENDBRANCH   6  25
BRANCH  15  30
ATOM     30  C   LIG A   1      -7.115   0.716 130.550  0.00  0.00    -0.010 C 
ATOM     31  C   LIG A   1      -8.350   1.172 130.828  0.00  0.00    +0.088 C 
BRANCH  31  32
ATOM     32  C   LIG A   1      -8.562   2.206 131.865  0.00  0.00    +0.331 C 
ATOM     33  O   LIG A   1      -8.549   2.007 133.068  0.00  0.00    -0.246 OA
BRANCH  32  34
ATOM     34  O   LIG A   1      -8.801   3.382 131.235  0.00  0.00    -0.465 OA
ATOM     35  C   LIG A   1     -10.011   3.404 130.480  0.00  0.00    +0.280 C 
ENDBRANCH  32  34
ENDBRANCH  31  32
ENDBRANCH  15  30
BRANCH  20  36
ATOM     36  O   LIG A   1      -8.032  -3.607 127.014  0.00  0.00    -0.384 OA
ATOM     37  H   LIG A   1      -8.717  -4.237 127.323  0.00  0.00    +0.210 HD
ENDBRANCH  20  36
TORSDOF 5
ENDMDL
MODEL 8
REMARK VINA RESULT:      -7.9      2.517      6.768
REMARK  Name = NuBBE_1635
REMARK  11 active torsions:
REMARK  status: ('A' for Active; 'I' for Inactive)
REMARK    1  A    between atoms: C_1  and  C_2
REMARK    2  A    between atoms: C_4  and  C_5
REMARK    3  A    between atoms: C_6  and  C_14
REMARK    4  A    between atoms: C_23  and  C_24
REMARK    5  A    between atoms: C_23  and  C_30
REMARK    6  A    between atoms: C_25  and  C_26
REMARK    7  A    between atoms: C_26  and  O_28
REMARK    8  A    between atoms: O_28  and  C_29
REMARK    9  A    between atoms: C_34  and  O_36
REMARK   10  A    between atoms: C_37  and  C_39
REMARK   11  A    between atoms: C_37  and  C_40
REMARK                            x       y       z     vdW  Elec       q    Type
REMARK                         _______ _______ _______ _____ _____    ______ ____
ROOT
ATOM      1  C   LIG A   1      -5.369   1.757 128.794  0.00  0.00    +0.017 C 
ATOM      2  C   LIG A   1      -6.901   1.648 129.023  0.00  0.00    +0.037 C 
ATOM      3  C   LIG A   1      -7.146   1.000 130.448  0.00  0.00    +0.124 C 
ATOM      4  C   LIG A   1      -7.347  -0.522 130.643  0.00  0.00    +0.042 C 
ATOM      5  C   LIG A   1      -8.430  -0.831 131.728  0.00  0.00    +0.018 C 
ATOM      6  C   LIG A   1      -5.949  -1.032 131.130  0.00  0.00    +0.218 C 
ATOM      7  O   LIG A   1      -5.636  -0.467 132.437  0.00  0.00    -0.454 OA
ATOM      8  C   LIG A   1      -5.916   0.836 132.732  0.00  0.00    +0.340 C 
ATOM      9  O   LIG A   1      -5.717   1.314 133.837  0.00  0.00    -0.248 OA
ATOM     10  C   LIG A   1      -6.414   1.671 131.616  0.00  0.00    +0.260 C 
ATOM     11  O   LIG A   1      -7.831   1.788 131.435  0.00  0.00    -0.352 OA
ATOM     12  C   LIG A   1      -7.890  -1.195 129.368  0.00  0.00    +0.014 C 
ATOM     13  C   LIG A   1      -7.265  -0.694 128.086  0.00  0.00    +0.006 C 
ATOM     14  C   LIG A   1      -7.603   0.804 127.906  0.00  0.00    +0.014 C 
ATOM     15  C   LIG A   1      -7.418   1.319 126.409  0.00  0.00    +0.029 C 
ATOM     16  C   LIG A   1      -6.011   0.930 125.857  0.00  0.00    +0.019 C 
ATOM     17  C   LIG A   1      -7.569   2.882 126.350  0.00  0.00    +0.167 C 
ATOM     18  C   LIG A   1      -7.828   3.662 127.618  0.00  0.00    +0.197 C 
ATOM     19  O   LIG A   1      -8.281   4.811 127.579  0.00  0.00    -0.291 OA
ATOM     20  C   LIG A   1      -7.537   3.060 128.980  0.00  0.00    +0.192 C 
ATOM     21  C   LIG A   1      -7.069   3.678 125.049  0.00  0.00    +0.102 C 
ATOM     22  O   LIG A   1      -8.435   3.387 125.311  0.00  0.00    -0.353 OA
ATOM     23  C   LIG A   1      -6.712   5.138 125.155  0.00  0.00    +0.044 C 
ATOM     24  C   LIG A   1      -6.681   3.067 123.728  0.00  0.00    +0.044 C 
ENDROOT
BRANCH   6  25
ATOM     25  C   LIG A   1      -5.806  -2.526 131.196  0.00  0.00    +0.031 A 
ATOM     26  C   LIG A   1      -5.502  -3.424 130.129  0.00  0.00    +0.048 A 
ATOM     27  C   LIG A   1      -5.480  -4.687 130.670  0.00  0.00    +0.195 A 
ATOM     28  O   LIG A   1      -5.759  -4.637 131.995  0.00  0.00    -0.471 OA
ATOM     29  C   LIG A   1      -5.968  -3.334 132.306  0.00  0.00    +0.202 A 
ENDBRANCH   6  25
BRANCH  15  30
ATOM     30  C   LIG A   1      -8.437   0.533 125.553  0.00  0.00    -0.010 C 
ATOM     31  C   LIG A   1      -8.182  -0.214 124.463  0.00  0.00    +0.088 C 
BRANCH  31  32
ATOM     32  C   LIG A   1      -9.257  -0.987 123.804  0.00  0.00    +0.331 C 
ATOM     33  O   LIG A   1      -9.883  -0.625 122.822  0.00  0.00    -0.246 OA
BRANCH  32  34
ATOM     34  O   LIG A   1      -9.431  -2.135 124.504  0.00  0.00    -0.465 OA
ATOM     35  C   LIG A   1      -9.425  -3.315 123.701  0.00  0.00    +0.280 C 
ENDBRANCH  32  34
ENDBRANCH  31  32
ENDBRANCH  15  30
BRANCH  20  36
ATOM     36  O   LIG A   1      -6.719   4.015 129.672  0.00  0.00    -0.384 OA
ATOM     37  H   LIG A   1      -6.275   3.514 130.388  0.00  0.00    +0.210 HD
ENDBRANCH  20  36
TORSDOF 5
ENDMDL
MODEL 9
REMARK VINA RESULT:      -7.9      3.861      9.101
REMARK  Name = NuBBE_1635
REMARK  11 active torsions:
REMARK  status: ('A' for Active; 'I' for Inactive)
REMARK    1  A    between atoms: C_1  and  C_2
REMARK    2  A    between atoms: C_4  and  C_5
REMARK    3  A    between atoms: C_6  and  C_14
REMARK    4  A    between atoms: C_23  and  C_24
REMARK    5  A    between atoms: C_23  and  C_30
REMARK    6  A    between atoms: C_25  and  C_26
REMARK    7  A    between atoms: C_26  and  O_28
REMARK    8  A    between atoms: O_28  and  C_29
REMARK    9  A    between atoms: C_34  and  O_36
REMARK   10  A    between atoms: C_37  and  C_39
REMARK   11  A    between atoms: C_37  and  C_40
REMARK                            x       y       z     vdW  Elec       q    Type
REMARK                         _______ _______ _______ _____ _____    ______ ____
ROOT
ATOM      1  C   LIG A   1      -4.795   1.712 130.505  0.00  0.00    +0.017 C 
ATOM      2  C   LIG A   1      -5.801   1.444 131.658  0.00  0.00    +0.037 C 
ATOM      3  C   LIG A   1      -5.979  -0.124 131.807  0.00  0.00    +0.124 C 
ATOM      4  C   LIG A   1      -7.108  -0.901 131.090  0.00  0.00    +0.042 C 
ATOM      5  C   LIG A   1      -7.700  -2.031 131.994  0.00  0.00    +0.018 C 
ATOM      6  C   LIG A   1      -6.402  -1.536 129.844  0.00  0.00    +0.218 C 
ATOM      7  O   LIG A   1      -5.409  -2.513 130.273  0.00  0.00    -0.454 OA
ATOM      8  C   LIG A   1      -4.598  -2.276 131.345  0.00  0.00    +0.340 C 
ATOM      9  O   LIG A   1      -3.801  -3.103 131.758  0.00  0.00    -0.248 OA
ATOM     10  C   LIG A   1      -4.681  -0.928 131.948  0.00  0.00    +0.260 C 
ATOM     11  O   LIG A   1      -5.580  -0.729 133.047  0.00  0.00    -0.352 OA
ATOM     12  C   LIG A   1      -8.316   0.002 130.778  0.00  0.00    +0.014 C 
ATOM     13  C   LIG A   1      -7.949   1.384 130.287  0.00  0.00    +0.006 C 
ATOM     14  C   LIG A   1      -7.184   2.133 131.403  0.00  0.00    +0.014 C 
ATOM     15  C   LIG A   1      -7.159   3.714 131.200  0.00  0.00    +0.029 C 
ATOM     16  C   LIG A   1      -6.678   4.084 129.762  0.00  0.00    +0.019 C 
ATOM     17  C   LIG A   1      -6.191   4.380 132.243  0.00  0.00    +0.167 C 
ATOM     18  C   LIG A   1      -5.433   3.517 133.225  0.00  0.00    +0.197 C 
ATOM     19  O   LIG A   1      -4.943   3.999 134.252  0.00  0.00    -0.291 OA
ATOM     20  C   LIG A   1      -5.249   2.031 132.981  0.00  0.00    +0.192 C 
ATOM     21  C   LIG A   1      -5.705   5.894 132.020  0.00  0.00    +0.102 C 
ATOM     22  O   LIG A   1      -6.720   5.526 132.945  0.00  0.00    -0.353 OA
ATOM     23  C   LIG A   1      -4.427   6.373 132.657  0.00  0.00    +0.044 C 
ATOM     24  C   LIG A   1      -6.277   6.874 131.029  0.00  0.00    +0.044 C 
ENDROOT
BRANCH   6  25
ATOM     25  C   LIG A   1      -7.327  -2.181 128.851  0.00  0.00    +0.031 A 
ATOM     26  C   LIG A   1      -7.959  -3.457 128.944  0.00  0.00    +0.048 A 
ATOM     27  C   LIG A   1      -8.705  -3.612 127.800  0.00  0.00    +0.195 A 
ATOM     28  O   LIG A   1      -8.571  -2.527 126.999  0.00  0.00    -0.471 OA
ATOM     29  C   LIG A   1      -7.728  -1.672 127.630  0.00  0.00    +0.202 A 
ENDBRANCH   6  25
BRANCH  15  30
ATOM     30  C   LIG A   1      -8.630   4.183 131.285  0.00  0.00    -0.010 C 
ATOM     31  C   LIG A   1      -9.318   4.877 130.360  0.00  0.00    +0.088 C 
BRANCH  31  32
ATOM     32  C   LIG A   1     -10.756   5.171 130.547  0.00  0.00    +0.331 C 
ATOM     33  O   LIG A   1     -11.666   4.667 129.910  0.00  0.00    -0.246 OA
BRANCH  32  34
ATOM     34  O   LIG A   1     -10.865   6.111 131.518  0.00  0.00    -0.465 OA
ATOM     35  C   LIG A   1     -12.112   6.805 131.522  0.00  0.00    +0.280 C 
ENDBRANCH  32  34
ENDBRANCH  31  32
ENDBRANCH  15  30
BRANCH  20  36
ATOM     36  O   LIG A   1      -3.842   1.777 133.109  0.00  0.00    -0.384 OA
ATOM     37  H   LIG A   1      -3.768   0.866 133.464  0.00  0.00    +0.210 HD
ENDBRANCH  20  36
TORSDOF 5
ENDMDL
