MODEL 1
REMARK VINA RESULT:      -8.0      0.000      0.000
REMARK  Name = NuBBE_835
REMARK  12 active torsions:
REMARK  status: ('A' for Active; 'I' for Inactive)
REMARK    1  A    between atoms: C_4  and  C_31
REMARK    2  A    between atoms: C_9  and  C_10
REMARK    3  A    between atoms: C_11  and  C_12
REMARK    4  A    between atoms: C_12  and  C_14
REMARK    5  A    between atoms: C_12  and  C_15
REMARK    6  A    between atoms: C_15  and  C_16
REMARK    7  A    between atoms: C_21  and  C_22
REMARK    8  A    between atoms: C_22  and  C_23
REMARK    9  A    between atoms: C_23  and  C_25
REMARK   10  A    between atoms: C_23  and  C_26
REMARK   11  A    between atoms: C_26  and  O_28
REMARK   12  A    between atoms: C_26  and  C_29
REMARK                            x       y       z     vdW  Elec       q    Type
REMARK                         _______ _______ _______ _____ _____    ______ ____
ROOT
ATOM      1  O   LIG A   1      -1.458   3.891 132.609  0.00  0.00    -0.245 OA
ATOM      2  C   LIG A   1      -2.527   4.432 132.770  0.00  0.00    +0.344 C 
ATOM      3  O   LIG A   1      -3.003   4.814 133.995  0.00  0.00    -0.442 OA
ATOM      4  C   LIG A   1      -4.213   5.529 133.827  0.00  0.00    +0.200 C 
ATOM      5  C   LIG A   1      -4.412   5.541 132.357  0.00  0.00    +0.031 C 
ATOM      6  C   LIG A   1      -5.690   6.067 131.944  0.00  0.00    +0.027 C 
ATOM      7  C   LIG A   1      -5.848   7.021 131.008  0.00  0.00    +0.204 C 
ATOM      8  O   LIG A   1      -7.080   7.525 130.618  0.00  0.00    -0.463 OA
ATOM      9  C   LIG A   1      -8.219   6.847 131.044  0.00  0.00    +0.128 C 
ATOM     10  C   LIG A   1      -8.187   5.923 132.023  0.00  0.00    +0.056 C 
ATOM     11  C   LIG A   1      -6.907   5.638 132.659  0.00  0.00    +0.011 C 
ATOM     12  C   LIG A   1      -6.781   4.992 133.839  0.00  0.00    +0.096 C 
ATOM     13 CL   LIG A   1      -8.126   4.379 134.740  0.00  0.00    -0.079 Cl
ATOM     14  C   LIG A   1      -3.480   4.822 131.719  0.00  0.00    +0.110 C 
ATOM     15  C   LIG A   1      -4.018   6.919 134.437  0.00  0.00    +0.070 C 
ATOM     16  C   LIG A   1      -5.419   4.798 134.470  0.00  0.00    +0.222 C 
ATOM     17  O   LIG A   1      -5.285   4.098 135.474  0.00  0.00    -0.286 OA
ENDROOT
BRANCH   9  18
ATOM     18  C   LIG A   1      -9.420   7.210 130.337  0.00  0.00    +0.042 C 
ATOM     19  C   LIG A   1     -10.649   6.882 130.769  0.00  0.00    -0.020 C 
BRANCH  19  20
ATOM     20  C   LIG A   1     -11.941   7.227 130.066  0.00  0.00    +0.008 C 
ATOM     21  C   LIG A   1     -13.044   7.541 131.082  0.00  0.00    +0.012 C 
BRANCH  20  22
ATOM     22  C   LIG A   1     -11.796   8.383 129.060  0.00  0.00    +0.004 C 
ATOM     23  C   LIG A   1     -12.900   9.428 129.163  0.00  0.00    +0.004 C 
ENDBRANCH  20  22
ENDBRANCH  19  20
ENDBRANCH   9  18
BRANCH  14  24
ATOM     24  C   LIG A   1      -3.467   4.388 130.294  0.00  0.00    +0.176 C 
ATOM     25  O   LIG A   1      -4.147   3.416 129.950  0.00  0.00    -0.291 OA
BRANCH  24  26
ATOM     26  C   LIG A   1      -2.584   5.121 129.277  0.00  0.00    +0.085 C 
ATOM     27  C   LIG A   1      -2.135   6.461 129.863  0.00  0.00    +0.018 C 
BRANCH  26  28
ATOM     28  C   LIG A   1      -3.315   5.261 127.929  0.00  0.00    +0.122 C 
ATOM     29  C   LIG A   1      -3.121   4.049 127.013  0.00  0.00    +0.038 C 
BRANCH  28  30
ATOM     30  O   LIG A   1      -4.718   5.375 128.196  0.00  0.00    -0.391 OA
ATOM     31  H   LIG A   1      -4.973   6.299 128.012  0.00  0.00    +0.210 HD
ENDBRANCH  28  30
ENDBRANCH  26  28
ENDBRANCH  24  26
ENDBRANCH  14  24
TORSDOF 7
ENDMDL
MODEL 2
REMARK VINA RESULT:      -7.9      5.191      8.675
REMARK  Name = NuBBE_835
REMARK  12 active torsions:
REMARK  status: ('A' for Active; 'I' for Inactive)
REMARK    1  A    between atoms: C_4  and  C_31
REMARK    2  A    between atoms: C_9  and  C_10
REMARK    3  A    between atoms: C_11  and  C_12
REMARK    4  A    between atoms: C_12  and  C_14
REMARK    5  A    between atoms: C_12  and  C_15
REMARK    6  A    between atoms: C_15  and  C_16
REMARK    7  A    between atoms: C_21  and  C_22
REMARK    8  A    between atoms: C_22  and  C_23
REMARK    9  A    between atoms: C_23  and  C_25
REMARK   10  A    between atoms: C_23  and  C_26
REMARK   11  A    between atoms: C_26  and  O_28
REMARK   12  A    between atoms: C_26  and  C_29
REMARK                            x       y       z     vdW  Elec       q    Type
REMARK                         _______ _______ _______ _____ _____    ______ ____
ROOT
ATOM      1  O   LIG A   1      -7.435   5.573 130.991  0.00  0.00    -0.245 OA
ATOM      2  C   LIG A   1      -6.823   4.905 130.190  0.00  0.00    +0.344 C 
ATOM      3  O   LIG A   1      -5.713   5.350 129.526  0.00  0.00    -0.442 OA
ATOM      4  C   LIG A   1      -5.164   4.291 128.765  0.00  0.00    +0.200 C 
ATOM      5  C   LIG A   1      -6.068   3.149 129.050  0.00  0.00    +0.031 C 
ATOM      6  C   LIG A   1      -5.813   1.985 128.238  0.00  0.00    +0.027 C 
ATOM      7  C   LIG A   1      -5.658   0.741 128.728  0.00  0.00    +0.204 C 
ATOM      8  O   LIG A   1      -5.409  -0.374 127.941  0.00  0.00    -0.463 OA
ATOM      9  C   LIG A   1      -5.563  -0.240 126.563  0.00  0.00    +0.128 C 
ATOM     10  C   LIG A   1      -5.657   0.960 125.960  0.00  0.00    +0.056 C 
ATOM     11  C   LIG A   1      -5.585   2.156 126.791  0.00  0.00    +0.011 C 
ATOM     12  C   LIG A   1      -5.347   3.395 126.306  0.00  0.00    +0.096 C 
ATOM     13 CL   LIG A   1      -5.131   3.736 124.623  0.00  0.00    -0.079 Cl
ATOM     14  C   LIG A   1      -7.106   3.510 129.815  0.00  0.00    +0.110 C 
ATOM     15  C   LIG A   1      -3.725   4.076 129.241  0.00  0.00    +0.070 C 
ATOM     16  C   LIG A   1      -5.215   4.577 127.242  0.00  0.00    +0.222 C 
ATOM     17  O   LIG A   1      -5.130   5.722 126.800  0.00  0.00    -0.286 OA
ENDROOT
BRANCH   9  18
ATOM     18  C   LIG A   1      -5.626  -1.491 125.853  0.00  0.00    +0.042 C 
ATOM     19  C   LIG A   1      -6.224  -1.622 124.657  0.00  0.00    -0.020 C 
BRANCH  19  20
ATOM     20  C   LIG A   1      -6.330  -2.908 123.872  0.00  0.00    +0.008 C 
ATOM     21  C   LIG A   1      -4.983  -3.637 123.842  0.00  0.00    +0.012 C 
BRANCH  20  22
ATOM     22  C   LIG A   1      -7.435  -3.848 124.388  0.00  0.00    +0.004 C 
ATOM     23  C   LIG A   1      -8.846  -3.335 124.131  0.00  0.00    +0.004 C 
ENDBRANCH  20  22
ENDBRANCH  19  20
ENDBRANCH   9  18
BRANCH  14  24
ATOM     24  C   LIG A   1      -8.342   2.736 130.114  0.00  0.00    +0.176 C 
ATOM     25  O   LIG A   1      -9.252   2.699 129.279  0.00  0.00    -0.291 OA
BRANCH  24  26
ATOM     26  C   LIG A   1      -8.495   2.029 131.466  0.00  0.00    +0.085 C 
ATOM     27  C   LIG A   1      -8.851   0.559 131.235  0.00  0.00    +0.018 C 
BRANCH  26  28
ATOM     28  C   LIG A   1      -9.517   2.770 132.350  0.00  0.00    +0.122 C 
ATOM     29  C   LIG A   1      -8.892   3.369 133.613  0.00  0.00    +0.038 C 
BRANCH  28  30
ATOM     30  O   LIG A   1     -10.061   3.852 131.585  0.00  0.00    -0.391 OA
ATOM     31  H   LIG A   1      -9.693   3.783 130.685  0.00  0.00    +0.210 HD
ENDBRANCH  28  30
ENDBRANCH  26  28
ENDBRANCH  24  26
ENDBRANCH  14  24
TORSDOF 7
ENDMDL
MODEL 3
REMARK VINA RESULT:      -7.9      2.035      2.943
REMARK  Name = NuBBE_835
REMARK  12 active torsions:
REMARK  status: ('A' for Active; 'I' for Inactive)
REMARK    1  A    between atoms: C_4  and  C_31
REMARK    2  A    between atoms: C_9  and  C_10
REMARK    3  A    between atoms: C_11  and  C_12
REMARK    4  A    between atoms: C_12  and  C_14
REMARK    5  A    between atoms: C_12  and  C_15
REMARK    6  A    between atoms: C_15  and  C_16
REMARK    7  A    between atoms: C_21  and  C_22
REMARK    8  A    between atoms: C_22  and  C_23
REMARK    9  A    between atoms: C_23  and  C_25
REMARK   10  A    between atoms: C_23  and  C_26
REMARK   11  A    between atoms: C_26  and  O_28
REMARK   12  A    between atoms: C_26  and  C_29
REMARK                            x       y       z     vdW  Elec       q    Type
REMARK                         _______ _______ _______ _____ _____    ______ ____
ROOT
ATOM      1  O   LIG A   1      -3.521   4.353 132.931  0.00  0.00    -0.245 OA
ATOM      2  C   LIG A   1      -4.730   4.325 132.932  0.00  0.00    +0.344 C 
ATOM      3  O   LIG A   1      -5.468   3.612 133.836  0.00  0.00    -0.442 OA
ATOM      4  C   LIG A   1      -6.843   3.892 133.646  0.00  0.00    +0.200 C 
ATOM      5  C   LIG A   1      -6.851   4.865 132.526  0.00  0.00    +0.031 C 
ATOM      6  C   LIG A   1      -8.169   5.170 132.026  0.00  0.00    +0.027 C 
ATOM      7  C   LIG A   1      -8.639   6.418 131.845  0.00  0.00    +0.204 C 
ATOM      8  O   LIG A   1      -9.909   6.705 131.368  0.00  0.00    -0.463 OA
ATOM      9  C   LIG A   1     -10.647   5.655 130.826  0.00  0.00    +0.128 C 
ATOM     10  C   LIG A   1     -10.307   4.365 131.004  0.00  0.00    +0.056 C 
ATOM     11  C   LIG A   1      -9.124   4.068 131.803  0.00  0.00    +0.011 C 
ATOM     12  C   LIG A   1      -8.853   2.850 132.322  0.00  0.00    +0.096 C 
ATOM     13 CL   LIG A   1      -9.858   1.463 132.075  0.00  0.00    -0.079 Cl
ATOM     14  C   LIG A   1      -5.625   5.066 132.027  0.00  0.00    +0.110 C 
ATOM     15  C   LIG A   1      -7.386   4.458 134.961  0.00  0.00    +0.070 C 
ATOM     16  C   LIG A   1      -7.641   2.639 133.203  0.00  0.00    +0.222 C 
ATOM     17  O   LIG A   1      -7.318   1.509 133.567  0.00  0.00    -0.286 OA
ENDROOT
BRANCH   9  18
ATOM     18  C   LIG A   1     -11.787   6.075 130.054  0.00  0.00    +0.042 C 
ATOM     19  C   LIG A   1     -11.931   7.326 129.586  0.00  0.00    -0.020 C 
BRANCH  19  20
ATOM     20  C   LIG A   1     -13.108   7.825 128.780  0.00  0.00    +0.008 C 
ATOM     21  C   LIG A   1     -13.112   9.356 128.717  0.00  0.00    +0.012 C 
BRANCH  20  22
ATOM     22  C   LIG A   1     -13.168   7.232 127.360  0.00  0.00    +0.004 C 
ATOM     23  C   LIG A   1     -11.843   7.295 126.611  0.00  0.00    +0.004 C 
ENDBRANCH  20  22
ENDBRANCH  19  20
ENDBRANCH   9  18
BRANCH  14  24
ATOM     24  C   LIG A   1      -5.246   5.762 130.767  0.00  0.00    +0.176 C 
ATOM     25  O   LIG A   1      -5.245   6.997 130.732  0.00  0.00    -0.291 OA
BRANCH  24  26
ATOM     26  C   LIG A   1      -4.902   4.946 129.514  0.00  0.00    +0.085 C 
ATOM     27  C   LIG A   1      -5.836   3.739 129.419  0.00  0.00    +0.018 C 
BRANCH  26  28
ATOM     28  C   LIG A   1      -3.410   4.562 129.514  0.00  0.00    +0.122 C 
ATOM     29  C   LIG A   1      -2.797   4.540 128.111  0.00  0.00    +0.038 C 
BRANCH  28  30
ATOM     30  O   LIG A   1      -2.699   5.545 130.277  0.00  0.00    -0.391 OA
ATOM     31  H   LIG A   1      -1.797   5.598 129.911  0.00  0.00    +0.210 HD
ENDBRANCH  28  30
ENDBRANCH  26  28
ENDBRANCH  24  26
ENDBRANCH  14  24
TORSDOF 7
ENDMDL
MODEL 4
REMARK VINA RESULT:      -7.8      5.629      6.932
REMARK  Name = NuBBE_835
REMARK  12 active torsions:
REMARK  status: ('A' for Active; 'I' for Inactive)
REMARK    1  A    between atoms: C_4  and  C_31
REMARK    2  A    between atoms: C_9  and  C_10
REMARK    3  A    between atoms: C_11  and  C_12
REMARK    4  A    between atoms: C_12  and  C_14
REMARK    5  A    between atoms: C_12  and  C_15
REMARK    6  A    between atoms: C_15  and  C_16
REMARK    7  A    between atoms: C_21  and  C_22
REMARK    8  A    between atoms: C_22  and  C_23
REMARK    9  A    between atoms: C_23  and  C_25
REMARK   10  A    between atoms: C_23  and  C_26
REMARK   11  A    between atoms: C_26  and  O_28
REMARK   12  A    between atoms: C_26  and  C_29
REMARK                            x       y       z     vdW  Elec       q    Type
REMARK                         _______ _______ _______ _____ _____    ______ ____
ROOT
ATOM      1  O   LIG A   1      -7.840  -2.441 126.203  0.00  0.00    -0.245 OA
ATOM      2  C   LIG A   1      -7.757  -1.519 126.981  0.00  0.00    +0.344 C 
ATOM      3  O   LIG A   1      -7.158  -1.617 128.207  0.00  0.00    -0.442 OA
ATOM      4  C   LIG A   1      -7.115  -0.338 128.812  0.00  0.00    +0.200 C 
ATOM      5  C   LIG A   1      -7.751   0.548 127.807  0.00  0.00    +0.031 C 
ATOM      6  C   LIG A   1      -7.985   1.892 128.275  0.00  0.00    +0.027 C 
ATOM      7  C   LIG A   1      -7.616   3.001 127.608  0.00  0.00    +0.204 C 
ATOM      8  O   LIG A   1      -7.841   4.290 128.067  0.00  0.00    -0.463 OA
ATOM      9  C   LIG A   1      -8.698   4.448 129.153  0.00  0.00    +0.128 C 
ATOM     10  C   LIG A   1      -9.076   3.418 129.932  0.00  0.00    +0.056 C 
ATOM     11  C   LIG A   1      -8.554   2.092 129.622  0.00  0.00    +0.011 C 
ATOM     12  C   LIG A   1      -8.586   1.051 130.482  0.00  0.00    +0.096 C 
ATOM     13 CL   LIG A   1      -9.288   1.140 132.062  0.00  0.00    -0.079 Cl
ATOM     14  C   LIG A   1      -8.220  -0.139 126.758  0.00  0.00    +0.110 C 
ATOM     15  C   LIG A   1      -5.646  -0.007 129.089  0.00  0.00    +0.070 C 
ATOM     16  C   LIG A   1      -7.958  -0.275 130.112  0.00  0.00    +0.222 C 
ATOM     17  O   LIG A   1      -8.100  -1.262 130.834  0.00  0.00    -0.286 OA
ENDROOT
BRANCH   9  18
ATOM     18  C   LIG A   1      -9.149   5.801 129.355  0.00  0.00    +0.042 C 
ATOM     19  C   LIG A   1     -10.444   6.155 129.292  0.00  0.00    -0.020 C 
BRANCH  19  20
ATOM     20  C   LIG A   1     -10.974   7.556 129.484  0.00  0.00    +0.008 C 
ATOM     21  C   LIG A   1     -10.578   8.453 128.307  0.00  0.00    +0.012 C 
BRANCH  20  22
ATOM     22  C   LIG A   1     -12.498   7.605 129.703  0.00  0.00    +0.004 C 
ATOM     23  C   LIG A   1     -13.301   6.959 128.581  0.00  0.00    +0.004 C 
ENDBRANCH  20  22
ENDBRANCH  19  20
ENDBRANCH   9  18
BRANCH  14  24
ATOM     24  C   LIG A   1      -9.124   0.337 125.675  0.00  0.00    +0.176 C 
ATOM     25  O   LIG A   1     -10.348   0.262 125.829  0.00  0.00    -0.291 OA
BRANCH  24  26
ATOM     26  C   LIG A   1      -8.535   0.875 124.366  0.00  0.00    +0.085 C 
ATOM     27  C   LIG A   1      -9.360   2.073 123.889  0.00  0.00    +0.018 C 
BRANCH  26  28
ATOM     28  C   LIG A   1      -8.434  -0.249 123.317  0.00  0.00    +0.122 C 
ATOM     29  C   LIG A   1      -7.025  -0.838 123.204  0.00  0.00    +0.038 C 
BRANCH  28  30
ATOM     30  O   LIG A   1      -9.311  -1.309 123.718  0.00  0.00    -0.391 OA
ATOM     31  H   LIG A   1      -9.097  -1.525 124.645  0.00  0.00    +0.210 HD
ENDBRANCH  28  30
ENDBRANCH  26  28
ENDBRANCH  24  26
ENDBRANCH  14  24
TORSDOF 7
ENDMDL
MODEL 5
REMARK VINA RESULT:      -7.8      7.506     10.745
REMARK  Name = NuBBE_835
REMARK  12 active torsions:
REMARK  status: ('A' for Active; 'I' for Inactive)
REMARK    1  A    between atoms: C_4  and  C_31
REMARK    2  A    between atoms: C_9  and  C_10
REMARK    3  A    between atoms: C_11  and  C_12
REMARK    4  A    between atoms: C_12  and  C_14
REMARK    5  A    between atoms: C_12  and  C_15
REMARK    6  A    between atoms: C_15  and  C_16
REMARK    7  A    between atoms: C_21  and  C_22
REMARK    8  A    between atoms: C_22  and  C_23
REMARK    9  A    between atoms: C_23  and  C_25
REMARK   10  A    between atoms: C_23  and  C_26
REMARK   11  A    between atoms: C_26  and  O_28
REMARK   12  A    between atoms: C_26  and  C_29
REMARK                            x       y       z     vdW  Elec       q    Type
REMARK                         _______ _______ _______ _____ _____    ______ ____
ROOT
ATOM      1  O   LIG A   1      -9.873   1.206 123.892  0.00  0.00    -0.245 OA
ATOM      2  C   LIG A   1      -9.299   0.329 124.495  0.00  0.00    +0.344 C 
ATOM      3  O   LIG A   1      -9.388  -0.996 124.166  0.00  0.00    -0.442 OA
ATOM      4  C   LIG A   1      -8.502  -1.743 124.980  0.00  0.00    +0.200 C 
ATOM      5  C   LIG A   1      -7.861  -0.714 125.836  0.00  0.00    +0.031 C 
ATOM      6  C   LIG A   1      -7.036  -1.258 126.886  0.00  0.00    +0.027 C 
ATOM      7  C   LIG A   1      -5.771  -0.871 127.132  0.00  0.00    +0.204 C 
ATOM      8  O   LIG A   1      -4.981  -1.401 128.140  0.00  0.00    -0.463 OA
ATOM      9  C   LIG A   1      -5.605  -2.203 129.094  0.00  0.00    +0.128 C 
ATOM     10  C   LIG A   1      -6.842  -2.704 128.920  0.00  0.00    +0.056 C 
ATOM     11  C   LIG A   1      -7.542  -2.395 127.679  0.00  0.00    +0.011 C 
ATOM     12  C   LIG A   1      -8.625  -3.072 127.238  0.00  0.00    +0.096 C 
ATOM     13 CL   LIG A   1      -9.353  -4.379 128.109  0.00  0.00    -0.079 Cl
ATOM     14  C   LIG A   1      -8.381   0.503 125.632  0.00  0.00    +0.110 C 
ATOM     15  C   LIG A   1      -7.526  -2.473 124.054  0.00  0.00    +0.070 C 
ATOM     16  C   LIG A   1      -9.252  -2.738 125.902  0.00  0.00    +0.222 C 
ATOM     17  O   LIG A   1     -10.313  -3.259 125.557  0.00  0.00    -0.286 OA
ENDROOT
BRANCH   9  18
ATOM     18  C   LIG A   1      -4.816  -2.432 130.277  0.00  0.00    +0.042 C 
ATOM     19  C   LIG A   1      -4.683  -3.643 130.843  0.00  0.00    -0.020 C 
BRANCH  19  20
ATOM     20  C   LIG A   1      -3.880  -3.941 132.086  0.00  0.00    +0.008 C 
ATOM     21  C   LIG A   1      -3.713  -2.679 132.940  0.00  0.00    +0.012 C 
BRANCH  20  22
ATOM     22  C   LIG A   1      -4.469  -5.084 132.933  0.00  0.00    +0.004 C 
ATOM     23  C   LIG A   1      -5.820  -4.754 133.554  0.00  0.00    +0.004 C 
ENDBRANCH  20  22
ENDBRANCH  19  20
ENDBRANCH   9  18
BRANCH  14  24
ATOM     24  C   LIG A   1      -8.192   1.734 126.449  0.00  0.00    +0.176 C 
ATOM     25  O   LIG A   1      -8.973   1.973 127.375  0.00  0.00    -0.291 OA
BRANCH  24  26
ATOM     26  C   LIG A   1      -7.060   2.711 126.111  0.00  0.00    +0.085 C 
ATOM     27  C   LIG A   1      -6.514   3.327 127.401  0.00  0.00    +0.018 C 
BRANCH  26  28
ATOM     28  C   LIG A   1      -7.541   3.762 125.091  0.00  0.00    +0.122 C 
ATOM     29  C   LIG A   1      -7.128   3.434 123.654  0.00  0.00    +0.038 C 
BRANCH  28  30
ATOM     30  O   LIG A   1      -8.973   3.793 125.130  0.00  0.00    -0.391 OA
ATOM     31  H   LIG A   1      -9.281   2.867 125.126  0.00  0.00    +0.210 HD
ENDBRANCH  28  30
ENDBRANCH  26  28
ENDBRANCH  24  26
ENDBRANCH  14  24
TORSDOF 7
ENDMDL
MODEL 6
REMARK VINA RESULT:      -7.7      7.009     10.358
REMARK  Name = NuBBE_835
REMARK  12 active torsions:
REMARK  status: ('A' for Active; 'I' for Inactive)
REMARK    1  A    between atoms: C_4  and  C_31
REMARK    2  A    between atoms: C_9  and  C_10
REMARK    3  A    between atoms: C_11  and  C_12
REMARK    4  A    between atoms: C_12  and  C_14
REMARK    5  A    between atoms: C_12  and  C_15
REMARK    6  A    between atoms: C_15  and  C_16
REMARK    7  A    between atoms: C_21  and  C_22
REMARK    8  A    between atoms: C_22  and  C_23
REMARK    9  A    between atoms: C_23  and  C_25
REMARK   10  A    between atoms: C_23  and  C_26
REMARK   11  A    between atoms: C_26  and  O_28
REMARK   12  A    between atoms: C_26  and  C_29
REMARK                            x       y       z     vdW  Elec       q    Type
REMARK                         _______ _______ _______ _____ _____    ______ ____
ROOT
ATOM      1  O   LIG A   1      -8.305   2.890 122.868  0.00  0.00    -0.245 OA
ATOM      2  C   LIG A   1      -8.051   1.843 123.417  0.00  0.00    +0.344 C 
ATOM      3  O   LIG A   1      -8.194   0.622 122.817  0.00  0.00    -0.442 OA
ATOM      4  C   LIG A   1      -7.694  -0.385 123.676  0.00  0.00    +0.200 C 
ATOM      5  C   LIG A   1      -7.223   0.369 124.864  0.00  0.00    +0.031 C 
ATOM      6  C   LIG A   1      -6.826  -0.468 125.969  0.00  0.00    +0.027 C 
ATOM      7  C   LIG A   1      -5.658  -0.350 126.626  0.00  0.00    +0.204 C 
ATOM      8  O   LIG A   1      -5.281  -1.161 127.686  0.00  0.00    -0.463 OA
ATOM      9  C   LIG A   1      -6.255  -1.982 128.249  0.00  0.00    +0.128 C 
ATOM     10  C   LIG A   1      -7.432  -2.226 127.645  0.00  0.00    +0.056 C 
ATOM     11  C   LIG A   1      -7.681  -1.610 126.347  0.00  0.00    +0.011 C 
ATOM     12  C   LIG A   1      -8.653  -2.010 125.498  0.00  0.00    +0.096 C 
ATOM     13 CL   LIG A   1      -9.763  -3.290 125.854  0.00  0.00    -0.079 Cl
ATOM     14  C   LIG A   1      -7.507   1.675 124.774  0.00  0.00    +0.110 C 
ATOM     15  C   LIG A   1      -6.579  -1.120 122.928  0.00  0.00    +0.070 C 
ATOM     16  C   LIG A   1      -8.802  -1.367 124.137  0.00  0.00    +0.222 C 
ATOM     17  O   LIG A   1      -9.763  -1.635 123.416  0.00  0.00    -0.286 OA
ENDROOT
BRANCH   9  18
ATOM     18  C   LIG A   1      -5.896  -2.527 129.533  0.00  0.00    +0.042 C 
ATOM     19  C   LIG A   1      -6.649  -3.433 130.178  0.00  0.00    -0.020 C 
BRANCH  19  20
ATOM     20  C   LIG A   1      -6.328  -4.032 131.527  0.00  0.00    +0.008 C 
ATOM     21  C   LIG A   1      -4.974  -4.748 131.495  0.00  0.00    +0.012 C 
BRANCH  20  22
ATOM     22  C   LIG A   1      -6.360  -3.003 132.672  0.00  0.00    +0.004 C 
ATOM     23  C   LIG A   1      -7.757  -2.735 133.217  0.00  0.00    +0.004 C 
ENDBRANCH  20  22
ENDBRANCH  19  20
ENDBRANCH   9  18
BRANCH  14  24
ATOM     24  C   LIG A   1      -7.426   2.710 125.841  0.00  0.00    +0.176 C 
ATOM     25  O   LIG A   1      -8.452   3.037 126.447  0.00  0.00    -0.291 OA
BRANCH  24  26
ATOM     26  C   LIG A   1      -6.087   3.390 126.150  0.00  0.00    +0.085 C 
ATOM     27  C   LIG A   1      -5.918   3.519 127.665  0.00  0.00    +0.018 C 
BRANCH  26  28
ATOM     28  C   LIG A   1      -5.983   4.738 125.409  0.00  0.00    +0.122 C 
ATOM     29  C   LIG A   1      -5.532   4.588 123.954  0.00  0.00    +0.038 C 
BRANCH  28  30
ATOM     30  O   LIG A   1      -7.284   5.337 125.396  0.00  0.00    -0.391 OA
ATOM     31  H   LIG A   1      -7.661   5.229 126.289  0.00  0.00    +0.210 HD
ENDBRANCH  28  30
ENDBRANCH  26  28
ENDBRANCH  24  26
ENDBRANCH  14  24
TORSDOF 7
ENDMDL
MODEL 7
REMARK VINA RESULT:      -7.6      4.535      8.299
REMARK  Name = NuBBE_835
REMARK  12 active torsions:
REMARK  status: ('A' for Active; 'I' for Inactive)
REMARK    1  A    between atoms: C_4  and  C_31
REMARK    2  A    between atoms: C_9  and  C_10
REMARK    3  A    between atoms: C_11  and  C_12
REMARK    4  A    between atoms: C_12  and  C_14
REMARK    5  A    between atoms: C_12  and  C_15
REMARK    6  A    between atoms: C_15  and  C_16
REMARK    7  A    between atoms: C_21  and  C_22
REMARK    8  A    between atoms: C_22  and  C_23
REMARK    9  A    between atoms: C_23  and  C_25
REMARK   10  A    between atoms: C_23  and  C_26
REMARK   11  A    between atoms: C_26  and  O_28
REMARK   12  A    between atoms: C_26  and  C_29
REMARK                            x       y       z     vdW  Elec       q    Type
REMARK                         _______ _______ _______ _____ _____    ______ ____
ROOT
ATOM      1  O   LIG A   1      -6.412   6.748 130.745  0.00  0.00    -0.245 OA
ATOM      2  C   LIG A   1      -5.909   5.745 130.295  0.00  0.00    +0.344 C 
ATOM      3  O   LIG A   1      -4.572   5.468 130.379  0.00  0.00    -0.442 OA
ATOM      4  C   LIG A   1      -4.329   4.168 129.874  0.00  0.00    +0.200 C 
ATOM      5  C   LIG A   1      -5.676   3.687 129.481  0.00  0.00    +0.031 C 
ATOM      6  C   LIG A   1      -5.664   2.435 128.765  0.00  0.00    +0.027 C 
ATOM      7  C   LIG A   1      -6.432   1.376 129.082  0.00  0.00    +0.204 C 
ATOM      8  O   LIG A   1      -6.412   0.173 128.392  0.00  0.00    -0.463 OA
ATOM      9  C   LIG A   1      -5.741   0.140 127.171  0.00  0.00    +0.128 C 
ATOM     10  C   LIG A   1      -4.895   1.112 126.785  0.00  0.00    +0.056 C 
ATOM     11  C   LIG A   1      -4.673   2.232 127.691  0.00  0.00    +0.011 C 
ATOM     12  C   LIG A   1      -3.637   3.093 127.583  0.00  0.00    +0.096 C 
ATOM     13 CL   LIG A   1      -2.449   3.003 126.328  0.00  0.00    -0.079 Cl
ATOM     14  C   LIG A   1      -6.611   4.633 129.634  0.00  0.00    +0.110 C 
ATOM     15  C   LIG A   1      -3.682   3.350 130.994  0.00  0.00    +0.070 C 
ATOM     16  C   LIG A   1      -3.436   4.189 128.607  0.00  0.00    +0.222 C 
ATOM     17  O   LIG A   1      -2.575   5.053 128.442  0.00  0.00    -0.286 OA
ENDROOT
BRANCH   9  18
ATOM     18  C   LIG A   1      -6.046  -1.013 126.363  0.00  0.00    +0.042 C 
ATOM     19  C   LIG A   1      -5.652  -1.133 125.085  0.00  0.00    -0.020 C 
BRANCH  19  20
ATOM     20  C   LIG A   1      -5.950  -2.311 124.188  0.00  0.00    +0.008 C 
ATOM     21  C   LIG A   1      -6.925  -1.913 123.075  0.00  0.00    +0.012 C 
BRANCH  20  22
ATOM     22  C   LIG A   1      -4.686  -2.953 123.586  0.00  0.00    +0.004 C 
ATOM     23  C   LIG A   1      -4.567  -4.447 123.859  0.00  0.00    +0.004 C 
ENDBRANCH  20  22
ENDBRANCH  19  20
ENDBRANCH   9  18
BRANCH  14  24
ATOM     24  C   LIG A   1      -8.013   4.633 129.131  0.00  0.00    +0.176 C 
ATOM     25  O   LIG A   1      -8.220   4.657 127.914  0.00  0.00    -0.291 OA
BRANCH  24  26
ATOM     26  C   LIG A   1      -9.183   4.643 130.122  0.00  0.00    +0.085 C 
ATOM     27  C   LIG A   1      -9.945   3.321 130.026  0.00  0.00    +0.018 C 
BRANCH  26  28
ATOM     28  C   LIG A   1     -10.075   5.878 129.890  0.00  0.00    +0.122 C 
ATOM     29  C   LIG A   1     -10.826   6.319 131.149  0.00  0.00    +0.038 C 
BRANCH  28  30
ATOM     30  O   LIG A   1      -9.231   6.965 129.491  0.00  0.00    -0.391 OA
ATOM     31  H   LIG A   1      -8.760   7.272 130.288  0.00  0.00    +0.210 HD
ENDBRANCH  28  30
ENDBRANCH  26  28
ENDBRANCH  24  26
ENDBRANCH  14  24
TORSDOF 7
ENDMDL
MODEL 8
REMARK VINA RESULT:      -7.5      6.951      9.454
REMARK  Name = NuBBE_835
REMARK  12 active torsions:
REMARK  status: ('A' for Active; 'I' for Inactive)
REMARK    1  A    between atoms: C_4  and  C_31
REMARK    2  A    between atoms: C_9  and  C_10
REMARK    3  A    between atoms: C_11  and  C_12
REMARK    4  A    between atoms: C_12  and  C_14
REMARK    5  A    between atoms: C_12  and  C_15
REMARK    6  A    between atoms: C_15  and  C_16
REMARK    7  A    between atoms: C_21  and  C_22
REMARK    8  A    between atoms: C_22  and  C_23
REMARK    9  A    between atoms: C_23  and  C_25
REMARK   10  A    between atoms: C_23  and  C_26
REMARK   11  A    between atoms: C_26  and  O_28
REMARK   12  A    between atoms: C_26  and  C_29
REMARK                            x       y       z     vdW  Elec       q    Type
REMARK                         _______ _______ _______ _____ _____    ______ ____
ROOT
ATOM      1  O   LIG A   1      -6.522  -0.758 135.112  0.00  0.00    -0.245 OA
ATOM      2  C   LIG A   1      -6.307  -1.341 134.075  0.00  0.00    +0.344 C 
ATOM      3  O   LIG A   1      -5.443  -2.397 133.967  0.00  0.00    -0.442 OA
ATOM      4  C   LIG A   1      -5.515  -2.932 132.659  0.00  0.00    +0.200 C 
ATOM      5  C   LIG A   1      -6.529  -2.082 131.987  0.00  0.00    +0.031 C 
ATOM      6  C   LIG A   1      -6.650  -2.323 130.571  0.00  0.00    +0.027 C 
ATOM      7  C   LIG A   1      -7.816  -2.545 129.938  0.00  0.00    +0.204 C 
ATOM      8  O   LIG A   1      -7.925  -2.781 128.576  0.00  0.00    -0.463 OA
ATOM      9  C   LIG A   1      -6.801  -2.542 127.788  0.00  0.00    +0.128 C 
ATOM     10  C   LIG A   1      -5.573  -2.377 128.312  0.00  0.00    +0.056 C 
ATOM     11  C   LIG A   1      -5.425  -2.461 129.760  0.00  0.00    +0.011 C 
ATOM     12  C   LIG A   1      -4.239  -2.633 130.386  0.00  0.00    +0.096 C 
ATOM     13 CL   LIG A   1      -2.726  -2.738 129.552  0.00  0.00    -0.079 Cl
ATOM     14  C   LIG A   1      -6.943  -1.080 132.773  0.00  0.00    +0.110 C 
ATOM     15  C   LIG A   1      -5.923  -4.402 132.782  0.00  0.00    +0.070 C 
ATOM     16  C   LIG A   1      -4.176  -2.783 131.891  0.00  0.00    +0.222 C 
ATOM     17  O   LIG A   1      -3.094  -2.807 132.475  0.00  0.00    -0.286 OA
ENDROOT
BRANCH   9  18
ATOM     18  C   LIG A   1      -7.076  -2.476 126.376  0.00  0.00    +0.042 C 
ATOM     19  C   LIG A   1      -6.108  -2.444 125.445  0.00  0.00    -0.020 C 
BRANCH  19  20
ATOM     20  C   LIG A   1      -6.335  -2.364 123.954  0.00  0.00    +0.008 C 
ATOM     21  C   LIG A   1      -6.591  -0.917 123.520  0.00  0.00    +0.012 C 
BRANCH  20  22
ATOM     22  C   LIG A   1      -5.185  -2.972 123.130  0.00  0.00    +0.004 C 
ATOM     23  C   LIG A   1      -4.584  -4.228 123.748  0.00  0.00    +0.004 C 
ENDBRANCH  20  22
ENDBRANCH  19  20
ENDBRANCH   9  18
BRANCH  14  24
ATOM     24  C   LIG A   1      -7.751   0.113 132.396  0.00  0.00    +0.176 C 
ATOM     25  O   LIG A   1      -8.945  -0.029 132.111  0.00  0.00    -0.291 OA
BRANCH  24  26
ATOM     26  C   LIG A   1      -7.091   1.495 132.324  0.00  0.00    +0.085 C 
ATOM     27  C   LIG A   1      -8.062   2.552 132.853  0.00  0.00    +0.018 C 
BRANCH  26  28
ATOM     28  C   LIG A   1      -6.598   1.783 130.893  0.00  0.00    +0.122 C 
ATOM     29  C   LIG A   1      -5.161   1.315 130.649  0.00  0.00    +0.038 C 
BRANCH  28  30
ATOM     30  O   LIG A   1      -7.443   1.070 129.982  0.00  0.00    -0.391 OA
ATOM     31  H   LIG A   1      -8.273   0.873 130.453  0.00  0.00    +0.210 HD
ENDBRANCH  28  30
ENDBRANCH  26  28
ENDBRANCH  24  26
ENDBRANCH  14  24
TORSDOF 7
ENDMDL
MODEL 9
REMARK VINA RESULT:      -7.5      3.882      7.081
REMARK  Name = NuBBE_835
REMARK  12 active torsions:
REMARK  status: ('A' for Active; 'I' for Inactive)
REMARK    1  A    between atoms: C_4  and  C_31
REMARK    2  A    between atoms: C_9  and  C_10
REMARK    3  A    between atoms: C_11  and  C_12
REMARK    4  A    between atoms: C_12  and  C_14
REMARK    5  A    between atoms: C_12  and  C_15
REMARK    6  A    between atoms: C_15  and  C_16
REMARK    7  A    between atoms: C_21  and  C_22
REMARK    8  A    between atoms: C_22  and  C_23
REMARK    9  A    between atoms: C_23  and  C_25
REMARK   10  A    between atoms: C_23  and  C_26
REMARK   11  A    between atoms: C_26  and  O_28
REMARK   12  A    between atoms: C_26  and  C_29
REMARK                            x       y       z     vdW  Elec       q    Type
REMARK                         _______ _______ _______ _____ _____    ______ ____
ROOT
ATOM      1  O   LIG A   1      -9.291   5.855 133.190  0.00  0.00    -0.245 OA
ATOM      2  C   LIG A   1      -8.549   5.351 132.379  0.00  0.00    +0.344 C 
ATOM      3  O   LIG A   1      -7.237   5.062 132.634  0.00  0.00    -0.442 OA
ATOM      4  C   LIG A   1      -6.686   4.365 131.531  0.00  0.00    +0.200 C 
ATOM      5  C   LIG A   1      -7.821   4.258 130.582  0.00  0.00    +0.031 C 
ATOM      6  C   LIG A   1      -7.456   3.734 129.289  0.00  0.00    +0.027 C 
ATOM      7  C   LIG A   1      -8.097   2.724 128.673  0.00  0.00    +0.204 C 
ATOM      8  O   LIG A   1      -7.737   2.222 127.432  0.00  0.00    -0.463 OA
ATOM      9  C   LIG A   1      -6.819   2.953 126.682  0.00  0.00    +0.128 C 
ATOM     10  C   LIG A   1      -6.072   3.939 127.213  0.00  0.00    +0.056 C 
ATOM     11  C   LIG A   1      -6.235   4.237 128.631  0.00  0.00    +0.011 C 
ATOM     12  C   LIG A   1      -5.349   4.958 129.354  0.00  0.00    +0.096 C 
ATOM     13 CL   LIG A   1      -3.916   5.659 128.683  0.00  0.00    -0.079 Cl
ATOM     14  C   LIG A   1      -8.905   4.912 131.020  0.00  0.00    +0.110 C 
ATOM     15  C   LIG A   1      -6.179   3.014 132.044  0.00  0.00    +0.070 C 
ATOM     16  C   LIG A   1      -5.552   5.164 130.839  0.00  0.00    +0.222 C 
ATOM     17  O   LIG A   1      -4.824   5.926 131.474  0.00  0.00    -0.286 OA
ENDROOT
BRANCH   9  18
ATOM     18  C   LIG A   1      -6.753   2.569 125.295  0.00  0.00    +0.042 C 
ATOM     19  C   LIG A   1      -6.712   3.462 124.292  0.00  0.00    -0.020 C 
BRANCH  19  20
ATOM     20  C   LIG A   1      -6.653   3.120 122.822  0.00  0.00    +0.008 C 
ATOM     21  C   LIG A   1      -8.052   3.160 122.199  0.00  0.00    +0.012 C 
BRANCH  20  22
ATOM     22  C   LIG A   1      -5.689   4.018 122.026  0.00  0.00    +0.004 C 
ATOM     23  C   LIG A   1      -5.691   3.745 120.527  0.00  0.00    +0.004 C 
ENDBRANCH  20  22
ENDBRANCH  19  20
ENDBRANCH   9  18
BRANCH  14  24
ATOM     24  C   LIG A   1     -10.144   5.249 130.267  0.00  0.00    +0.176 C 
ATOM     25  O   LIG A   1     -10.861   4.338 129.839  0.00  0.00    -0.291 OA
BRANCH  24  26
ATOM     26  C   LIG A   1     -10.500   6.715 129.992  0.00  0.00    +0.085 C 
ATOM     27  C   LIG A   1     -11.740   7.100 130.801  0.00  0.00    +0.018 C 
BRANCH  26  28
ATOM     28  C   LIG A   1     -10.661   6.957 128.479  0.00  0.00    +0.122 C 
ATOM     29  C   LIG A   1     -10.528   8.432 128.091  0.00  0.00    +0.038 C 
BRANCH  28  30
ATOM     30  O   LIG A   1      -9.621   6.240 127.803  0.00  0.00    -0.391 OA
ATOM     31  H   LIG A   1      -9.589   6.574 126.887  0.00  0.00    +0.210 HD
ENDBRANCH  28  30
ENDBRANCH  26  28
ENDBRANCH  24  26
ENDBRANCH  14  24
TORSDOF 7
ENDMDL
