MODEL 1
REMARK VINA RESULT:      -8.8      0.000      0.000
REMARK  Name = NuBBE_1416
REMARK  2 active torsions:
REMARK  status: ('A' for Active; 'I' for Inactive)
REMARK    1  A    between atoms: C_3  and  C_5
REMARK    2  A    between atoms: C_17  and  C_19
REMARK                            x       y       z     vdW  Elec       q    Type
REMARK                         _______ _______ _______ _____ _____    ______ ____
ROOT
ATOM      1  C   LIG A   1     -10.045   6.251 131.601  0.00  0.00    +0.056 C 
ATOM      2  C   LIG A   1     -10.994   5.765 130.518  0.00  0.00    +0.154 C 
ATOM      3  O   LIG A   1     -10.166   5.081 129.556  0.00  0.00    -0.371 OA
ATOM      4  C   LIG A   1      -8.782   5.365 129.827  0.00  0.00    +0.167 C 
ATOM      5  C   LIG A   1      -8.746   6.468 130.874  0.00  0.00    +0.056 C 
ATOM      6  C   LIG A   1      -7.712   6.310 131.978  0.00  0.00    +0.154 C 
ATOM      7  O   LIG A   1      -8.260   5.339 132.892  0.00  0.00    -0.371 OA
ATOM      8  C   LIG A   1      -9.660   5.180 132.613  0.00  0.00    +0.167 C 
ENDROOT
BRANCH   2   9
ATOM      9  C   LIG A   1     -11.769   6.893 129.849  0.00  0.00    -0.015 A 
ATOM     10  C   LIG A   1     -12.213   6.797 128.507  0.00  0.00    +0.010 A 
ATOM     11  C   LIG A   1     -12.933   7.830 127.898  0.00  0.00    +0.050 A 
ATOM     12  C   LIG A   1     -13.205   8.949 128.650  0.00  0.00    +0.166 A 
ATOM     13  O   LIG A   1     -13.887  10.046 128.226  0.00  0.00    -0.453 OA
ATOM     14  C   LIG A   1     -13.850  10.862 129.414  0.00  0.00    +0.466 C 
ATOM     15  O   LIG A   1     -13.169  10.237 130.521  0.00  0.00    -0.453 OA
ATOM     16  C   LIG A   1     -12.796   9.057 129.957  0.00  0.00    +0.167 A 
ATOM     17  C   LIG A   1     -12.087   8.051 130.585  0.00  0.00    +0.055 A 
ENDBRANCH   2   9
BRANCH   6  18
ATOM     18  C   LIG A   1      -6.319   5.963 131.498  0.00  0.00    -0.015 A 
ATOM     19  C   LIG A   1      -5.743   4.695 131.747  0.00  0.00    +0.010 A 
ATOM     20  C   LIG A   1      -4.455   4.381 131.296  0.00  0.00    +0.050 A 
ATOM     21  C   LIG A   1      -3.764   5.350 130.604  0.00  0.00    +0.166 A 
ATOM     22  C   LIG A   1      -4.308   6.588 130.361  0.00  0.00    +0.167 A 
ATOM     23  O   LIG A   1      -3.464   7.398 129.667  0.00  0.00    -0.453 OA
ATOM     24  C   LIG A   1      -2.325   6.528 129.505  0.00  0.00    +0.466 C 
ATOM     25  O   LIG A   1      -2.510   5.223 130.095  0.00  0.00    -0.453 OA
ATOM     26  C   LIG A   1      -5.573   6.926 130.794  0.00  0.00    +0.055 A 
ENDBRANCH   6  18
TORSDOF 2
ENDMDL
MODEL 2
REMARK VINA RESULT:      -8.2      5.965      8.975
REMARK  Name = NuBBE_1416
REMARK  2 active torsions:
REMARK  status: ('A' for Active; 'I' for Inactive)
REMARK    1  A    between atoms: C_3  and  C_5
REMARK    2  A    between atoms: C_17  and  C_19
REMARK                            x       y       z     vdW  Elec       q    Type
REMARK                         _______ _______ _______ _____ _____    ______ ____
ROOT
ATOM      1  C   LIG A   1      -7.897  -0.933 130.941  0.00  0.00    +0.056 C 
ATOM      2  C   LIG A   1      -6.947  -1.084 129.764  0.00  0.00    +0.154 C 
ATOM      3  O   LIG A   1      -6.549   0.256 129.413  0.00  0.00    -0.371 OA
ATOM      4  C   LIG A   1      -7.397   1.201 130.089  0.00  0.00    +0.167 C 
ATOM      5  C   LIG A   1      -8.534   0.412 130.722  0.00  0.00    +0.056 C 
ATOM      6  C   LIG A   1      -8.937   0.827 132.128  0.00  0.00    +0.154 C 
ATOM      7  O   LIG A   1      -7.940   0.262 133.004  0.00  0.00    -0.371 OA
ATOM      8  C   LIG A   1      -7.198  -0.732 132.279  0.00  0.00    +0.167 C 
ENDROOT
BRANCH   2   9
ATOM      9  C   LIG A   1      -7.580  -1.784 128.569  0.00  0.00    -0.015 A 
ATOM     10  C   LIG A   1      -8.226  -3.039 128.698  0.00  0.00    +0.010 A 
ATOM     11  C   LIG A   1      -8.815  -3.676 127.601  0.00  0.00    +0.050 A 
ATOM     12  C   LIG A   1      -8.753  -3.039 126.383  0.00  0.00    +0.166 A 
ATOM     13  O   LIG A   1      -9.266  -3.507 125.213  0.00  0.00    -0.453 OA
ATOM     14  C   LIG A   1      -8.899  -2.442 124.313  0.00  0.00    +0.466 C 
ATOM     15  O   LIG A   1      -8.196  -1.360 124.958  0.00  0.00    -0.453 OA
ATOM     16  C   LIG A   1      -8.144  -1.817 126.239  0.00  0.00    +0.167 A 
ATOM     17  C   LIG A   1      -7.558  -1.163 127.305  0.00  0.00    +0.055 A 
ENDBRANCH   2   9
BRANCH   6  18
ATOM     18  C   LIG A   1      -9.128   2.316 132.319  0.00  0.00    -0.015 A 
ATOM     19  C   LIG A   1      -8.643   2.986 133.468  0.00  0.00    +0.010 A 
ATOM     20  C   LIG A   1      -8.821   4.364 133.635  0.00  0.00    +0.050 A 
ATOM     21  C   LIG A   1      -9.490   5.048 132.645  0.00  0.00    +0.166 A 
ATOM     22  C   LIG A   1      -9.974   4.411 131.529  0.00  0.00    +0.167 A 
ATOM     23  O   LIG A   1     -10.605   5.263 130.677  0.00  0.00    -0.453 OA
ATOM     24  C   LIG A   1     -10.466   6.510 131.389  0.00  0.00    +0.466 C 
ATOM     25  O   LIG A   1      -9.755   6.382 132.639  0.00  0.00    -0.453 OA
ATOM     26  C   LIG A   1      -9.814   3.055 131.338  0.00  0.00    +0.055 A 
ENDBRANCH   6  18
TORSDOF 2
ENDMDL
MODEL 3
REMARK VINA RESULT:      -8.0      8.355      9.661
REMARK  Name = NuBBE_1416
REMARK  2 active torsions:
REMARK  status: ('A' for Active; 'I' for Inactive)
REMARK    1  A    between atoms: C_3  and  C_5
REMARK    2  A    between atoms: C_17  and  C_19
REMARK                            x       y       z     vdW  Elec       q    Type
REMARK                         _______ _______ _______ _____ _____    ______ ____
ROOT
ATOM      1  C   LIG A   1      -8.621  -2.163 126.734  0.00  0.00    +0.056 C 
ATOM      2  C   LIG A   1      -8.039  -1.955 125.345  0.00  0.00    +0.154 C 
ATOM      3  O   LIG A   1      -6.628  -2.220 125.474  0.00  0.00    -0.371 OA
ATOM      4  C   LIG A   1      -6.277  -2.287 126.867  0.00  0.00    +0.167 C 
ATOM      5  C   LIG A   1      -7.487  -1.813 127.658  0.00  0.00    +0.056 C 
ATOM      6  C   LIG A   1      -7.819  -2.605 128.913  0.00  0.00    +0.154 C 
ATOM      7  O   LIG A   1      -8.477  -3.805 128.456  0.00  0.00    -0.371 OA
ATOM      8  C   LIG A   1      -8.872  -3.623 127.087  0.00  0.00    +0.167 C 
ENDROOT
BRANCH   2   9
ATOM      9  C   LIG A   1      -8.272  -0.552 124.801  0.00  0.00    -0.015 A 
ATOM     10  C   LIG A   1      -9.408   0.210 125.171  0.00  0.00    +0.010 A 
ATOM     11  C   LIG A   1      -9.616   1.502 124.678  0.00  0.00    +0.050 A 
ATOM     12  C   LIG A   1      -8.672   2.018 123.820  0.00  0.00    +0.166 A 
ATOM     13  O   LIG A   1      -8.710   3.249 123.243  0.00  0.00    -0.453 OA
ATOM     14  C   LIG A   1      -7.494   3.221 122.469  0.00  0.00    +0.466 C 
ATOM     15  O   LIG A   1      -6.750   1.992 122.609  0.00  0.00    -0.453 OA
ATOM     16  C   LIG A   1      -7.557   1.302 123.459  0.00  0.00    +0.167 A 
ATOM     17  C   LIG A   1      -7.324   0.026 123.934  0.00  0.00    +0.055 A 
ENDBRANCH   2   9
BRANCH   6  18
ATOM     18  C   LIG A   1      -6.641  -2.877 129.822  0.00  0.00    -0.015 A 
ATOM     19  C   LIG A   1      -6.214  -4.194 130.113  0.00  0.00    +0.010 A 
ATOM     20  C   LIG A   1      -5.120  -4.436 130.952  0.00  0.00    +0.050 A 
ATOM     21  C   LIG A   1      -4.473  -3.347 131.491  0.00  0.00    +0.166 A 
ATOM     22  C   LIG A   1      -4.880  -2.063 131.225  0.00  0.00    +0.167 A 
ATOM     23  O   LIG A   1      -4.113  -1.133 131.856  0.00  0.00    -0.453 OA
ATOM     24  C   LIG A   1      -3.179  -1.982 132.554  0.00  0.00    +0.466 C 
ATOM     25  O   LIG A   1      -3.399  -3.390 132.324  0.00  0.00    -0.453 OA
ATOM     26  C   LIG A   1      -5.954  -1.794 130.403  0.00  0.00    +0.055 A 
ENDBRANCH   6  18
TORSDOF 2
ENDMDL
MODEL 4
REMARK VINA RESULT:      -7.9      6.343      9.494
REMARK  Name = NuBBE_1416
REMARK  2 active torsions:
REMARK  status: ('A' for Active; 'I' for Inactive)
REMARK    1  A    between atoms: C_3  and  C_5
REMARK    2  A    between atoms: C_17  and  C_19
REMARK                            x       y       z     vdW  Elec       q    Type
REMARK                         _______ _______ _______ _____ _____    ______ ____
ROOT
ATOM      1  C   LIG A   1      -5.222   4.213 125.571  0.00  0.00    +0.056 C 
ATOM      2  C   LIG A   1      -3.854   3.984 126.194  0.00  0.00    +0.154 C 
ATOM      3  O   LIG A   1      -3.725   2.554 126.329  0.00  0.00    -0.371 OA
ATOM      4  C   LIG A   1      -5.004   1.934 126.109  0.00  0.00    +0.167 C 
ATOM      5  C   LIG A   1      -6.040   3.048 126.056  0.00  0.00    +0.056 C 
ATOM      6  C   LIG A   1      -7.109   2.917 124.983  0.00  0.00    +0.154 C 
ATOM      7  O   LIG A   1      -6.479   3.325 123.751  0.00  0.00    -0.371 OA
ATOM      8  C   LIG A   1      -5.257   4.012 124.062  0.00  0.00    +0.167 C 
ENDROOT
BRANCH   2   9
ATOM      9  C   LIG A   1      -3.688   4.667 127.545  0.00  0.00    -0.015 A 
ATOM     10  C   LIG A   1      -3.195   3.968 128.675  0.00  0.00    +0.010 A 
ATOM     11  C   LIG A   1      -3.034   4.600 129.913  0.00  0.00    +0.050 A 
ATOM     12  C   LIG A   1      -3.366   5.932 129.999  0.00  0.00    +0.166 A 
ATOM     13  O   LIG A   1      -3.277   6.704 131.115  0.00  0.00    -0.453 OA
ATOM     14  C   LIG A   1      -3.753   7.967 130.608  0.00  0.00    +0.466 C 
ATOM     15  O   LIG A   1      -4.097   7.932 129.207  0.00  0.00    -0.453 OA
ATOM     16  C   LIG A   1      -3.832   6.631 128.912  0.00  0.00    +0.167 A 
ATOM     17  C   LIG A   1      -3.997   6.035 127.677  0.00  0.00    +0.055 A 
ENDBRANCH   2   9
BRANCH   6  18
ATOM     18  C   LIG A   1      -7.762   1.555 124.900  0.00  0.00    -0.015 A 
ATOM     19  C   LIG A   1      -8.663   1.101 125.894  0.00  0.00    +0.010 A 
ATOM     20  C   LIG A   1      -9.265  -0.159 125.807  0.00  0.00    +0.050 A 
ATOM     21  C   LIG A   1      -8.950  -0.948 124.723  0.00  0.00    +0.166 A 
ATOM     22  C   LIG A   1      -8.072  -0.525 123.756  0.00  0.00    +0.167 A 
ATOM     23  O   LIG A   1      -7.895  -1.450 122.775  0.00  0.00    -0.453 OA
ATOM     24  C   LIG A   1      -8.758  -2.507 123.241  0.00  0.00    +0.466 C 
ATOM     25  O   LIG A   1      -9.435  -2.194 124.477  0.00  0.00    -0.453 OA
ATOM     26  C   LIG A   1      -7.463   0.711 123.814  0.00  0.00    +0.055 A 
ENDBRANCH   6  18
TORSDOF 2
ENDMDL
MODEL 5
REMARK VINA RESULT:      -7.8      6.496      9.421
REMARK  Name = NuBBE_1416
REMARK  2 active torsions:
REMARK  status: ('A' for Active; 'I' for Inactive)
REMARK    1  A    between atoms: C_3  and  C_5
REMARK    2  A    between atoms: C_17  and  C_19
REMARK                            x       y       z     vdW  Elec       q    Type
REMARK                         _______ _______ _______ _____ _____    ______ ____
ROOT
ATOM      1  C   LIG A   1      -7.878  -1.543 130.739  0.00  0.00    +0.056 C 
ATOM      2  C   LIG A   1      -6.804  -1.744 129.682  0.00  0.00    +0.154 C 
ATOM      3  O   LIG A   1      -6.242  -0.437 129.449  0.00  0.00    -0.371 OA
ATOM      4  C   LIG A   1      -7.078   0.561 130.060  0.00  0.00    +0.167 C 
ATOM      5  C   LIG A   1      -8.355  -0.135 130.508  0.00  0.00    +0.056 C 
ATOM      6  C   LIG A   1      -8.894   0.266 131.872  0.00  0.00    +0.154 C 
ATOM      7  O   LIG A   1      -8.073  -0.426 132.836  0.00  0.00    -0.371 OA
ATOM      8  C   LIG A   1      -7.340  -1.461 132.161  0.00  0.00    +0.167 C 
ENDROOT
BRANCH   2   9
ATOM      9  C   LIG A   1      -7.341  -2.335 128.386  0.00  0.00    -0.015 A 
ATOM     10  C   LIG A   1      -8.438  -3.231 128.375  0.00  0.00    +0.010 A 
ATOM     11  C   LIG A   1      -8.936  -3.766 127.182  0.00  0.00    +0.050 A 
ATOM     12  C   LIG A   1      -8.326  -3.386 126.008  0.00  0.00    +0.166 A 
ATOM     13  O   LIG A   1      -8.672  -3.803 124.761  0.00  0.00    -0.453 OA
ATOM     14  C   LIG A   1      -7.704  -3.094 123.962  0.00  0.00    +0.466 C 
ATOM     15  O   LIG A   1      -6.817  -2.260 124.737  0.00  0.00    -0.453 OA
ATOM     16  C   LIG A   1      -7.271  -2.507 125.995  0.00  0.00    +0.167 A 
ATOM     17  C   LIG A   1      -6.762  -1.961 127.157  0.00  0.00    +0.055 A 
ENDBRANCH   2   9
BRANCH   6  18
ATOM     18  C   LIG A   1      -8.969   1.758 132.111  0.00  0.00    -0.015 A 
ATOM     19  C   LIG A   1      -9.743   2.605 131.281  0.00  0.00    +0.010 A 
ATOM     20  C   LIG A   1      -9.810   3.983 131.512  0.00  0.00    +0.050 A 
ATOM     21  C   LIG A   1      -9.094   4.492 132.572  0.00  0.00    +0.166 A 
ATOM     22  C   LIG A   1      -8.333   3.685 133.380  0.00  0.00    +0.167 A 
ATOM     23  O   LIG A   1      -7.703   4.381 134.365  0.00  0.00    -0.453 OA
ATOM     24  C   LIG A   1      -8.153   5.721 134.078  0.00  0.00    +0.466 C 
ATOM     25  O   LIG A   1      -9.040   5.800 132.942  0.00  0.00    -0.453 OA
ATOM     26  C   LIG A   1      -8.247   2.324 133.178  0.00  0.00    +0.055 A 
ENDBRANCH   6  18
TORSDOF 2
ENDMDL
MODEL 6
REMARK VINA RESULT:      -7.8      3.903      5.422
REMARK  Name = NuBBE_1416
REMARK  2 active torsions:
REMARK  status: ('A' for Active; 'I' for Inactive)
REMARK    1  A    between atoms: C_3  and  C_5
REMARK    2  A    between atoms: C_17  and  C_19
REMARK                            x       y       z     vdW  Elec       q    Type
REMARK                         _______ _______ _______ _____ _____    ______ ____
ROOT
ATOM      1  C   LIG A   1      -7.795   4.949 131.745  0.00  0.00    +0.056 C 
ATOM      2  C   LIG A   1      -8.899   5.684 132.489  0.00  0.00    +0.154 C 
ATOM      3  O   LIG A   1      -9.553   4.684 133.296  0.00  0.00    -0.371 OA
ATOM      4  C   LIG A   1      -9.123   3.376 132.881  0.00  0.00    +0.167 C 
ATOM      5  C   LIG A   1      -8.328   3.551 131.595  0.00  0.00    +0.056 C 
ATOM      6  C   LIG A   1      -7.061   2.719 131.472  0.00  0.00    +0.154 C 
ATOM      7  O   LIG A   1      -6.072   3.390 132.279  0.00  0.00    -0.371 OA
ATOM      8  C   LIG A   1      -6.539   4.717 132.574  0.00  0.00    +0.167 C 
ENDROOT
BRANCH   2   9
ATOM      9  C   LIG A   1      -9.899   6.362 131.562  0.00  0.00    -0.015 A 
ATOM     10  C   LIG A   1     -11.279   6.427 131.877  0.00  0.00    +0.010 A 
ATOM     11  C   LIG A   1     -12.194   7.059 131.028  0.00  0.00    +0.050 A 
ATOM     12  C   LIG A   1     -11.709   7.626 129.872  0.00  0.00    +0.166 A 
ATOM     13  O   LIG A   1     -12.448   8.275 128.934  0.00  0.00    -0.453 OA
ATOM     14  C   LIG A   1     -11.423   8.630 127.983  0.00  0.00    +0.466 C 
ATOM     15  O   LIG A   1     -10.101   8.205 128.376  0.00  0.00    -0.453 OA
ATOM     16  C   LIG A   1     -10.373   7.585 129.555  0.00  0.00    +0.167 A 
ATOM     17  C   LIG A   1      -9.446   6.972 130.376  0.00  0.00    +0.055 A 
ENDBRANCH   2   9
BRANCH   6  18
ATOM     18  C   LIG A   1      -7.227   1.256 131.820  0.00  0.00    -0.015 A 
ATOM     19  C   LIG A   1      -7.860   0.349 130.937  0.00  0.00    +0.010 A 
ATOM     20  C   LIG A   1      -8.005  -1.004 131.267  0.00  0.00    +0.050 A 
ATOM     21  C   LIG A   1      -7.515  -1.424 132.483  0.00  0.00    +0.166 A 
ATOM     22  C   LIG A   1      -6.905  -0.555 133.353  0.00  0.00    +0.167 A 
ATOM     23  O   LIG A   1      -6.496  -1.167 134.497  0.00  0.00    -0.453 OA
ATOM     24  C   LIG A   1      -6.923  -2.521 134.247  0.00  0.00    +0.466 C 
ATOM     25  O   LIG A   1      -7.568  -2.694 132.967  0.00  0.00    -0.453 OA
ATOM     26  C   LIG A   1      -6.749   0.783 133.056  0.00  0.00    +0.055 A 
ENDBRANCH   6  18
TORSDOF 2
ENDMDL
MODEL 7
REMARK VINA RESULT:      -7.6      2.111      8.276
REMARK  Name = NuBBE_1416
REMARK  2 active torsions:
REMARK  status: ('A' for Active; 'I' for Inactive)
REMARK    1  A    between atoms: C_3  and  C_5
REMARK    2  A    between atoms: C_17  and  C_19
REMARK                            x       y       z     vdW  Elec       q    Type
REMARK                         _______ _______ _______ _____ _____    ______ ____
ROOT
ATOM      1  C   LIG A   1      -7.315   3.797 130.635  0.00  0.00    +0.056 C 
ATOM      2  C   LIG A   1      -5.998   4.353 131.154  0.00  0.00    +0.154 C 
ATOM      3  O   LIG A   1      -6.288   5.700 131.578  0.00  0.00    -0.371 OA
ATOM      4  C   LIG A   1      -7.586   6.087 131.094  0.00  0.00    +0.167 C 
ATOM      5  C   LIG A   1      -8.043   5.009 130.122  0.00  0.00    +0.056 C 
ATOM      6  C   LIG A   1      -9.502   4.592 130.221  0.00  0.00    +0.154 C 
ATOM      7  O   LIG A   1      -9.582   3.718 131.365  0.00  0.00    -0.371 OA
ATOM      8  C   LIG A   1      -8.254   3.308 131.729  0.00  0.00    +0.167 C 
ENDROOT
BRANCH   2   9
ATOM      9  C   LIG A   1      -4.891   4.348 130.108  0.00  0.00    -0.015 A 
ATOM     10  C   LIG A   1      -3.845   5.303 130.129  0.00  0.00    +0.010 A 
ATOM     11  C   LIG A   1      -2.823   5.291 129.173  0.00  0.00    +0.050 A 
ATOM     12  C   LIG A   1      -2.862   4.311 128.208  0.00  0.00    +0.166 A 
ATOM     13  O   LIG A   1      -1.960   4.148 127.204  0.00  0.00    -0.453 OA
ATOM     14  C   LIG A   1      -2.512   2.998 126.531  0.00  0.00    +0.466 C 
ATOM     15  O   LIG A   1      -3.712   2.490 127.150  0.00  0.00    -0.453 OA
ATOM     16  C   LIG A   1      -3.860   3.368 128.179  0.00  0.00    +0.167 A 
ATOM     17  C   LIG A   1      -4.878   3.353 129.111  0.00  0.00    +0.055 A 
ENDBRANCH   2   9
BRANCH   6  18
ATOM     18  C   LIG A   1     -10.487   5.739 130.271  0.00  0.00    -0.015 A 
ATOM     19  C   LIG A   1     -11.319   5.955 131.396  0.00  0.00    +0.010 A 
ATOM     20  C   LIG A   1     -12.225   7.021 131.436  0.00  0.00    +0.050 A 
ATOM     21  C   LIG A   1     -12.285   7.853 130.341  0.00  0.00    +0.166 A 
ATOM     22  C   LIG A   1     -11.490   7.652 129.239  0.00  0.00    +0.167 A 
ATOM     23  O   LIG A   1     -11.704   8.581 128.268  0.00  0.00    -0.453 OA
ATOM     24  C   LIG A   1     -12.729   9.386 128.885  0.00  0.00    +0.466 C 
ATOM     25  O   LIG A   1     -13.101   8.932 130.204  0.00  0.00    -0.453 OA
ATOM     26  C   LIG A   1     -10.588   6.611 129.171  0.00  0.00    +0.055 A 
ENDBRANCH   6  18
TORSDOF 2
ENDMDL
MODEL 8
REMARK VINA RESULT:      -7.5      4.346      5.443
REMARK  Name = NuBBE_1416
REMARK  2 active torsions:
REMARK  status: ('A' for Active; 'I' for Inactive)
REMARK    1  A    between atoms: C_3  and  C_5
REMARK    2  A    between atoms: C_17  and  C_19
REMARK                            x       y       z     vdW  Elec       q    Type
REMARK                         _______ _______ _______ _____ _____    ______ ____
ROOT
ATOM      1  C   LIG A   1      -8.288   4.354 130.754  0.00  0.00    +0.056 C 
ATOM      2  C   LIG A   1      -9.648   4.794 131.270  0.00  0.00    +0.154 C 
ATOM      3  O   LIG A   1     -10.460   3.602 131.286  0.00  0.00    -0.371 OA
ATOM      4  C   LIG A   1      -9.792   2.558 130.558  0.00  0.00    +0.167 C 
ATOM      5  C   LIG A   1      -8.601   3.191 129.853  0.00  0.00    +0.056 C 
ATOM      6  C   LIG A   1      -7.308   2.392 129.873  0.00  0.00    +0.154 C 
ATOM      7  O   LIG A   1      -6.747   2.588 131.188  0.00  0.00    -0.371 OA
ATOM      8  C   LIG A   1      -7.406   3.701 131.811  0.00  0.00    +0.167 C 
ENDROOT
BRANCH   2   9
ATOM      9  C   LIG A   1     -10.296   5.872 130.412  0.00  0.00    -0.015 A 
ATOM     10  C   LIG A   1      -9.572   7.007 129.971  0.00  0.00    +0.010 A 
ATOM     11  C   LIG A   1     -10.166   7.991 129.174  0.00  0.00    +0.050 A 
ATOM     12  C   LIG A   1     -11.485   7.818 128.823  0.00  0.00    +0.166 A 
ATOM     13  O   LIG A   1     -12.223   8.669 128.060  0.00  0.00    -0.453 OA
ATOM     14  C   LIG A   1     -13.490   7.982 128.040  0.00  0.00    +0.466 C 
ATOM     15  O   LIG A   1     -13.482   6.737 128.770  0.00  0.00    -0.453 OA
ATOM     16  C   LIG A   1     -12.201   6.719 129.228  0.00  0.00    +0.167 A 
ATOM     17  C   LIG A   1     -11.639   5.730 130.011  0.00  0.00    +0.055 A 
ENDBRANCH   2   9
BRANCH   6  18
ATOM     18  C   LIG A   1      -7.457   0.934 129.496  0.00  0.00    -0.015 A 
ATOM     19  C   LIG A   1      -7.428  -0.092 130.470  0.00  0.00    +0.010 A 
ATOM     20  C   LIG A   1      -7.571  -1.438 130.112  0.00  0.00    +0.050 A 
ATOM     21  C   LIG A   1      -7.736  -1.732 128.777  0.00  0.00    +0.166 A 
ATOM     22  C   LIG A   1      -7.758  -0.748 127.820  0.00  0.00    +0.167 A 
ATOM     23  O   LIG A   1      -7.928  -1.248 126.566  0.00  0.00    -0.453 OA
ATOM     24  C   LIG A   1      -8.005  -2.660 126.846  0.00  0.00    +0.466 C 
ATOM     25  O   LIG A   1      -7.888  -2.976 128.249  0.00  0.00    -0.453 OA
ATOM     26  C   LIG A   1      -7.619   0.585 128.142  0.00  0.00    +0.055 A 
ENDBRANCH   6  18
TORSDOF 2
ENDMDL
MODEL 9
REMARK VINA RESULT:      -7.4      4.484      8.602
REMARK  Name = NuBBE_1416
REMARK  2 active torsions:
REMARK  status: ('A' for Active; 'I' for Inactive)
REMARK    1  A    between atoms: C_3  and  C_5
REMARK    2  A    between atoms: C_17  and  C_19
REMARK                            x       y       z     vdW  Elec       q    Type
REMARK                         _______ _______ _______ _____ _____    ______ ____
ROOT
ATOM      1  C   LIG A   1      -8.064   2.571 131.124  0.00  0.00    +0.056 C 
ATOM      2  C   LIG A   1      -7.043   1.974 130.169  0.00  0.00    +0.154 C 
ATOM      3  O   LIG A   1      -7.028   2.849 129.023  0.00  0.00    -0.371 OA
ATOM      4  C   LIG A   1      -8.151   3.745 129.089  0.00  0.00    +0.167 C 
ATOM      5  C   LIG A   1      -9.048   3.260 130.218  0.00  0.00    +0.056 C 
ATOM      6  C   LIG A   1      -9.636   4.336 131.117  0.00  0.00    +0.154 C 
ATOM      7  O   LIG A   1      -8.572   4.724 132.010  0.00  0.00    -0.371 OA
ATOM      8  C   LIG A   1      -7.533   3.734 131.950  0.00  0.00    +0.167 C 
ENDROOT
BRANCH   2   9
ATOM      9  C   LIG A   1      -7.374   0.549 129.749  0.00  0.00    -0.015 A 
ATOM     10  C   LIG A   1      -7.591  -0.476 130.704  0.00  0.00    +0.010 A 
ATOM     11  C   LIG A   1      -7.905  -1.783 130.316  0.00  0.00    +0.050 A 
ATOM     12  C   LIG A   1      -8.004  -2.044 128.969  0.00  0.00    +0.166 A 
ATOM     13  O   LIG A   1      -8.296  -3.250 128.412  0.00  0.00    -0.453 OA
ATOM     14  C   LIG A   1      -8.254  -2.915 127.010  0.00  0.00    +0.466 C 
ATOM     15  O   LIG A   1      -7.958  -1.526 126.758  0.00  0.00    -0.453 OA
ATOM     16  C   LIG A   1      -7.811  -1.062 128.028  0.00  0.00    +0.167 A 
ATOM     17  C   LIG A   1      -7.504   0.237 128.382  0.00  0.00    +0.055 A 
ENDBRANCH   2   9
BRANCH   6  18
ATOM     18  C   LIG A   1     -10.260   5.503 130.384  0.00  0.00    -0.015 A 
ATOM     19  C   LIG A   1      -9.540   6.697 130.139  0.00  0.00    +0.010 A 
ATOM     20  C   LIG A   1     -10.124   7.770 129.456  0.00  0.00    +0.050 A 
ATOM     21  C   LIG A   1     -11.427   7.629 129.034  0.00  0.00    +0.166 A 
ATOM     22  C   LIG A   1     -12.141   6.480 129.271  0.00  0.00    +0.167 A 
ATOM     23  O   LIG A   1     -13.406   6.544 128.777  0.00  0.00    -0.453 OA
ATOM     24  C   LIG A   1     -13.408   7.868 128.206  0.00  0.00    +0.466 C 
ATOM     25  O   LIG A   1     -12.152   8.563 128.361  0.00  0.00    -0.453 OA
ATOM     26  C   LIG A   1     -11.592   5.407 129.941  0.00  0.00    +0.055 A 
ENDBRANCH   6  18
TORSDOF 2
ENDMDL
