MODEL 1
REMARK VINA RESULT:      -4.3      0.000      0.000
REMARK  Name = NuBBE_1978
REMARK  1 active torsions:
REMARK  status: ('A' for Active; 'I' for Inactive)
REMARK    1  A    between atoms: C_1  and  C_3
REMARK                            x       y       z     vdW  Elec       q    Type
REMARK                         _______ _______ _______ _____ _____    ______ ____
ROOT
ATOM      1  C   LIG A   1     -11.902   8.421 129.073  0.00  0.00    +0.102 C 
ATOM      2  C   LIG A   1     -12.820   8.369 130.277  0.00  0.00    -0.012 C 
ATOM      3  C   LIG A   1     -12.767   7.569 131.360  0.00  0.00    -0.018 C 
ATOM      4  C   LIG A   1     -11.794   6.460 131.669  0.00  0.00    +0.107 C 
ATOM      5  S   LIG A   1     -10.974   5.803 130.196  0.00  0.00    -0.088 S 
ATOM      6  S   LIG A   1     -10.319   7.559 129.355  0.00  0.00    -0.081 S 
ENDROOT
BRANCH   1   7
ATOM      7  C   LIG A   1     -12.583   7.876 127.844  0.00  0.00    -0.016 C 
ATOM      8  C   LIG A   1     -13.760   7.233 127.844  0.00  0.00    +0.005 C 
ENDBRANCH   1   7
TORSDOF 1
ENDMDL
MODEL 2
REMARK VINA RESULT:      -4.2      1.393      3.188
REMARK  Name = NuBBE_1978
REMARK  1 active torsions:
REMARK  status: ('A' for Active; 'I' for Inactive)
REMARK    1  A    between atoms: C_1  and  C_3
REMARK                            x       y       z     vdW  Elec       q    Type
REMARK                         _______ _______ _______ _____ _____    ______ ____
ROOT
ATOM      1  C   LIG A   1     -12.659   7.451 129.699  0.00  0.00    +0.102 C 
ATOM      2  C   LIG A   1     -13.580   7.224 128.517  0.00  0.00    -0.012 C 
ATOM      3  C   LIG A   1     -13.278   7.087 127.210  0.00  0.00    -0.018 C 
ATOM      4  C   LIG A   1     -11.931   7.158 126.540  0.00  0.00    +0.107 C 
ATOM      5  S   LIG A   1     -10.696   8.050 127.516  0.00  0.00    -0.088 S 
ATOM      6  S   LIG A   1     -10.915   7.081 129.314  0.00  0.00    -0.081 S 
ENDROOT
BRANCH   1   7
ATOM      7  C   LIG A   1     -12.791   8.852 130.233  0.00  0.00    -0.016 C 
ATOM      8  C   LIG A   1     -13.175   9.914 129.509  0.00  0.00    +0.005 C 
ENDBRANCH   1   7
TORSDOF 1
ENDMDL
MODEL 3
REMARK VINA RESULT:      -4.0     12.749     13.456
REMARK  Name = NuBBE_1978
REMARK  1 active torsions:
REMARK  status: ('A' for Active; 'I' for Inactive)
REMARK    1  A    between atoms: C_1  and  C_3
REMARK                            x       y       z     vdW  Elec       q    Type
REMARK                         _______ _______ _______ _____ _____    ______ ____
ROOT
ATOM      1  C   LIG A   1      -5.622  -2.642 124.186  0.00  0.00    +0.102 C 
ATOM      2  C   LIG A   1      -6.158  -2.112 122.871  0.00  0.00    -0.012 C 
ATOM      3  C   LIG A   1      -7.427  -1.830 122.515  0.00  0.00    -0.018 C 
ATOM      4  C   LIG A   1      -8.693  -2.000 123.316  0.00  0.00    +0.107 C 
ATOM      5  S   LIG A   1      -8.527  -3.197 124.663  0.00  0.00    -0.088 S 
ATOM      6  S   LIG A   1      -6.820  -2.480 125.552  0.00  0.00    -0.081 S 
ENDROOT
BRANCH   1   7
ATOM      7  C   LIG A   1      -5.169  -4.072 124.054  0.00  0.00    -0.016 C 
ATOM      8  C   LIG A   1      -3.994  -4.457 123.532  0.00  0.00    +0.005 C 
ENDBRANCH   1   7
TORSDOF 1
ENDMDL
MODEL 4
REMARK VINA RESULT:      -3.9      1.915      2.283
REMARK  Name = NuBBE_1978
REMARK  1 active torsions:
REMARK  status: ('A' for Active; 'I' for Inactive)
REMARK    1  A    between atoms: C_1  and  C_3
REMARK                            x       y       z     vdW  Elec       q    Type
REMARK                         _______ _______ _______ _____ _____    ______ ____
ROOT
ATOM      1  C   LIG A   1     -11.305   7.555 128.632  0.00  0.00    +0.102 C 
ATOM      2  C   LIG A   1      -9.901   7.650 129.194  0.00  0.00    -0.012 C 
ATOM      3  C   LIG A   1      -9.403   7.148 130.342  0.00  0.00    -0.018 C 
ATOM      4  C   LIG A   1     -10.115   6.377 131.423  0.00  0.00    +0.107 C 
ATOM      5  S   LIG A   1     -11.906   6.633 131.419  0.00  0.00    -0.088 S 
ATOM      6  S   LIG A   1     -12.301   6.257 129.438  0.00  0.00    -0.081 S 
ENDROOT
BRANCH   1   7
ATOM      7  C   LIG A   1     -12.014   8.882 128.708  0.00  0.00    -0.016 C 
ATOM      8  C   LIG A   1     -13.338   9.051 128.567  0.00  0.00    +0.005 C 
ENDBRANCH   1   7
TORSDOF 1
ENDMDL
MODEL 5
REMARK VINA RESULT:      -3.9     11.176     12.102
REMARK  Name = NuBBE_1978
REMARK  1 active torsions:
REMARK  status: ('A' for Active; 'I' for Inactive)
REMARK    1  A    between atoms: C_1  and  C_3
REMARK                            x       y       z     vdW  Elec       q    Type
REMARK                         _______ _______ _______ _____ _____    ______ ____
ROOT
ATOM      1  C   LIG A   1      -8.078  -3.279 125.534  0.00  0.00    +0.102 C 
ATOM      2  C   LIG A   1      -8.965  -3.654 124.364  0.00  0.00    -0.012 C 
ATOM      3  C   LIG A   1      -9.319  -2.921 123.289  0.00  0.00    -0.018 C 
ATOM      4  C   LIG A   1      -8.962  -1.495 122.958  0.00  0.00    +0.107 C 
ATOM      5  S   LIG A   1      -8.471  -0.530 124.408  0.00  0.00    -0.088 S 
ATOM      6  S   LIG A   1      -7.064  -1.798 125.203  0.00  0.00    -0.081 S 
ENDROOT
BRANCH   1   7
ATOM      7  C   LIG A   1      -8.883  -3.091 126.792  0.00  0.00    -0.016 C 
ATOM      8  C   LIG A   1      -8.886  -3.939 127.832  0.00  0.00    +0.005 C 
ENDBRANCH   1   7
TORSDOF 1
ENDMDL
MODEL 6
REMARK VINA RESULT:      -3.8     12.213     12.712
REMARK  Name = NuBBE_1978
REMARK  1 active torsions:
REMARK  status: ('A' for Active; 'I' for Inactive)
REMARK    1  A    between atoms: C_1  and  C_3
REMARK                            x       y       z     vdW  Elec       q    Type
REMARK                         _______ _______ _______ _____ _____    ______ ____
ROOT
ATOM      1  C   LIG A   1      -6.641  -2.838 123.775  0.00  0.00    +0.102 C 
ATOM      2  C   LIG A   1      -7.667  -3.737 124.434  0.00  0.00    -0.012 C 
ATOM      3  C   LIG A   1      -8.552  -3.454 125.411  0.00  0.00    -0.018 C 
ATOM      4  C   LIG A   1      -8.751  -2.162 126.161  0.00  0.00    +0.107 C 
ATOM      5  S   LIG A   1      -7.300  -1.081 126.111  0.00  0.00    -0.088 S 
ATOM      6  S   LIG A   1      -6.952  -1.068 124.086  0.00  0.00    -0.081 S 
ENDROOT
BRANCH   1   7
ATOM      7  C   LIG A   1      -5.243  -3.206 124.196  0.00  0.00    -0.016 C 
ATOM      8  C   LIG A   1      -4.485  -4.139 123.600  0.00  0.00    +0.005 C 
ENDBRANCH   1   7
TORSDOF 1
ENDMDL
MODEL 7
REMARK VINA RESULT:      -3.8      2.068      3.530
REMARK  Name = NuBBE_1978
REMARK  1 active torsions:
REMARK  status: ('A' for Active; 'I' for Inactive)
REMARK    1  A    between atoms: C_1  and  C_3
REMARK                            x       y       z     vdW  Elec       q    Type
REMARK                         _______ _______ _______ _____ _____    ______ ____
ROOT
ATOM      1  C   LIG A   1     -10.583   6.833 130.312  0.00  0.00    +0.102 C 
ATOM      2  C   LIG A   1     -10.110   7.775 129.224  0.00  0.00    -0.012 C 
ATOM      3  C   LIG A   1     -10.830   8.462 128.314  0.00  0.00    -0.018 C 
ATOM      4  C   LIG A   1     -12.320   8.461 128.092  0.00  0.00    +0.107 C 
ATOM      5  S   LIG A   1     -13.136   6.986 128.752  0.00  0.00    -0.088 S 
ATOM      6  S   LIG A   1     -12.367   6.992 130.657  0.00  0.00    -0.081 S 
ENDROOT
BRANCH   1   7
ATOM      7  C   LIG A   1     -10.239   5.404 129.983  0.00  0.00    -0.016 C 
ATOM      8  C   LIG A   1     -10.879   4.331 130.473  0.00  0.00    +0.005 C 
ENDBRANCH   1   7
TORSDOF 1
ENDMDL
MODEL 8
REMARK VINA RESULT:      -3.7      1.108      3.479
REMARK  Name = NuBBE_1978
REMARK  1 active torsions:
REMARK  status: ('A' for Active; 'I' for Inactive)
REMARK    1  A    between atoms: C_1  and  C_3
REMARK                            x       y       z     vdW  Elec       q    Type
REMARK                         _______ _______ _______ _____ _____    ______ ____
ROOT
ATOM      1  C   LIG A   1     -11.902   6.262 131.202  0.00  0.00    +0.102 C 
ATOM      2  C   LIG A   1     -12.795   7.484 131.133  0.00  0.00    -0.012 C 
ATOM      3  C   LIG A   1     -12.830   8.468 130.212  0.00  0.00    -0.018 C 
ATOM      4  C   LIG A   1     -11.957   8.658 128.999  0.00  0.00    +0.107 C 
ATOM      5  S   LIG A   1     -10.380   7.777 129.112  0.00  0.00    -0.088 S 
ATOM      6  S   LIG A   1     -11.067   5.908 129.619  0.00  0.00    -0.081 S 
ENDROOT
BRANCH   1   7
ATOM      7  C   LIG A   1     -10.889   6.388 132.310  0.00  0.00    -0.016 C 
ATOM      8  C   LIG A   1      -9.632   5.924 132.254  0.00  0.00    +0.005 C 
ENDBRANCH   1   7
TORSDOF 1
ENDMDL
MODEL 9
REMARK VINA RESULT:      -3.6     11.321     12.050
REMARK  Name = NuBBE_1978
REMARK  1 active torsions:
REMARK  status: ('A' for Active; 'I' for Inactive)
REMARK    1  A    between atoms: C_1  and  C_3
REMARK                            x       y       z     vdW  Elec       q    Type
REMARK                         _______ _______ _______ _____ _____    ______ ____
ROOT
ATOM      1  C   LIG A   1      -7.093  -3.039 124.401  0.00  0.00    +0.102 C 
ATOM      2  C   LIG A   1      -6.851  -2.151 123.197  0.00  0.00    -0.012 C 
ATOM      3  C   LIG A   1      -6.767  -0.808 123.128  0.00  0.00    -0.018 C 
ATOM      4  C   LIG A   1      -6.930   0.208 124.229  0.00  0.00    +0.107 C 
ATOM      5  S   LIG A   1      -7.860  -0.424 125.647  0.00  0.00    -0.088 S 
ATOM      6  S   LIG A   1      -6.829  -2.170 125.983  0.00  0.00    -0.081 S 
ENDROOT
BRANCH   1   7
ATOM      7  C   LIG A   1      -8.470  -3.648 124.362  0.00  0.00    -0.016 C 
ATOM      8  C   LIG A   1      -9.448  -3.274 123.523  0.00  0.00    +0.005 C 
ENDBRANCH   1   7
TORSDOF 1
ENDMDL
