MODEL 1
REMARK VINA RESULT:      -5.4      0.000      0.000
REMARK  Name = NuBBE_26
REMARK  10 active torsions:
REMARK  status: ('A' for Active; 'I' for Inactive)
REMARK    1  A    between atoms: C_1  and  O_2
REMARK    2  A    between atoms: O_2  and  C_3
REMARK    3  A    between atoms: C_4  and  O_5
REMARK    4  A    between atoms: O_5  and  C_6
REMARK    5  A    between atoms: C_7  and  O_8
REMARK    6  A    between atoms: O_8  and  C_9
REMARK    7  A    between atoms: C_11  and  C_12
REMARK    8  A    between atoms: C_13  and  C_14
REMARK    9  A    between atoms: C_14  and  O_15
REMARK   10  A    between atoms: O_15  and  C_16
REMARK                            x       y       z     vdW  Elec       q    Type
REMARK                         _______ _______ _______ _____ _____    ______ ____
ROOT
ATOM      1  C   LIG A   1      -8.101   4.119 119.814  0.00  0.00    +0.166 A 
ATOM      2  C   LIG A   1      -6.697   4.247 119.901  0.00  0.00    +0.203 A 
ATOM      3  C   LIG A   1      -6.042   3.809 121.081  0.00  0.00    +0.166 A 
ATOM      4  C   LIG A   1      -6.785   3.276 122.141  0.00  0.00    +0.057 A 
ATOM      5  C   LIG A   1      -8.165   3.126 122.030  0.00  0.00    -0.018 A 
ATOM      6  C   LIG A   1      -8.816   3.545 120.875  0.00  0.00    +0.057 A 
ENDROOT
BRANCH   1   8
ATOM      7  C   LIG A   1     -10.166   4.605 118.739  0.00  0.00    +0.277 C 
ATOM      8  O   LIG A   1      -8.748   4.501 118.667  0.00  0.00    -0.491 OA
ENDBRANCH   1   8
BRANCH   2   9
ATOM      9  O   LIG A   1      -5.863   4.767 118.938  0.00  0.00    -0.488 OA
ATOM     10  C   LIG A   1      -5.856   6.170 118.702  0.00  0.00    +0.277 C 
ENDBRANCH   2   9
BRANCH   3  11
ATOM     11  O   LIG A   1      -4.673   3.963 121.163  0.00  0.00    -0.491 OA
ATOM     12  C   LIG A   1      -4.220   5.037 121.986  0.00  0.00    +0.277 C 
ENDBRANCH   3  11
BRANCH   5  13
ATOM     13  C   LIG A   1      -8.921   2.554 123.134  0.00  0.00    +0.015 C 
ATOM     14  C   LIG A   1      -8.443   1.495 123.802  0.00  0.00    +0.092 C 
BRANCH  14  15
ATOM     15  C   LIG A   1      -9.287   0.861 124.834  0.00  0.00    +0.332 C 
ATOM     16  O   LIG A   1      -9.555   1.332 125.916  0.00  0.00    -0.246 OA
BRANCH  15  17
ATOM     17  O   LIG A   1      -9.767  -0.284 124.289  0.00  0.00    -0.465 OA
ATOM     18  C   LIG A   1      -8.764  -1.063 123.644  0.00  0.00    +0.280 C 
ENDBRANCH  15  17
ENDBRANCH  14  15
ENDBRANCH   5  13
TORSDOF 6
ENDMDL
MODEL 2
REMARK VINA RESULT:      -5.2      1.581      6.375
REMARK  Name = NuBBE_26
REMARK  10 active torsions:
REMARK  status: ('A' for Active; 'I' for Inactive)
REMARK    1  A    between atoms: C_1  and  O_2
REMARK    2  A    between atoms: O_2  and  C_3
REMARK    3  A    between atoms: C_4  and  O_5
REMARK    4  A    between atoms: O_5  and  C_6
REMARK    5  A    between atoms: C_7  and  O_8
REMARK    6  A    between atoms: O_8  and  C_9
REMARK    7  A    between atoms: C_11  and  C_12
REMARK    8  A    between atoms: C_13  and  C_14
REMARK    9  A    between atoms: C_14  and  O_15
REMARK   10  A    between atoms: O_15  and  C_16
REMARK                            x       y       z     vdW  Elec       q    Type
REMARK                         _______ _______ _______ _____ _____    ______ ____
ROOT
ATOM      1  C   LIG A   1      -9.180   0.751 124.096  0.00  0.00    +0.166 A 
ATOM      2  C   LIG A   1      -8.931   1.431 125.309  0.00  0.00    +0.203 A 
ATOM      3  C   LIG A   1      -8.461   2.769 125.262  0.00  0.00    +0.166 A 
ATOM      4  C   LIG A   1      -8.238   3.390 124.027  0.00  0.00    +0.057 A 
ATOM      5  C   LIG A   1      -8.518   2.722 122.839  0.00  0.00    -0.018 A 
ATOM      6  C   LIG A   1      -8.985   1.412 122.875  0.00  0.00    +0.057 A 
ENDROOT
BRANCH   1   8
ATOM      7  C   LIG A   1      -9.033  -1.473 123.269  0.00  0.00    +0.277 C 
ATOM      8  O   LIG A   1      -9.671  -0.528 124.123  0.00  0.00    -0.491 OA
ENDBRANCH   1   8
BRANCH   2   9
ATOM      9  O   LIG A   1      -9.095   0.923 126.579  0.00  0.00    -0.488 OA
ATOM     10  C   LIG A   1      -8.087   0.086 127.134  0.00  0.00    +0.277 C 
ENDBRANCH   2   9
BRANCH   3  11
ATOM     11  O   LIG A   1      -8.198   3.411 126.454  0.00  0.00    -0.491 OA
ATOM     12  C   LIG A   1      -6.859   3.880 126.621  0.00  0.00    +0.277 C 
ENDBRANCH   3  11
BRANCH   5  13
ATOM     13  C   LIG A   1      -8.296   3.388 121.564  0.00  0.00    +0.015 C 
ATOM     14  C   LIG A   1      -7.052   3.555 121.097  0.00  0.00    +0.092 C 
BRANCH  14  15
ATOM     15  C   LIG A   1      -6.851   4.342 119.865  0.00  0.00    +0.332 C 
ATOM     16  O   LIG A   1      -7.643   4.449 118.956  0.00  0.00    -0.246 OA
BRANCH  15  17
ATOM     17  O   LIG A   1      -5.664   4.984 120.006  0.00  0.00    -0.465 OA
ATOM     18  C   LIG A   1      -4.938   4.575 121.161  0.00  0.00    +0.280 C 
ENDBRANCH  15  17
ENDBRANCH  14  15
ENDBRANCH   5  13
TORSDOF 6
ENDMDL
MODEL 3
REMARK VINA RESULT:      -5.1      9.578     11.521
REMARK  Name = NuBBE_26
REMARK  10 active torsions:
REMARK  status: ('A' for Active; 'I' for Inactive)
REMARK    1  A    between atoms: C_1  and  O_2
REMARK    2  A    between atoms: O_2  and  C_3
REMARK    3  A    between atoms: C_4  and  O_5
REMARK    4  A    between atoms: O_5  and  C_6
REMARK    5  A    between atoms: C_7  and  O_8
REMARK    6  A    between atoms: O_8  and  C_9
REMARK    7  A    between atoms: C_11  and  C_12
REMARK    8  A    between atoms: C_13  and  C_14
REMARK    9  A    between atoms: C_14  and  O_15
REMARK   10  A    between atoms: O_15  and  C_16
REMARK                            x       y       z     vdW  Elec       q    Type
REMARK                         _______ _______ _______ _____ _____    ______ ____
ROOT
ATOM      1  C   LIG A   1      -8.155   5.555 132.965  0.00  0.00    +0.166 A 
ATOM      2  C   LIG A   1      -6.777   5.836 132.840  0.00  0.00    +0.203 A 
ATOM      3  C   LIG A   1      -6.333   6.615 131.741  0.00  0.00    +0.166 A 
ATOM      4  C   LIG A   1      -7.253   7.080 130.793  0.00  0.00    +0.057 A 
ATOM      5  C   LIG A   1      -8.612   6.823 130.944  0.00  0.00    -0.018 A 
ATOM      6  C   LIG A   1      -9.058   6.066 132.022  0.00  0.00    +0.057 A 
ENDROOT
BRANCH   1   8
ATOM      7  C   LIG A   1      -9.041   3.505 133.782  0.00  0.00    +0.277 C 
ATOM      8  O   LIG A   1      -8.607   4.836 134.041  0.00  0.00    -0.491 OA
ENDBRANCH   1   8
BRANCH   2   9
ATOM      9  O   LIG A   1      -5.778   5.423 133.694  0.00  0.00    -0.488 OA
ATOM     10  C   LIG A   1      -5.284   4.093 133.602  0.00  0.00    +0.277 C 
ENDBRANCH   2   9
BRANCH   3  11
ATOM     11  O   LIG A   1      -4.981   6.861 131.618  0.00  0.00    -0.491 OA
ATOM     12  C   LIG A   1      -4.582   7.542 130.428  0.00  0.00    +0.277 C 
ENDBRANCH   3  11
BRANCH   5  13
ATOM     13  C   LIG A   1      -9.558   7.328 129.959  0.00  0.00    +0.015 C 
ATOM     14  C   LIG A   1     -10.802   6.833 129.903  0.00  0.00    +0.092 C 
BRANCH  14  15
ATOM     15  C   LIG A   1     -11.697   7.275 128.816  0.00  0.00    +0.332 C 
ATOM     16  O   LIG A   1     -12.373   6.552 128.119  0.00  0.00    -0.246 OA
BRANCH  15  17
ATOM     17  O   LIG A   1     -11.679   8.631 128.828  0.00  0.00    -0.465 OA
ATOM     18  C   LIG A   1     -12.788   9.202 129.514  0.00  0.00    +0.280 C 
ENDBRANCH  15  17
ENDBRANCH  14  15
ENDBRANCH   5  13
TORSDOF 6
ENDMDL
MODEL 4
REMARK VINA RESULT:      -5.1      8.466     10.515
REMARK  Name = NuBBE_26
REMARK  10 active torsions:
REMARK  status: ('A' for Active; 'I' for Inactive)
REMARK    1  A    between atoms: C_1  and  O_2
REMARK    2  A    between atoms: O_2  and  C_3
REMARK    3  A    between atoms: C_4  and  O_5
REMARK    4  A    between atoms: O_5  and  C_6
REMARK    5  A    between atoms: C_7  and  O_8
REMARK    6  A    between atoms: O_8  and  C_9
REMARK    7  A    between atoms: C_11  and  C_12
REMARK    8  A    between atoms: C_13  and  C_14
REMARK    9  A    between atoms: C_14  and  O_15
REMARK   10  A    between atoms: O_15  and  C_16
REMARK                            x       y       z     vdW  Elec       q    Type
REMARK                         _______ _______ _______ _____ _____    ______ ____
ROOT
ATOM      1  C   LIG A   1     -11.634   6.974 130.161  0.00  0.00    +0.166 A 
ATOM      2  C   LIG A   1     -10.874   6.509 129.065  0.00  0.00    +0.203 A 
ATOM      3  C   LIG A   1      -9.653   5.830 129.315  0.00  0.00    +0.166 A 
ATOM      4  C   LIG A   1      -9.212   5.643 130.631  0.00  0.00    +0.057 A 
ATOM      5  C   LIG A   1      -9.985   6.078 131.704  0.00  0.00    -0.018 A 
ATOM      6  C   LIG A   1     -11.186   6.738 131.468  0.00  0.00    +0.057 A 
ENDROOT
BRANCH   1   8
ATOM      7  C   LIG A   1     -12.813   9.021 129.892  0.00  0.00    +0.277 C 
ATOM      8  O   LIG A   1     -12.834   7.598 129.939  0.00  0.00    -0.491 OA
ENDBRANCH   1   8
BRANCH   2   9
ATOM      9  O   LIG A   1     -11.193   6.646 127.732  0.00  0.00    -0.488 OA
ATOM     10  C   LIG A   1     -10.894   7.865 127.063  0.00  0.00    +0.277 C 
ENDBRANCH   2   9
BRANCH   3  11
ATOM     11  O   LIG A   1      -8.910   5.403 128.235  0.00  0.00    -0.491 OA
ATOM     12  C   LIG A   1      -8.030   4.306 128.485  0.00  0.00    +0.277 C 
ENDBRANCH   3  11
BRANCH   5  13
ATOM     13  C   LIG A   1      -9.520   5.860 133.066  0.00  0.00    +0.015 C 
ATOM     14  C   LIG A   1      -8.217   5.665 133.311  0.00  0.00    +0.092 C 
BRANCH  14  15
ATOM     15  C   LIG A   1      -7.792   5.324 134.682  0.00  0.00    +0.332 C 
ATOM     16  O   LIG A   1      -7.827   6.066 135.639  0.00  0.00    -0.246 OA
BRANCH  15  17
ATOM     17  O   LIG A   1      -7.453   4.011 134.667  0.00  0.00    -0.465 OA
ATOM     18  C   LIG A   1      -6.564   3.673 133.606  0.00  0.00    +0.280 C 
ENDBRANCH  15  17
ENDBRANCH  14  15
ENDBRANCH   5  13
TORSDOF 6
ENDMDL
MODEL 5
REMARK VINA RESULT:      -5.1      9.690     11.581
REMARK  Name = NuBBE_26
REMARK  10 active torsions:
REMARK  status: ('A' for Active; 'I' for Inactive)
REMARK    1  A    between atoms: C_1  and  O_2
REMARK    2  A    between atoms: O_2  and  C_3
REMARK    3  A    between atoms: C_4  and  O_5
REMARK    4  A    between atoms: O_5  and  C_6
REMARK    5  A    between atoms: C_7  and  O_8
REMARK    6  A    between atoms: O_8  and  C_9
REMARK    7  A    between atoms: C_11  and  C_12
REMARK    8  A    between atoms: C_13  and  C_14
REMARK    9  A    between atoms: C_14  and  O_15
REMARK   10  A    between atoms: O_15  and  C_16
REMARK                            x       y       z     vdW  Elec       q    Type
REMARK                         _______ _______ _______ _____ _____    ______ ____
ROOT
ATOM      1  C   LIG A   1      -6.225   6.744 131.491  0.00  0.00    +0.166 A 
ATOM      2  C   LIG A   1      -6.430   5.985 132.665  0.00  0.00    +0.203 A 
ATOM      3  C   LIG A   1      -7.754   5.626 133.026  0.00  0.00    +0.166 A 
ATOM      4  C   LIG A   1      -8.833   6.034 132.234  0.00  0.00    +0.057 A 
ATOM      5  C   LIG A   1      -8.617   6.754 131.063  0.00  0.00    -0.018 A 
ATOM      6  C   LIG A   1      -7.322   7.106 130.696  0.00  0.00    +0.057 A 
ENDROOT
BRANCH   1   8
ATOM      7  C   LIG A   1      -4.448   6.409 129.948  0.00  0.00    +0.277 C 
ATOM      8  O   LIG A   1      -4.950   7.068 131.105  0.00  0.00    -0.491 OA
ENDBRANCH   1   8
BRANCH   2   9
ATOM      9  O   LIG A   1      -5.455   5.540 133.530  0.00  0.00    -0.488 OA
ATOM     10  C   LIG A   1      -4.706   4.377 133.201  0.00  0.00    +0.277 C 
ENDBRANCH   2   9
BRANCH   3  11
ATOM     11  O   LIG A   1      -7.941   4.906 134.188  0.00  0.00    -0.491 OA
ATOM     12  C   LIG A   1      -8.887   3.839 134.109  0.00  0.00    +0.277 C 
ENDBRANCH   3  11
BRANCH   5  13
ATOM     13  C   LIG A   1      -9.748   7.157 130.241  0.00  0.00    +0.015 C 
ATOM     14  C   LIG A   1     -10.961   6.631 130.459  0.00  0.00    +0.092 C 
BRANCH  14  15
ATOM     15  C   LIG A   1     -12.061   6.963 129.533  0.00  0.00    +0.332 C 
ATOM     16  O   LIG A   1     -12.437   6.280 128.607  0.00  0.00    -0.246 OA
BRANCH  15  17
ATOM     17  O   LIG A   1     -12.611   8.118 129.985  0.00  0.00    -0.465 OA
ATOM     18  C   LIG A   1     -12.687   9.132 128.988  0.00  0.00    +0.280 C 
ENDBRANCH  15  17
ENDBRANCH  14  15
ENDBRANCH   5  13
TORSDOF 6
ENDMDL
MODEL 6
REMARK VINA RESULT:      -5.0      1.863      6.811
REMARK  Name = NuBBE_26
REMARK  10 active torsions:
REMARK  status: ('A' for Active; 'I' for Inactive)
REMARK    1  A    between atoms: C_1  and  O_2
REMARK    2  A    between atoms: O_2  and  C_3
REMARK    3  A    between atoms: C_4  and  O_5
REMARK    4  A    between atoms: O_5  and  C_6
REMARK    5  A    between atoms: C_7  and  O_8
REMARK    6  A    between atoms: O_8  and  C_9
REMARK    7  A    between atoms: C_11  and  C_12
REMARK    8  A    between atoms: C_13  and  C_14
REMARK    9  A    between atoms: C_14  and  O_15
REMARK   10  A    between atoms: O_15  and  C_16
REMARK                            x       y       z     vdW  Elec       q    Type
REMARK                         _______ _______ _______ _____ _____    ______ ____
ROOT
ATOM      1  C   LIG A   1      -6.695   2.134 124.537  0.00  0.00    +0.166 A 
ATOM      2  C   LIG A   1      -7.878   1.366 124.617  0.00  0.00    +0.203 A 
ATOM      3  C   LIG A   1      -8.826   1.456 123.565  0.00  0.00    +0.166 A 
ATOM      4  C   LIG A   1      -8.590   2.306 122.478  0.00  0.00    +0.057 A 
ATOM      5  C   LIG A   1      -7.406   3.034 122.395  0.00  0.00    -0.018 A 
ATOM      6  C   LIG A   1      -6.468   2.947 123.418  0.00  0.00    +0.057 A 
ENDROOT
BRANCH   1   8
ATOM      7  C   LIG A   1      -5.600   3.158 126.383  0.00  0.00    +0.277 C 
ATOM      8  O   LIG A   1      -5.751   2.031 125.525  0.00  0.00    -0.491 OA
ENDBRANCH   1   8
BRANCH   2   9
ATOM      9  O   LIG A   1      -8.229   0.510 125.638  0.00  0.00    -0.488 OA
ATOM     10  C   LIG A   1      -8.739   1.044 126.853  0.00  0.00    +0.277 C 
ENDBRANCH   2   9
BRANCH   3  11
ATOM     11  O   LIG A   1      -9.988   0.719 123.668  0.00  0.00    -0.491 OA
ATOM     12  C   LIG A   1     -10.356  -0.021 122.504  0.00  0.00    +0.277 C 
ENDBRANCH   3  11
BRANCH   5  13
ATOM     13  C   LIG A   1      -7.168   3.900 121.250  0.00  0.00    +0.015 C 
ATOM     14  C   LIG A   1      -5.921   4.101 120.804  0.00  0.00    +0.092 C 
BRANCH  14  15
ATOM     15  C   LIG A   1      -5.698   5.079 119.722  0.00  0.00    +0.332 C 
ATOM     16  O   LIG A   1      -6.264   5.092 118.652  0.00  0.00    -0.246 OA
BRANCH  15  17
ATOM     17  O   LIG A   1      -4.820   5.994 120.204  0.00  0.00    -0.465 OA
ATOM     18  C   LIG A   1      -4.102   5.537 121.345  0.00  0.00    +0.280 C 
ENDBRANCH  15  17
ENDBRANCH  14  15
ENDBRANCH   5  13
TORSDOF 6
ENDMDL
MODEL 7
REMARK VINA RESULT:      -5.0      4.297      7.011
REMARK  Name = NuBBE_26
REMARK  10 active torsions:
REMARK  status: ('A' for Active; 'I' for Inactive)
REMARK    1  A    between atoms: C_1  and  O_2
REMARK    2  A    between atoms: O_2  and  C_3
REMARK    3  A    between atoms: C_4  and  O_5
REMARK    4  A    between atoms: O_5  and  C_6
REMARK    5  A    between atoms: C_7  and  O_8
REMARK    6  A    between atoms: O_8  and  C_9
REMARK    7  A    between atoms: C_11  and  C_12
REMARK    8  A    between atoms: C_13  and  C_14
REMARK    9  A    between atoms: C_14  and  O_15
REMARK   10  A    between atoms: O_15  and  C_16
REMARK                            x       y       z     vdW  Elec       q    Type
REMARK                         _______ _______ _______ _____ _____    ______ ____
ROOT
ATOM      1  C   LIG A   1      -7.764  -0.193 123.910  0.00  0.00    +0.166 A 
ATOM      2  C   LIG A   1      -7.481  -1.554 123.662  0.00  0.00    +0.203 A 
ATOM      3  C   LIG A   1      -6.374  -2.155 124.315  0.00  0.00    +0.166 A 
ATOM      4  C   LIG A   1      -5.574  -1.397 125.179  0.00  0.00    +0.057 A 
ATOM      5  C   LIG A   1      -5.881  -0.065 125.441  0.00  0.00    -0.018 A 
ATOM      6  C   LIG A   1      -6.968   0.530 124.810  0.00  0.00    +0.057 A 
ENDROOT
BRANCH   1   8
ATOM      7  C   LIG A   1      -9.038   1.784 123.563  0.00  0.00    +0.277 C 
ATOM      8  O   LIG A   1      -8.852   0.394 123.318  0.00  0.00    -0.491 OA
ENDBRANCH   1   8
BRANCH   2   9
ATOM      9  O   LIG A   1      -8.182  -2.395 122.825  0.00  0.00    -0.488 OA
ATOM     10  C   LIG A   1      -9.356  -3.038 123.304  0.00  0.00    +0.277 C 
ENDBRANCH   2   9
BRANCH   3  11
ATOM     11  O   LIG A   1      -6.095  -3.478 124.044  0.00  0.00    -0.491 OA
ATOM     12  C   LIG A   1      -4.741  -3.765 123.695  0.00  0.00    +0.277 C 
ENDBRANCH   3  11
BRANCH   5  13
ATOM     13  C   LIG A   1      -5.049   0.704 126.354  0.00  0.00    +0.015 C 
ATOM     14  C   LIG A   1      -4.919   2.028 126.195  0.00  0.00    +0.092 C 
BRANCH  14  15
ATOM     15  C   LIG A   1      -3.973   2.760 127.058  0.00  0.00    +0.332 C 
ATOM     16  O   LIG A   1      -3.963   2.747 128.269  0.00  0.00    -0.246 OA
BRANCH  15  17
ATOM     17  O   LIG A   1      -3.079   3.358 126.232  0.00  0.00    -0.465 OA
ATOM     18  C   LIG A   1      -1.725   3.064 126.561  0.00  0.00    +0.280 C 
ENDBRANCH  15  17
ENDBRANCH  14  15
ENDBRANCH   5  13
TORSDOF 6
ENDMDL
MODEL 8
REMARK VINA RESULT:      -5.0      5.297      8.570
REMARK  Name = NuBBE_26
REMARK  10 active torsions:
REMARK  status: ('A' for Active; 'I' for Inactive)
REMARK    1  A    between atoms: C_1  and  O_2
REMARK    2  A    between atoms: O_2  and  C_3
REMARK    3  A    between atoms: C_4  and  O_5
REMARK    4  A    between atoms: O_5  and  C_6
REMARK    5  A    between atoms: C_7  and  O_8
REMARK    6  A    between atoms: O_8  and  C_9
REMARK    7  A    between atoms: C_11  and  C_12
REMARK    8  A    between atoms: C_13  and  C_14
REMARK    9  A    between atoms: C_14  and  O_15
REMARK   10  A    between atoms: O_15  and  C_16
REMARK                            x       y       z     vdW  Elec       q    Type
REMARK                         _______ _______ _______ _____ _____    ______ ____
ROOT
ATOM      1  C   LIG A   1      -9.133  -2.329 125.959  0.00  0.00    +0.166 A 
ATOM      2  C   LIG A   1      -8.790  -0.958 125.970  0.00  0.00    +0.203 A 
ATOM      3  C   LIG A   1      -8.030  -0.450 127.055  0.00  0.00    +0.166 A 
ATOM      4  C   LIG A   1      -7.644  -1.299 128.099  0.00  0.00    +0.057 A 
ATOM      5  C   LIG A   1      -7.959  -2.654 128.062  0.00  0.00    -0.018 A 
ATOM      6  C   LIG A   1      -8.698  -3.163 126.999  0.00  0.00    +0.057 A 
ENDROOT
BRANCH   1   8
ATOM      7  C   LIG A   1      -9.068  -3.455 123.867  0.00  0.00    +0.277 C 
ATOM      8  O   LIG A   1      -9.834  -2.845 124.901  0.00  0.00    -0.491 OA
ENDBRANCH   1   8
BRANCH   2   9
ATOM      9  O   LIG A   1      -9.125  -0.025 125.014  0.00  0.00    -0.488 OA
ATOM     10  C   LIG A   1      -8.306   0.118 123.860  0.00  0.00    +0.277 C 
ENDBRANCH   2   9
BRANCH   3  11
ATOM     11  O   LIG A   1      -7.724   0.895 127.065  0.00  0.00    -0.491 OA
ATOM     12  C   LIG A   1      -8.428   1.681 128.028  0.00  0.00    +0.277 C 
ENDBRANCH   3  11
BRANCH   5  13
ATOM     13  C   LIG A   1      -7.535  -3.527 129.147  0.00  0.00    +0.015 C 
ATOM     14  C   LIG A   1      -6.442  -3.230 129.863  0.00  0.00    +0.092 C 
BRANCH  14  15
ATOM     15  C   LIG A   1      -5.967  -4.194 130.873  0.00  0.00    +0.332 C 
ATOM     16  O   LIG A   1      -5.670  -5.349 130.664  0.00  0.00    -0.246 OA
BRANCH  15  17
ATOM     17  O   LIG A   1      -5.842  -3.507 132.036  0.00  0.00    -0.465 OA
ATOM     18  C   LIG A   1      -5.244  -2.225 131.869  0.00  0.00    +0.280 C 
ENDBRANCH  15  17
ENDBRANCH  14  15
ENDBRANCH   5  13
TORSDOF 6
ENDMDL
MODEL 9
REMARK VINA RESULT:      -5.0      5.325      8.858
REMARK  Name = NuBBE_26
REMARK  10 active torsions:
REMARK  status: ('A' for Active; 'I' for Inactive)
REMARK    1  A    between atoms: C_1  and  O_2
REMARK    2  A    between atoms: O_2  and  C_3
REMARK    3  A    between atoms: C_4  and  O_5
REMARK    4  A    between atoms: O_5  and  C_6
REMARK    5  A    between atoms: C_7  and  O_8
REMARK    6  A    between atoms: O_8  and  C_9
REMARK    7  A    between atoms: C_11  and  C_12
REMARK    8  A    between atoms: C_13  and  C_14
REMARK    9  A    between atoms: C_14  and  O_15
REMARK   10  A    between atoms: O_15  and  C_16
REMARK                            x       y       z     vdW  Elec       q    Type
REMARK                         _______ _______ _______ _____ _____    ______ ____
ROOT
ATOM      1  C   LIG A   1      -7.966  -0.425 127.127  0.00  0.00    +0.166 A 
ATOM      2  C   LIG A   1      -8.723  -0.919 126.042  0.00  0.00    +0.203 A 
ATOM      3  C   LIG A   1      -9.069  -2.295 126.017  0.00  0.00    +0.166 A 
ATOM      4  C   LIG A   1      -8.650  -3.142 127.050  0.00  0.00    +0.057 A 
ATOM      5  C   LIG A   1      -7.932  -2.638 128.130  0.00  0.00    -0.018 A 
ATOM      6  C   LIG A   1      -7.593  -1.290 128.167  0.00  0.00    +0.057 A 
ENDROOT
BRANCH   1   8
ATOM      7  C   LIG A   1      -8.442   1.707 128.065  0.00  0.00    +0.277 C 
ATOM      8  O   LIG A   1      -7.655   0.908 127.188  0.00  0.00    -0.491 OA
ENDBRANCH   1   8
BRANCH   2   9
ATOM      9  O   LIG A   1      -9.177  -0.191 124.965  0.00  0.00    -0.488 OA
ATOM     10  C   LIG A   1      -8.263   0.196 123.946  0.00  0.00    +0.277 C 
ENDBRANCH   2   9
BRANCH   3  11
ATOM     11  O   LIG A   1      -9.787  -2.769 124.939  0.00  0.00    -0.491 OA
ATOM     12  C   LIG A   1      -9.029  -3.464 123.949  0.00  0.00    +0.277 C 
ENDBRANCH   3  11
BRANCH   5  13
ATOM     13  C   LIG A   1      -7.518  -3.529 129.204  0.00  0.00    +0.015 C 
ATOM     14  C   LIG A   1      -6.410  -3.266 129.910  0.00  0.00    +0.092 C 
BRANCH  14  15
ATOM     15  C   LIG A   1      -5.948  -4.250 130.907  0.00  0.00    +0.332 C 
ATOM     16  O   LIG A   1      -5.640  -5.398 130.679  0.00  0.00    -0.246 OA
BRANCH  15  17
ATOM     17  O   LIG A   1      -5.851  -3.588 132.087  0.00  0.00    -0.465 OA
ATOM     18  C   LIG A   1      -4.994  -2.452 132.024  0.00  0.00    +0.280 C 
ENDBRANCH  15  17
ENDBRANCH  14  15
ENDBRANCH   5  13
TORSDOF 6
ENDMDL
