MODEL 1
REMARK VINA RESULT:      -6.5      0.000      0.000
REMARK  Name = NuBBE_2349
REMARK  11 active torsions:
REMARK  status: ('A' for Active; 'I' for Inactive)
REMARK    1  A    between atoms: C_1  and  O_2
REMARK    2  A    between atoms: O_2  and  C_3
REMARK    3  A    between atoms: C_4  and  O_5
REMARK    4  A    between atoms: O_5  and  C_6
REMARK    5  A    between atoms: C_7  and  O_8
REMARK    6  A    between atoms: O_8  and  C_9
REMARK    7  A    between atoms: C_11  and  C_12
REMARK    8  A    between atoms: C_17  and  O_18
REMARK    9  A    between atoms: C_19  and  O_20
REMARK   10  A    between atoms: O_20  and  C_21
REMARK   11  A    between atoms: C_24  and  C_26
REMARK                            x       y       z     vdW  Elec       q    Type
REMARK                         _______ _______ _______ _____ _____    ______ ____
ROOT
ATOM      1  C   LIG A   1      -6.252   2.548 124.891  0.00  0.00    +0.211 C 
ATOM      2  O   LIG A   1      -7.645   2.941 124.746  0.00  0.00    -0.483 OA
ATOM      3  C   LIG A   1      -8.247   1.832 124.228  0.00  0.00    +0.129 A 
ATOM      4  C   LIG A   1      -9.537   1.817 123.732  0.00  0.00    +0.095 A 
ATOM      5  C   LIG A   1     -10.007   0.598 123.262  0.00  0.00    +0.162 A 
ATOM      6  C   LIG A   1      -9.224  -0.573 123.283  0.00  0.00    +0.162 A 
ATOM      7  C   LIG A   1      -7.921  -0.522 123.793  0.00  0.00    +0.057 A 
ATOM      8  C   LIG A   1      -7.463   0.693 124.272  0.00  0.00    +0.005 A 
ATOM      9  C   LIG A   1      -6.185   0.998 124.978  0.00  0.00    +0.065 C 
ATOM     10  C   LIG A   1      -6.211   0.386 126.380  0.00  0.00    +0.016 C 
ENDROOT
BRANCH   1  15
ATOM     11  C   LIG A   1      -5.732   4.586 128.093  0.00  0.00    +0.166 A 
ATOM     12  C   LIG A   1      -4.326   4.651 128.162  0.00  0.00    +0.203 A 
ATOM     13  C   LIG A   1      -3.555   4.017 127.156  0.00  0.00    +0.166 A 
ATOM     14  C   LIG A   1      -4.196   3.383 126.085  0.00  0.00    +0.057 A 
ATOM     15  C   LIG A   1      -5.590   3.300 126.024  0.00  0.00    +0.000 A 
ATOM     16  C   LIG A   1      -6.342   3.907 127.034  0.00  0.00    +0.057 A 
BRANCH  11  18
ATOM     17  C   LIG A   1      -7.777   4.479 129.274  0.00  0.00    +0.277 C 
ATOM     18  O   LIG A   1      -6.497   5.089 129.118  0.00  0.00    -0.491 OA
ENDBRANCH  11  18
BRANCH  12  19
ATOM     19  O   LIG A   1      -3.600   5.282 129.146  0.00  0.00    -0.488 OA
ATOM     20  C   LIG A   1      -3.406   6.687 129.034  0.00  0.00    +0.277 C 
ENDBRANCH  12  19
BRANCH  13  21
ATOM     21  O   LIG A   1      -2.184   4.050 127.292  0.00  0.00    -0.491 OA
ATOM     22  C   LIG A   1      -1.439   3.022 126.643  0.00  0.00    +0.277 C 
ENDBRANCH  13  21
ENDBRANCH   1  15
BRANCH   5  23
ATOM     23  O   LIG A   1     -11.289   0.554 122.774  0.00  0.00    -0.503 OA
ATOM     24  H   LIG A   1     -11.219   0.072 121.929  0.00  0.00    +0.292 HD
ENDBRANCH   5  23
BRANCH   6  25
ATOM     25  O   LIG A   1      -9.846  -1.697 122.806  0.00  0.00    -0.491 OA
ATOM     26  C   LIG A   1      -9.375  -2.940 123.315  0.00  0.00    +0.277 C 
ENDBRANCH   6  25
TORSDOF 6
ENDMDL
MODEL 2
REMARK VINA RESULT:      -6.5      5.582     10.225
REMARK  Name = NuBBE_2349
REMARK  11 active torsions:
REMARK  status: ('A' for Active; 'I' for Inactive)
REMARK    1  A    between atoms: C_1  and  O_2
REMARK    2  A    between atoms: O_2  and  C_3
REMARK    3  A    between atoms: C_4  and  O_5
REMARK    4  A    between atoms: O_5  and  C_6
REMARK    5  A    between atoms: C_7  and  O_8
REMARK    6  A    between atoms: O_8  and  C_9
REMARK    7  A    between atoms: C_11  and  C_12
REMARK    8  A    between atoms: C_17  and  O_18
REMARK    9  A    between atoms: C_19  and  O_20
REMARK   10  A    between atoms: O_20  and  C_21
REMARK   11  A    between atoms: C_24  and  C_26
REMARK                            x       y       z     vdW  Elec       q    Type
REMARK                         _______ _______ _______ _____ _____    ______ ____
ROOT
ATOM      1  C   LIG A   1      -8.077   5.973 133.273  0.00  0.00    +0.211 C 
ATOM      2  O   LIG A   1      -6.726   6.122 132.754  0.00  0.00    -0.483 OA
ATOM      3  C   LIG A   1      -5.944   5.525 133.699  0.00  0.00    +0.129 A 
ATOM      4  C   LIG A   1      -4.565   5.612 133.725  0.00  0.00    +0.095 A 
ATOM      5  C   LIG A   1      -3.918   4.925 134.743  0.00  0.00    +0.162 A 
ATOM      6  C   LIG A   1      -4.615   4.172 135.707  0.00  0.00    +0.162 A 
ATOM      7  C   LIG A   1      -6.012   4.104 135.652  0.00  0.00    +0.057 A 
ATOM      8  C   LIG A   1      -6.651   4.781 134.627  0.00  0.00    +0.005 A 
ATOM      9  C   LIG A   1      -8.096   4.772 134.259  0.00  0.00    +0.065 C 
ATOM     10  C   LIG A   1      -8.473   3.410 133.675  0.00  0.00    +0.016 C 
ENDROOT
BRANCH   1  15
ATOM     11  C   LIG A   1     -11.376   6.153 131.333  0.00  0.00    +0.166 A 
ATOM     12  C   LIG A   1     -10.949   5.870 130.022  0.00  0.00    +0.203 A 
ATOM     13  C   LIG A   1      -9.574   5.628 129.779  0.00  0.00    +0.166 A 
ATOM     14  C   LIG A   1      -8.670   5.621 130.849  0.00  0.00    +0.057 A 
ATOM     15  C   LIG A   1      -9.088   5.919 132.149  0.00  0.00    +0.000 A 
ATOM     16  C   LIG A   1     -10.442   6.182 132.375  0.00  0.00    +0.057 A 
BRANCH  11  18
ATOM     17  C   LIG A   1     -12.932   7.912 131.603  0.00  0.00    +0.277 C 
ATOM     18  O   LIG A   1     -12.682   6.507 131.573  0.00  0.00    -0.491 OA
ENDBRANCH  11  18
BRANCH  12  19
ATOM     19  O   LIG A   1     -11.758   5.812 128.909  0.00  0.00    -0.488 OA
ATOM     20  C   LIG A   1     -12.031   7.028 128.221  0.00  0.00    +0.277 C 
ENDBRANCH  12  19
BRANCH  13  21
ATOM     21  O   LIG A   1      -9.186   5.417 128.474  0.00  0.00    -0.491 OA
ATOM     22  C   LIG A   1      -8.152   4.463 128.245  0.00  0.00    +0.277 C 
ENDBRANCH  13  21
ENDBRANCH   1  15
BRANCH   5  23
ATOM     23  O   LIG A   1      -2.548   4.987 134.783  0.00  0.00    -0.503 OA
ATOM     24  H   LIG A   1      -2.283   5.267 133.888  0.00  0.00    +0.292 HD
ENDBRANCH   5  23
BRANCH   6  25
ATOM     25  O   LIG A   1      -3.826   3.534 136.629  0.00  0.00    -0.491 OA
ATOM     26  C   LIG A   1      -4.010   2.127 136.748  0.00  0.00    +0.277 C 
ENDBRANCH   6  25
TORSDOF 6
ENDMDL
MODEL 3
REMARK VINA RESULT:      -6.4      0.560      2.670
REMARK  Name = NuBBE_2349
REMARK  11 active torsions:
REMARK  status: ('A' for Active; 'I' for Inactive)
REMARK    1  A    between atoms: C_1  and  O_2
REMARK    2  A    between atoms: O_2  and  C_3
REMARK    3  A    between atoms: C_4  and  O_5
REMARK    4  A    between atoms: O_5  and  C_6
REMARK    5  A    between atoms: C_7  and  O_8
REMARK    6  A    between atoms: O_8  and  C_9
REMARK    7  A    between atoms: C_11  and  C_12
REMARK    8  A    between atoms: C_17  and  O_18
REMARK    9  A    between atoms: C_19  and  O_20
REMARK   10  A    between atoms: O_20  and  C_21
REMARK   11  A    between atoms: C_24  and  C_26
REMARK                            x       y       z     vdW  Elec       q    Type
REMARK                         _______ _______ _______ _____ _____    ______ ____
ROOT
ATOM      1  C   LIG A   1      -6.195   2.304 125.053  0.00  0.00    +0.211 C 
ATOM      2  O   LIG A   1      -7.555   2.776 124.845  0.00  0.00    -0.483 OA
ATOM      3  C   LIG A   1      -8.198   1.697 124.313  0.00  0.00    +0.129 A 
ATOM      4  C   LIG A   1      -9.465   1.750 123.763  0.00  0.00    +0.095 A 
ATOM      5  C   LIG A   1      -9.986   0.555 123.285  0.00  0.00    +0.162 A 
ATOM      6  C   LIG A   1      -9.273  -0.659 123.351  0.00  0.00    +0.162 A 
ATOM      7  C   LIG A   1      -7.992  -0.677 123.915  0.00  0.00    +0.057 A 
ATOM      8  C   LIG A   1      -7.484   0.515 124.401  0.00  0.00    +0.005 A 
ATOM      9  C   LIG A   1      -6.221   0.754 125.157  0.00  0.00    +0.065 C 
ATOM     10  C   LIG A   1      -6.340   0.162 126.563  0.00  0.00    +0.016 C 
ENDROOT
BRANCH   1  15
ATOM     11  C   LIG A   1      -3.536   3.817 127.360  0.00  0.00    +0.166 A 
ATOM     12  C   LIG A   1      -4.334   4.446 128.336  0.00  0.00    +0.203 A 
ATOM     13  C   LIG A   1      -5.744   4.375 128.226  0.00  0.00    +0.166 A 
ATOM     14  C   LIG A   1      -6.325   3.641 127.185  0.00  0.00    +0.057 A 
ATOM     15  C   LIG A   1      -5.537   3.031 126.205  0.00  0.00    +0.000 A 
ATOM     16  C   LIG A   1      -4.146   3.128 126.306  0.00  0.00    +0.057 A 
BRANCH  11  18
ATOM     17  C   LIG A   1      -1.443   3.032 126.589  0.00  0.00    +0.277 C 
ATOM     18  O   LIG A   1      -2.171   3.972 127.378  0.00  0.00    -0.491 OA
ENDBRANCH  11  18
BRANCH  12  19
ATOM     19  O   LIG A   1      -3.865   5.155 129.418  0.00  0.00    -0.488 OA
ATOM     20  C   LIG A   1      -3.371   4.421 130.532  0.00  0.00    +0.277 C 
ENDBRANCH  12  19
BRANCH  13  21
ATOM     21  O   LIG A   1      -6.489   5.055 129.165  0.00  0.00    -0.491 OA
ATOM     22  C   LIG A   1      -7.806   4.577 129.426  0.00  0.00    +0.277 C 
ENDBRANCH  13  21
ENDBRANCH   1  15
BRANCH   5  23
ATOM     23  O   LIG A   1     -11.247   0.579 122.744  0.00  0.00    -0.503 OA
ATOM     24  H   LIG A   1     -11.824   0.879 123.470  0.00  0.00    +0.292 HD
ENDBRANCH   5  23
BRANCH   6  25
ATOM     25  O   LIG A   1      -9.939  -1.751 122.858  0.00  0.00    -0.491 OA
ATOM     26  C   LIG A   1      -9.453  -3.023 123.273  0.00  0.00    +0.277 C 
ENDBRANCH   6  25
TORSDOF 6
ENDMDL
MODEL 4
REMARK VINA RESULT:      -6.3      5.395      9.118
REMARK  Name = NuBBE_2349
REMARK  11 active torsions:
REMARK  status: ('A' for Active; 'I' for Inactive)
REMARK    1  A    between atoms: C_1  and  O_2
REMARK    2  A    between atoms: O_2  and  C_3
REMARK    3  A    between atoms: C_4  and  O_5
REMARK    4  A    between atoms: O_5  and  C_6
REMARK    5  A    between atoms: C_7  and  O_8
REMARK    6  A    between atoms: O_8  and  C_9
REMARK    7  A    between atoms: C_11  and  C_12
REMARK    8  A    between atoms: C_17  and  O_18
REMARK    9  A    between atoms: C_19  and  O_20
REMARK   10  A    between atoms: O_20  and  C_21
REMARK   11  A    between atoms: C_24  and  C_26
REMARK                            x       y       z     vdW  Elec       q    Type
REMARK                         _______ _______ _______ _____ _____    ______ ____
ROOT
ATOM      1  C   LIG A   1      -6.450  -1.686 128.639  0.00  0.00    +0.211 C 
ATOM      2  O   LIG A   1      -5.149  -2.329 128.745  0.00  0.00    -0.483 OA
ATOM      3  C   LIG A   1      -5.110  -2.781 130.031  0.00  0.00    +0.129 A 
ATOM      4  C   LIG A   1      -3.972  -3.275 130.639  0.00  0.00    +0.095 A 
ATOM      5  C   LIG A   1      -4.109  -3.718 131.948  0.00  0.00    +0.162 A 
ATOM      6  C   LIG A   1      -5.338  -3.673 132.635  0.00  0.00    +0.162 A 
ATOM      7  C   LIG A   1      -6.472  -3.166 131.989  0.00  0.00    +0.057 A 
ATOM      8  C   LIG A   1      -6.331  -2.739 130.680  0.00  0.00    +0.005 A 
ATOM      9  C   LIG A   1      -7.385  -2.284 129.727  0.00  0.00    +0.065 C 
ATOM     10  C   LIG A   1      -8.252  -3.473 129.309  0.00  0.00    +0.016 C 
ENDROOT
BRANCH   1  15
ATOM     11  C   LIG A   1      -6.854  -2.617 124.944  0.00  0.00    +0.166 A 
ATOM     12  C   LIG A   1      -7.997  -1.875 124.590  0.00  0.00    +0.203 A 
ATOM     13  C   LIG A   1      -8.635  -1.076 125.571  0.00  0.00    +0.166 A 
ATOM     14  C   LIG A   1      -8.094  -0.994 126.859  0.00  0.00    +0.057 A 
ATOM     15  C   LIG A   1      -6.970  -1.742 127.220  0.00  0.00    +0.000 A 
ATOM     16  C   LIG A   1      -6.362  -2.547 126.252  0.00  0.00    +0.057 A 
BRANCH  11  18
ATOM     17  C   LIG A   1      -4.980  -3.137 123.600  0.00  0.00    +0.277 C 
ATOM     18  O   LIG A   1      -6.290  -3.489 124.045  0.00  0.00    -0.491 OA
ENDBRANCH  11  18
BRANCH  12  19
ATOM     19  O   LIG A   1      -8.585  -1.854 123.345  0.00  0.00    -0.488 OA
ATOM     20  C   LIG A   1      -9.456  -2.926 123.002  0.00  0.00    +0.277 C 
ENDBRANCH  12  19
BRANCH  13  21
ATOM     21  O   LIG A   1      -9.787  -0.416 125.201  0.00  0.00    -0.491 OA
ATOM     22  C   LIG A   1      -9.719   1.004 125.091  0.00  0.00    +0.277 C 
ENDBRANCH  13  21
ENDBRANCH   1  15
BRANCH   5  23
ATOM     23  O   LIG A   1      -2.996  -4.223 132.571  0.00  0.00    -0.503 OA
ATOM     24  H   LIG A   1      -2.509  -4.694 131.869  0.00  0.00    +0.292 HD
ENDBRANCH   5  23
BRANCH   6  25
ATOM     25  O   LIG A   1      -5.309  -4.171 133.912  0.00  0.00    -0.491 OA
ATOM     26  C   LIG A   1      -6.011  -5.391 134.127  0.00  0.00    +0.277 C 
ENDBRANCH   6  25
TORSDOF 6
ENDMDL
MODEL 5
REMARK VINA RESULT:      -6.2      5.331      8.749
REMARK  Name = NuBBE_2349
REMARK  11 active torsions:
REMARK  status: ('A' for Active; 'I' for Inactive)
REMARK    1  A    between atoms: C_1  and  O_2
REMARK    2  A    between atoms: O_2  and  C_3
REMARK    3  A    between atoms: C_4  and  O_5
REMARK    4  A    between atoms: O_5  and  C_6
REMARK    5  A    between atoms: C_7  and  O_8
REMARK    6  A    between atoms: O_8  and  C_9
REMARK    7  A    between atoms: C_11  and  C_12
REMARK    8  A    between atoms: C_17  and  O_18
REMARK    9  A    between atoms: C_19  and  O_20
REMARK   10  A    between atoms: O_20  and  C_21
REMARK   11  A    between atoms: C_24  and  C_26
REMARK                            x       y       z     vdW  Elec       q    Type
REMARK                         _______ _______ _______ _____ _____    ______ ____
ROOT
ATOM      1  C   LIG A   1      -6.597  -1.674 128.573  0.00  0.00    +0.211 C 
ATOM      2  O   LIG A   1      -5.272  -2.271 128.659  0.00  0.00    -0.483 OA
ATOM      3  C   LIG A   1      -5.204  -2.734 129.940  0.00  0.00    +0.129 A 
ATOM      4  C   LIG A   1      -4.042  -3.192 130.532  0.00  0.00    +0.095 A 
ATOM      5  C   LIG A   1      -4.150  -3.653 131.837  0.00  0.00    +0.162 A 
ATOM      6  C   LIG A   1      -5.373  -3.659 132.537  0.00  0.00    +0.162 A 
ATOM      7  C   LIG A   1      -6.530  -3.187 131.907  0.00  0.00    +0.057 A 
ATOM      8  C   LIG A   1      -6.419  -2.743 130.601  0.00  0.00    +0.005 A 
ATOM      9  C   LIG A   1      -7.498  -2.317 129.664  0.00  0.00    +0.065 C 
ATOM     10  C   LIG A   1      -8.326  -3.532 129.242  0.00  0.00    +0.016 C 
ENDROOT
BRANCH   1  15
ATOM     11  C   LIG A   1      -8.725  -1.025 125.454  0.00  0.00    +0.166 A 
ATOM     12  C   LIG A   1      -8.070  -1.820 124.494  0.00  0.00    +0.203 A 
ATOM     13  C   LIG A   1      -6.926  -2.563 124.876  0.00  0.00    +0.166 A 
ATOM     14  C   LIG A   1      -6.493  -2.537 126.207  0.00  0.00    +0.057 A 
ATOM     15  C   LIG A   1      -7.129  -1.735 127.159  0.00  0.00    +0.000 A 
ATOM     16  C   LIG A   1      -8.243  -0.986 126.767  0.00  0.00    +0.057 A 
BRANCH  11  18
ATOM     17  C   LIG A   1      -9.391   1.135 124.758  0.00  0.00    +0.277 C 
ATOM     18  O   LIG A   1      -9.762  -0.205 125.080  0.00  0.00    -0.491 OA
ENDBRANCH  11  18
BRANCH  12  19
ATOM     19  O   LIG A   1      -8.436  -1.947 123.173  0.00  0.00    -0.488 OA
ATOM     20  C   LIG A   1      -9.430  -2.912 122.847  0.00  0.00    +0.277 C 
ENDBRANCH  12  19
BRANCH  13  21
ATOM     21  O   LIG A   1      -6.276  -3.279 123.894  0.00  0.00    -0.491 OA
ATOM     22  C   LIG A   1      -4.911  -2.955 123.644  0.00  0.00    +0.277 C 
ENDBRANCH  13  21
ENDBRANCH   1  15
BRANCH   5  23
ATOM     23  O   LIG A   1      -3.013  -4.124 132.443  0.00  0.00    -0.503 OA
ATOM     24  H   LIG A   1      -2.858  -3.516 133.190  0.00  0.00    +0.292 HD
ENDBRANCH   5  23
BRANCH   6  25
ATOM     25  O   LIG A   1      -5.312  -4.168 133.808  0.00  0.00    -0.491 OA
ATOM     26  C   LIG A   1      -5.961  -5.418 134.016  0.00  0.00    +0.277 C 
ENDBRANCH   6  25
TORSDOF 6
ENDMDL
MODEL 6
REMARK VINA RESULT:      -6.2      6.979      8.455
REMARK  Name = NuBBE_2349
REMARK  11 active torsions:
REMARK  status: ('A' for Active; 'I' for Inactive)
REMARK    1  A    between atoms: C_1  and  O_2
REMARK    2  A    between atoms: O_2  and  C_3
REMARK    3  A    between atoms: C_4  and  O_5
REMARK    4  A    between atoms: O_5  and  C_6
REMARK    5  A    between atoms: C_7  and  O_8
REMARK    6  A    between atoms: O_8  and  C_9
REMARK    7  A    between atoms: C_11  and  C_12
REMARK    8  A    between atoms: C_17  and  O_18
REMARK    9  A    between atoms: C_19  and  O_20
REMARK   10  A    between atoms: O_20  and  C_21
REMARK   11  A    between atoms: C_24  and  C_26
REMARK                            x       y       z     vdW  Elec       q    Type
REMARK                         _______ _______ _______ _____ _____    ______ ____
ROOT
ATOM      1  C   LIG A   1      -7.862   5.919 132.880  0.00  0.00    +0.211 C 
ATOM      2  O   LIG A   1      -9.250   5.533 133.085  0.00  0.00    -0.483 OA
ATOM      3  C   LIG A   1      -9.920   6.173 132.085  0.00  0.00    +0.129 A 
ATOM      4  C   LIG A   1     -11.297   6.261 132.014  0.00  0.00    +0.095 A 
ATOM      5  C   LIG A   1     -11.821   6.929 130.915  0.00  0.00    +0.162 A 
ATOM      6  C   LIG A   1     -11.006   7.494 129.915  0.00  0.00    +0.162 A 
ATOM      7  C   LIG A   1      -9.614   7.387 130.018  0.00  0.00    +0.057 A 
ATOM      8  C   LIG A   1      -9.098   6.708 131.109  0.00  0.00    +0.005 A 
ATOM      9  C   LIG A   1      -7.682   6.338 131.395  0.00  0.00    +0.065 C 
ATOM     10  C   LIG A   1      -7.227   5.247 130.424  0.00  0.00    +0.016 C 
ENDROOT
BRANCH   1  15
ATOM     11  C   LIG A   1      -6.466   2.528 133.988  0.00  0.00    +0.166 A 
ATOM     12  C   LIG A   1      -5.123   2.853 134.265  0.00  0.00    +0.203 A 
ATOM     13  C   LIG A   1      -4.681   4.186 134.080  0.00  0.00    +0.166 A 
ATOM     14  C   LIG A   1      -5.592   5.170 133.675  0.00  0.00    +0.057 A 
ATOM     15  C   LIG A   1      -6.920   4.848 133.382  0.00  0.00    +0.000 A 
ATOM     16  C   LIG A   1      -7.341   3.525 133.544  0.00  0.00    +0.057 A 
BRANCH  11  18
ATOM     17  C   LIG A   1      -7.018   0.571 132.783  0.00  0.00    +0.277 C 
ATOM     18  O   LIG A   1      -6.887   1.222 134.047  0.00  0.00    -0.491 OA
ENDBRANCH  11  18
BRANCH  12  19
ATOM     19  O   LIG A   1      -4.160   1.972 134.705  0.00  0.00    -0.488 OA
ATOM     20  C   LIG A   1      -3.516   1.153 133.736  0.00  0.00    +0.277 C 
ENDBRANCH  12  19
BRANCH  13  21
ATOM     21  O   LIG A   1      -3.347   4.449 134.301  0.00  0.00    -0.491 OA
ATOM     22  C   LIG A   1      -2.564   4.844 133.177  0.00  0.00    +0.277 C 
ENDBRANCH  13  21
ENDBRANCH   1  15
BRANCH   5  23
ATOM     23  O   LIG A   1     -13.187   7.021 130.816  0.00  0.00    -0.503 OA
ATOM     24  H   LIG A   1     -13.479   6.126 130.560  0.00  0.00    +0.292 HD
ENDBRANCH   5  23
BRANCH   6  25
ATOM     25  O   LIG A   1     -11.681   8.098 128.886  0.00  0.00    -0.491 OA
ATOM     26  C   LIG A   1     -11.197   7.830 127.574  0.00  0.00    +0.277 C 
ENDBRANCH   6  25
TORSDOF 6
ENDMDL
MODEL 7
REMARK VINA RESULT:      -6.2      6.960      8.649
REMARK  Name = NuBBE_2349
REMARK  11 active torsions:
REMARK  status: ('A' for Active; 'I' for Inactive)
REMARK    1  A    between atoms: C_1  and  O_2
REMARK    2  A    between atoms: O_2  and  C_3
REMARK    3  A    between atoms: C_4  and  O_5
REMARK    4  A    between atoms: O_5  and  C_6
REMARK    5  A    between atoms: C_7  and  O_8
REMARK    6  A    between atoms: O_8  and  C_9
REMARK    7  A    between atoms: C_11  and  C_12
REMARK    8  A    between atoms: C_17  and  O_18
REMARK    9  A    between atoms: C_19  and  O_20
REMARK   10  A    between atoms: O_20  and  C_21
REMARK   11  A    between atoms: C_24  and  C_26
REMARK                            x       y       z     vdW  Elec       q    Type
REMARK                         _______ _______ _______ _____ _____    ______ ____
ROOT
ATOM      1  C   LIG A   1      -7.688   5.906 132.750  0.00  0.00    +0.211 C 
ATOM      2  O   LIG A   1      -9.060   5.559 133.086  0.00  0.00    -0.483 OA
ATOM      3  C   LIG A   1      -9.800   6.178 132.123  0.00  0.00    +0.129 A 
ATOM      4  C   LIG A   1     -11.177   6.295 132.166  0.00  0.00    +0.095 A 
ATOM      5  C   LIG A   1     -11.780   6.935 131.091  0.00  0.00    +0.162 A 
ATOM      6  C   LIG A   1     -11.042   7.446 130.006  0.00  0.00    +0.162 A 
ATOM      7  C   LIG A   1      -9.649   7.311 129.994  0.00  0.00    +0.057 A 
ATOM      8  C   LIG A   1      -9.055   6.659 131.061  0.00  0.00    +0.005 A 
ATOM      9  C   LIG A   1      -7.627   6.268 131.240  0.00  0.00    +0.065 C 
ATOM     10  C   LIG A   1      -7.278   5.132 130.276  0.00  0.00    +0.016 C 
ENDROOT
BRANCH   1  15
ATOM     11  C   LIG A   1      -4.511   4.142 133.963  0.00  0.00    +0.166 A 
ATOM     12  C   LIG A   1      -4.966   2.819 134.124  0.00  0.00    +0.203 A 
ATOM     13  C   LIG A   1      -6.320   2.514 133.838  0.00  0.00    +0.166 A 
ATOM     14  C   LIG A   1      -7.170   3.515 133.353  0.00  0.00    +0.057 A 
ATOM     15  C   LIG A   1      -6.727   4.833 133.210  0.00  0.00    +0.000 A 
ATOM     16  C   LIG A   1      -5.396   5.129 133.518  0.00  0.00    +0.057 A 
BRANCH  11  18
ATOM     17  C   LIG A   1      -2.818   5.793 133.958  0.00  0.00    +0.277 C 
ATOM     18  O   LIG A   1      -3.237   4.485 134.347  0.00  0.00    -0.491 OA
ENDBRANCH  11  18
BRANCH  12  19
ATOM     19  O   LIG A   1      -4.204   1.756 134.555  0.00  0.00    -0.488 OA
ATOM     20  C   LIG A   1      -3.322   1.147 133.619  0.00  0.00    +0.277 C 
ENDBRANCH  12  19
BRANCH  13  21
ATOM     21  O   LIG A   1      -6.742   1.222 134.068  0.00  0.00    -0.491 OA
ATOM     22  C   LIG A   1      -7.006   0.409 132.927  0.00  0.00    +0.277 C 
ENDBRANCH  13  21
ENDBRANCH   1  15
BRANCH   5  23
ATOM     23  O   LIG A   1     -13.147   7.054 131.105  0.00  0.00    -0.503 OA
ATOM     24  H   LIG A   1     -13.438   6.504 131.856  0.00  0.00    +0.292 HD
ENDBRANCH   5  23
BRANCH   6  25
ATOM     25  O   LIG A   1     -11.791   8.027 129.016  0.00  0.00    -0.491 OA
ATOM     26  C   LIG A   1     -11.097   8.365 127.819  0.00  0.00    +0.277 C 
ENDBRANCH   6  25
TORSDOF 6
ENDMDL
MODEL 8
REMARK VINA RESULT:      -6.1      5.790      7.568
REMARK  Name = NuBBE_2349
REMARK  11 active torsions:
REMARK  status: ('A' for Active; 'I' for Inactive)
REMARK    1  A    between atoms: C_1  and  O_2
REMARK    2  A    between atoms: O_2  and  C_3
REMARK    3  A    between atoms: C_4  and  O_5
REMARK    4  A    between atoms: O_5  and  C_6
REMARK    5  A    between atoms: C_7  and  O_8
REMARK    6  A    between atoms: O_8  and  C_9
REMARK    7  A    between atoms: C_11  and  C_12
REMARK    8  A    between atoms: C_17  and  O_18
REMARK    9  A    between atoms: C_19  and  O_20
REMARK   10  A    between atoms: O_20  and  C_21
REMARK   11  A    between atoms: C_24  and  C_26
REMARK                            x       y       z     vdW  Elec       q    Type
REMARK                         _______ _______ _______ _____ _____    ______ ____
ROOT
ATOM      1  C   LIG A   1      -7.917  -2.500 129.257  0.00  0.00    +0.211 C 
ATOM      2  O   LIG A   1      -8.160  -3.566 128.297  0.00  0.00    -0.483 OA
ATOM      3  C   LIG A   1      -8.503  -2.906 127.154  0.00  0.00    +0.129 A 
ATOM      4  C   LIG A   1      -9.022  -3.527 126.033  0.00  0.00    +0.095 A 
ATOM      5  C   LIG A   1      -9.296  -2.712 124.942  0.00  0.00    +0.162 A 
ATOM      6  C   LIG A   1      -9.062  -1.323 124.960  0.00  0.00    +0.162 A 
ATOM      7  C   LIG A   1      -8.535  -0.727 126.112  0.00  0.00    +0.057 A 
ATOM      8  C   LIG A   1      -8.252  -1.546 127.191  0.00  0.00    +0.005 A 
ATOM      9  C   LIG A   1      -7.574  -1.202 128.474  0.00  0.00    +0.065 C 
ATOM     10  C   LIG A   1      -6.091  -0.926 128.218  0.00  0.00    +0.016 C 
ENDROOT
BRANCH   1  15
ATOM     11  C   LIG A   1      -4.660  -3.651 130.913  0.00  0.00    +0.166 A 
ATOM     12  C   LIG A   1      -5.024  -3.664 132.274  0.00  0.00    +0.203 A 
ATOM     13  C   LIG A   1      -6.340  -3.288 132.641  0.00  0.00    +0.166 A 
ATOM     14  C   LIG A   1      -7.271  -2.959 131.649  0.00  0.00    +0.057 A 
ATOM     15  C   LIG A   1      -6.909  -2.927 130.299  0.00  0.00    +0.000 A 
ATOM     16  C   LIG A   1      -5.601  -3.276 129.949  0.00  0.00    +0.057 A 
BRANCH  11  18
ATOM     17  C   LIG A   1      -3.031  -3.531 129.205  0.00  0.00    +0.277 C 
ATOM     18  O   LIG A   1      -3.360  -3.896 130.544  0.00  0.00    -0.491 OA
ENDBRANCH  11  18
BRANCH  12  19
ATOM     19  O   LIG A   1      -4.200  -4.009 133.321  0.00  0.00    -0.488 OA
ATOM     20  C   LIG A   1      -4.016  -5.393 133.596  0.00  0.00    +0.277 C 
ENDBRANCH  12  19
BRANCH  13  21
ATOM     21  O   LIG A   1      -6.639  -3.253 133.986  0.00  0.00    -0.491 OA
ATOM     22  C   LIG A   1      -7.969  -3.593 134.369  0.00  0.00    +0.277 C 
ENDBRANCH  13  21
ENDBRANCH   1  15
BRANCH   5  23
ATOM     23  O   LIG A   1      -9.802  -3.305 123.813  0.00  0.00    -0.503 OA
ATOM     24  H   LIG A   1     -10.250  -2.585 123.332  0.00  0.00    +0.292 HD
ENDBRANCH   5  23
BRANCH   6  25
ATOM     25  O   LIG A   1      -9.363  -0.667 123.795  0.00  0.00    -0.491 OA
ATOM     26  C   LIG A   1      -8.623   0.520 123.532  0.00  0.00    +0.277 C 
ENDBRANCH   6  25
TORSDOF 6
ENDMDL
MODEL 9
REMARK VINA RESULT:      -6.0      6.044      9.044
REMARK  Name = NuBBE_2349
REMARK  11 active torsions:
REMARK  status: ('A' for Active; 'I' for Inactive)
REMARK    1  A    between atoms: C_1  and  O_2
REMARK    2  A    between atoms: O_2  and  C_3
REMARK    3  A    between atoms: C_4  and  O_5
REMARK    4  A    between atoms: O_5  and  C_6
REMARK    5  A    between atoms: C_7  and  O_8
REMARK    6  A    between atoms: O_8  and  C_9
REMARK    7  A    between atoms: C_11  and  C_12
REMARK    8  A    between atoms: C_17  and  O_18
REMARK    9  A    between atoms: C_19  and  O_20
REMARK   10  A    between atoms: O_20  and  C_21
REMARK   11  A    between atoms: C_24  and  C_26
REMARK                            x       y       z     vdW  Elec       q    Type
REMARK                         _______ _______ _______ _____ _____    ______ ____
ROOT
ATOM      1  C   LIG A   1      -7.625  -3.268 129.620  0.00  0.00    +0.211 C 
ATOM      2  O   LIG A   1      -7.822  -2.561 130.876  0.00  0.00    -0.483 OA
ATOM      3  C   LIG A   1      -6.963  -3.177 131.738  0.00  0.00    +0.129 A 
ATOM      4  C   LIG A   1      -6.963  -2.970 133.104  0.00  0.00    +0.095 A 
ATOM      5  C   LIG A   1      -6.005  -3.658 133.837  0.00  0.00    +0.162 A 
ATOM      6  C   LIG A   1      -5.074  -4.527 133.235  0.00  0.00    +0.162 A 
ATOM      7  C   LIG A   1      -5.102  -4.714 131.848  0.00  0.00    +0.057 A 
ATOM      8  C   LIG A   1      -6.050  -4.014 131.121  0.00  0.00    +0.005 A 
ATOM      9  C   LIG A   1      -6.217  -3.926 129.642  0.00  0.00    +0.065 C 
ATOM     10  C   LIG A   1      -5.069  -3.113 129.040  0.00  0.00    +0.016 C 
ENDROOT
BRANCH   1  15
ATOM     11  C   LIG A   1      -8.786  -2.032 126.185  0.00  0.00    +0.166 A 
ATOM     12  C   LIG A   1      -8.497  -0.656 126.267  0.00  0.00    +0.203 A 
ATOM     13  C   LIG A   1      -7.927  -0.139 127.456  0.00  0.00    +0.166 A 
ATOM     14  C   LIG A   1      -7.612  -1.006 128.510  0.00  0.00    +0.057 A 
ATOM     15  C   LIG A   1      -7.913  -2.369 128.439  0.00  0.00    +0.000 A 
ATOM     16  C   LIG A   1      -8.499  -2.866 127.271  0.00  0.00    +0.057 A 
BRANCH  11  18
ATOM     17  C   LIG A   1      -8.731  -3.525 124.352  0.00  0.00    +0.277 C 
ATOM     18  O   LIG A   1      -9.446  -2.535 125.090  0.00  0.00    -0.491 OA
ENDBRANCH  11  18
BRANCH  12  19
ATOM     19  O   LIG A   1      -8.729   0.272 125.277  0.00  0.00    -0.488 OA
ATOM     20  C   LIG A   1      -7.813   0.329 124.190  0.00  0.00    +0.277 C 
ENDBRANCH  12  19
BRANCH  13  21
ATOM     21  O   LIG A   1      -7.718   1.221 127.521  0.00  0.00    -0.491 OA
ATOM     22  C   LIG A   1      -8.353   1.930 128.582  0.00  0.00    +0.277 C 
ENDBRANCH  13  21
ENDBRANCH   1  15
BRANCH   5  23
ATOM     23  O   LIG A   1      -5.977  -3.461 135.195  0.00  0.00    -0.503 OA
ATOM     24  H   LIG A   1      -6.014  -2.493 135.308  0.00  0.00    +0.292 HD
ENDBRANCH   5  23
BRANCH   6  25
ATOM     25  O   LIG A   1      -4.181  -5.110 134.096  0.00  0.00    -0.491 OA
ATOM     26  C   LIG A   1      -2.807  -5.010 133.738  0.00  0.00    +0.277 C 
ENDBRANCH   6  25
TORSDOF 6
ENDMDL
