MODEL 1
REMARK VINA RESULT:      -8.2      0.000      0.000
REMARK  Name = NuBBE_1057
REMARK  11 active torsions:
REMARK  status: ('A' for Active; 'I' for Inactive)
REMARK    1  A    between atoms: C_6  and  C_7
REMARK    2  A    between atoms: C_8  and  C_11
REMARK    3  A    between atoms: C_19  and  C_42
REMARK    4  A    between atoms: C_20  and  O_41
REMARK    5  A    between atoms: C_23  and  C_37
REMARK    6  A    between atoms: C_26  and  O_28
REMARK    7  A    between atoms: O_28  and  C_29
REMARK    8  A    between atoms: C_29  and  C_30
REMARK    9  A    between atoms: C_37  and  O_38
REMARK   10  A    between atoms: C_37  and  C_39
REMARK   11  A    between atoms: C_37  and  C_40
REMARK                            x       y       z     vdW  Elec       q    Type
REMARK                         _______ _______ _______ _____ _____    ______ ____
ROOT
ATOM      1  O   LIG A   1      -4.654  -3.148 132.196  0.00  0.00    -0.248 OA
ATOM      2  C   LIG A   1      -5.171  -2.369 131.400  0.00  0.00    +0.340 C 
ATOM      3  C   LIG A   1      -5.001  -0.897 131.582  0.00  0.00    +0.260 C 
ATOM      4  C   LIG A   1      -5.980   0.077 130.925  0.00  0.00    +0.124 C 
ATOM      5  C   LIG A   1      -7.112  -0.616 130.137  0.00  0.00    +0.042 C 
ATOM      6  C   LIG A   1      -8.233  -1.109 131.084  0.00  0.00    +0.018 C 
ATOM      7  C   LIG A   1      -6.474  -1.860 129.400  0.00  0.00    +0.218 C 
ATOM      8  O   LIG A   1      -5.948  -2.802 130.366  0.00  0.00    -0.454 OA
ATOM      9  C   LIG A   1      -7.693   0.368 129.119  0.00  0.00    +0.014 C 
ATOM     10  C   LIG A   1      -8.086   1.710 129.733  0.00  0.00    +0.006 C 
ATOM     11  C   LIG A   1      -6.853   2.430 130.313  0.00  0.00    +0.014 C 
ATOM     12  C   LIG A   1      -6.154   1.564 131.443  0.00  0.00    +0.030 C 
ATOM     13  C   LIG A   1      -4.762   2.241 131.703  0.00  0.00    +0.124 C 
ATOM     14  C   LIG A   1      -4.831   3.750 131.959  0.00  0.00    +0.039 C 
ATOM     15  C   LIG A   1      -5.565   4.598 130.893  0.00  0.00    +0.036 C 
ATOM     16  C   LIG A   1      -7.026   4.012 130.583  0.00  0.00    +0.051 C 
ATOM     17  C   LIG A   1      -8.088   4.324 131.737  0.00  0.00    +0.197 C 
ATOM     18  C   LIG A   1      -9.274   5.213 131.335  0.00  0.00    +0.165 C 
ATOM     19  C   LIG A   1      -9.914   4.685 130.101  0.00  0.00    +0.311 C 
ATOM     20  O   LIG A   1      -9.040   4.397 129.112  0.00  0.00    -0.464 OA
ATOM     21  C   LIG A   1      -7.642   4.687 129.316  0.00  0.00    +0.243 C 
ATOM     22  O   LIG A   1     -11.123   4.554 129.973  0.00  0.00    -0.251 OA
ATOM     23  C   LIG A   1      -6.926   1.486 132.779  0.00  0.00    +0.017 C 
ATOM     24  O   LIG A   1      -4.662  -0.175 130.397  0.00  0.00    -0.352 OA
ENDROOT
BRANCH   7  25
ATOM     25  C   LIG A   1      -7.396  -2.571 128.445  0.00  0.00    +0.031 A 
ATOM     26  C   LIG A   1      -7.423  -2.438 127.069  0.00  0.00    +0.202 A 
ATOM     27  O   LIG A   1      -8.382  -3.225 126.522  0.00  0.00    -0.471 OA
ATOM     28  C   LIG A   1      -8.970  -3.895 127.544  0.00  0.00    +0.195 A 
ATOM     29  C   LIG A   1      -8.397  -3.543 128.741  0.00  0.00    +0.048 A 
ENDBRANCH   7  25
BRANCH  15  30
ATOM     30  C   LIG A   1      -4.599   5.068 129.715  0.00  0.00    +0.064 C 
ATOM     31  C   LIG A   1      -3.151   5.202 130.238  0.00  0.00    +0.041 C 
ATOM     32  C   LIG A   1      -4.580   4.206 128.453  0.00  0.00    +0.041 C 
BRANCH  30  33
ATOM     33  O   LIG A   1      -4.959   6.389 129.306  0.00  0.00    -0.389 OA
ATOM     34  H   LIG A   1      -4.595   6.557 128.418  0.00  0.00    +0.210 HD
ENDBRANCH  30  33
ENDBRANCH  15  30
BRANCH  13  35
ATOM     35  O   LIG A   1      -4.119   1.663 132.844  0.00  0.00    -0.391 OA
ATOM     36  H   LIG A   1      -3.263   2.115 132.957  0.00  0.00    +0.210 HD
ENDBRANCH  13  35
BRANCH  17  37
ATOM     37  O   LIG A   1      -7.552   4.773 133.016  0.00  0.00    -0.460 OA
BRANCH  37  38
ATOM     38  C   LIG A   1      -8.234   4.561 134.177  0.00  0.00    +0.304 C 
ATOM     39  C   LIG A   1      -7.672   5.373 135.301  0.00  0.00    +0.136 C 
ATOM     40  O   LIG A   1      -9.165   3.782 134.326  0.00  0.00    -0.251 OA
ENDBRANCH  37  38
ENDBRANCH  17  37
TORSDOF 6
ENDMDL
MODEL 2
REMARK VINA RESULT:      -8.0      2.984      5.753
REMARK  Name = NuBBE_1057
REMARK  11 active torsions:
REMARK  status: ('A' for Active; 'I' for Inactive)
REMARK    1  A    between atoms: C_6  and  C_7
REMARK    2  A    between atoms: C_8  and  C_11
REMARK    3  A    between atoms: C_19  and  C_42
REMARK    4  A    between atoms: C_20  and  O_41
REMARK    5  A    between atoms: C_23  and  C_37
REMARK    6  A    between atoms: C_26  and  O_28
REMARK    7  A    between atoms: O_28  and  C_29
REMARK    8  A    between atoms: C_29  and  C_30
REMARK    9  A    between atoms: C_37  and  O_38
REMARK   10  A    between atoms: C_37  and  C_39
REMARK   11  A    between atoms: C_37  and  C_40
REMARK                            x       y       z     vdW  Elec       q    Type
REMARK                         _______ _______ _______ _____ _____    ______ ____
ROOT
ATOM      1  O   LIG A   1      -5.721   4.923 124.170  0.00  0.00    -0.248 OA
ATOM      2  C   LIG A   1      -6.513   4.263 124.838  0.00  0.00    +0.340 C 
ATOM      3  C   LIG A   1      -6.556   4.430 126.320  0.00  0.00    +0.260 C 
ATOM      4  C   LIG A   1      -7.157   3.333 127.200  0.00  0.00    +0.124 C 
ATOM      5  C   LIG A   1      -7.644   2.099 126.411  0.00  0.00    +0.042 C 
ATOM      6  C   LIG A   1      -6.464   1.165 126.049  0.00  0.00    +0.018 C 
ATOM      7  C   LIG A   1      -8.310   2.630 125.080  0.00  0.00    +0.218 C 
ATOM      8  O   LIG A   1      -7.333   3.331 124.273  0.00  0.00    -0.454 OA
ATOM      9  C   LIG A   1      -8.667   1.334 127.253  0.00  0.00    +0.014 C 
ATOM     10  C   LIG A   1      -8.176   1.023 128.665  0.00  0.00    +0.006 C 
ATOM     11  C   LIG A   1      -7.913   2.320 129.453  0.00  0.00    +0.014 C 
ATOM     12  C   LIG A   1      -6.815   3.218 128.743  0.00  0.00    +0.030 C 
ATOM     13  C   LIG A   1      -6.887   4.619 129.447  0.00  0.00    +0.124 C 
ATOM     14  C   LIG A   1      -6.823   4.563 130.976  0.00  0.00    +0.039 C 
ATOM     15  C   LIG A   1      -7.849   3.642 131.677  0.00  0.00    +0.036 C 
ATOM     16  C   LIG A   1      -7.826   2.161 131.057  0.00  0.00    +0.051 C 
ATOM     17  C   LIG A   1      -6.559   1.304 131.521  0.00  0.00    +0.197 C 
ATOM     18  C   LIG A   1      -6.866   0.048 132.350  0.00  0.00    +0.165 C 
ATOM     19  C   LIG A   1      -7.893  -0.779 131.665  0.00  0.00    +0.311 C 
ATOM     20  O   LIG A   1      -8.970  -0.080 131.248  0.00  0.00    -0.464 OA
ATOM     21  C   LIG A   1      -9.047   1.326 131.560  0.00  0.00    +0.243 C 
ATOM     22  O   LIG A   1      -7.795  -1.990 131.520  0.00  0.00    -0.251 OA
ATOM     23  C   LIG A   1      -5.369   2.685 128.844  0.00  0.00    +0.017 C 
ATOM     24  O   LIG A   1      -7.865   4.548 126.880  0.00  0.00    -0.352 OA
ENDROOT
BRANCH   7  25
ATOM     25  C   LIG A   1      -8.993   1.574 124.250  0.00  0.00    +0.031 A 
ATOM     26  C   LIG A   1     -10.351   1.458 124.016  0.00  0.00    +0.202 A 
ATOM     27  O   LIG A   1     -10.619   0.389 123.226  0.00  0.00    -0.471 OA
ATOM     28  C   LIG A   1      -9.428  -0.183 122.921  0.00  0.00    +0.195 A 
ATOM     29  C   LIG A   1      -8.399   0.510 123.511  0.00  0.00    +0.048 A 
ENDBRANCH   7  25
BRANCH  15  30
ATOM     30  C   LIG A   1      -9.225   4.384 131.986  0.00  0.00    +0.064 C 
ATOM     31  C   LIG A   1      -8.963   5.869 132.323  0.00  0.00    +0.041 C 
ATOM     32  C   LIG A   1     -10.303   4.318 130.904  0.00  0.00    +0.041 C 
BRANCH  30  33
ATOM     33  O   LIG A   1      -9.801   3.840 133.175  0.00  0.00    -0.389 OA
ATOM     34  H   LIG A   1      -9.243   3.107 133.493  0.00  0.00    +0.210 HD
ENDBRANCH  30  33
ENDBRANCH  15  30
BRANCH  13  35
ATOM     35  O   LIG A   1      -5.807   5.458 129.023  0.00  0.00    -0.391 OA
ATOM     36  H   LIG A   1      -5.023   5.211 129.546  0.00  0.00    +0.210 HD
ENDBRANCH  13  35
BRANCH  17  37
ATOM     37  O   LIG A   1      -5.460   2.039 132.134  0.00  0.00    -0.460 OA
BRANCH  37  38
ATOM     38  C   LIG A   1      -4.179   1.579 132.058  0.00  0.00    +0.304 C 
ATOM     39  C   LIG A   1      -3.258   2.370 132.934  0.00  0.00    +0.136 C 
ATOM     40  O   LIG A   1      -3.789   0.666 131.345  0.00  0.00    -0.251 OA
ENDBRANCH  37  38
ENDBRANCH  17  37
TORSDOF 6
ENDMDL
MODEL 3
REMARK VINA RESULT:      -8.0      2.581      6.925
REMARK  Name = NuBBE_1057
REMARK  11 active torsions:
REMARK  status: ('A' for Active; 'I' for Inactive)
REMARK    1  A    between atoms: C_6  and  C_7
REMARK    2  A    between atoms: C_8  and  C_11
REMARK    3  A    between atoms: C_19  and  C_42
REMARK    4  A    between atoms: C_20  and  O_41
REMARK    5  A    between atoms: C_23  and  C_37
REMARK    6  A    between atoms: C_26  and  O_28
REMARK    7  A    between atoms: O_28  and  C_29
REMARK    8  A    between atoms: C_29  and  C_30
REMARK    9  A    between atoms: C_37  and  O_38
REMARK   10  A    between atoms: C_37  and  C_39
REMARK   11  A    between atoms: C_37  and  C_40
REMARK                            x       y       z     vdW  Elec       q    Type
REMARK                         _______ _______ _______ _____ _____    ______ ____
ROOT
ATOM      1  O   LIG A   1      -8.234   3.833 134.475  0.00  0.00    -0.248 OA
ATOM      2  C   LIG A   1      -8.519   3.814 133.281  0.00  0.00    +0.340 C 
ATOM      3  C   LIG A   1      -7.701   3.001 132.334  0.00  0.00    +0.260 C 
ATOM      4  C   LIG A   1      -7.722   3.314 130.836  0.00  0.00    +0.124 C 
ATOM      5  C   LIG A   1      -8.609   4.521 130.465  0.00  0.00    +0.042 C 
ATOM      6  C   LIG A   1      -7.877   5.857 130.737  0.00  0.00    +0.018 C 
ATOM      7  C   LIG A   1      -9.901   4.447 131.371  0.00  0.00    +0.218 C 
ATOM      8  O   LIG A   1      -9.543   4.557 132.770  0.00  0.00    -0.454 OA
ATOM      9  C   LIG A   1      -8.987   4.432 128.985  0.00  0.00    +0.014 C 
ATOM     10  C   LIG A   1      -7.785   4.230 128.066  0.00  0.00    +0.006 C 
ATOM     11  C   LIG A   1      -7.080   2.894 128.370  0.00  0.00    +0.014 C 
ATOM     12  C   LIG A   1      -6.561   2.839 129.867  0.00  0.00    +0.030 C 
ATOM     13  C   LIG A   1      -6.176   1.341 130.134  0.00  0.00    +0.124 C 
ATOM     14  C   LIG A   1      -5.249   0.730 129.079  0.00  0.00    +0.039 C 
ATOM     15  C   LIG A   1      -5.715   0.832 127.607  0.00  0.00    +0.036 C 
ATOM     16  C   LIG A   1      -6.095   2.342 127.217  0.00  0.00    +0.051 C 
ATOM     17  C   LIG A   1      -4.816   3.277 127.002  0.00  0.00    +0.197 C 
ATOM     18  C   LIG A   1      -4.630   3.845 125.587  0.00  0.00    +0.165 C 
ATOM     19  C   LIG A   1      -5.888   4.485 125.122  0.00  0.00    +0.311 C 
ATOM     20  O   LIG A   1      -6.989   3.723 125.304  0.00  0.00    -0.464 OA
ATOM     21  C   LIG A   1      -6.831   2.394 125.840  0.00  0.00    +0.243 C 
ATOM     22  O   LIG A   1      -5.927   5.585 124.590  0.00  0.00    -0.251 OA
ATOM     23  C   LIG A   1      -5.334   3.729 130.167  0.00  0.00    +0.017 C 
ATOM     24  O   LIG A   1      -8.449   2.209 131.410  0.00  0.00    -0.352 OA
ENDROOT
BRANCH   7  25
ATOM     25  C   LIG A   1     -10.967   5.457 131.037  0.00  0.00    +0.031 A 
ATOM     26  C   LIG A   1     -11.738   5.496 129.890  0.00  0.00    +0.202 A 
ATOM     27  O   LIG A   1     -12.599   6.543 129.917  0.00  0.00    -0.471 OA
ATOM     28  C   LIG A   1     -12.407   7.179 131.100  0.00  0.00    +0.195 A 
ATOM     29  C   LIG A   1     -11.429   6.548 131.830  0.00  0.00    +0.048 A 
ENDBRANCH   7  25
BRANCH  15  30
ATOM     30  C   LIG A   1      -6.644  -0.389 127.175  0.00  0.00    +0.064 C 
ATOM     31  C   LIG A   1      -6.274  -1.650 127.987  0.00  0.00    +0.041 C 
ATOM     32  C   LIG A   1      -8.154  -0.177 127.273  0.00  0.00    +0.041 C 
BRANCH  30  33
ATOM     33  O   LIG A   1      -6.365  -0.740 125.818  0.00  0.00    -0.389 OA
ATOM     34  H   LIG A   1      -7.177  -1.083 125.404  0.00  0.00    +0.210 HD
ENDBRANCH  30  33
ENDBRANCH  15  30
BRANCH  13  35
ATOM     35  O   LIG A   1      -5.508   1.203 131.393  0.00  0.00    -0.391 OA
ATOM     36  H   LIG A   1      -4.582   1.477 131.264  0.00  0.00    +0.210 HD
ENDBRANCH  13  35
BRANCH  17  37
ATOM     37  O   LIG A   1      -3.543   2.770 127.498  0.00  0.00    -0.460 OA
BRANCH  37  38
ATOM     38  C   LIG A   1      -2.399   3.500 127.369  0.00  0.00    +0.304 C 
ATOM     39  C   LIG A   1      -2.500   4.812 128.082  0.00  0.00    +0.136 C 
ATOM     40  O   LIG A   1      -1.412   3.173 126.725  0.00  0.00    -0.251 OA
ENDBRANCH  37  38
ENDBRANCH  17  37
TORSDOF 6
ENDMDL
MODEL 4
REMARK VINA RESULT:      -7.9      3.172      6.253
REMARK  Name = NuBBE_1057
REMARK  11 active torsions:
REMARK  status: ('A' for Active; 'I' for Inactive)
REMARK    1  A    between atoms: C_6  and  C_7
REMARK    2  A    between atoms: C_8  and  C_11
REMARK    3  A    between atoms: C_19  and  C_42
REMARK    4  A    between atoms: C_20  and  O_41
REMARK    5  A    between atoms: C_23  and  C_37
REMARK    6  A    between atoms: C_26  and  O_28
REMARK    7  A    between atoms: O_28  and  C_29
REMARK    8  A    between atoms: C_29  and  C_30
REMARK    9  A    between atoms: C_37  and  O_38
REMARK   10  A    between atoms: C_37  and  C_39
REMARK   11  A    between atoms: C_37  and  C_40
REMARK                            x       y       z     vdW  Elec       q    Type
REMARK                         _______ _______ _______ _____ _____    ______ ____
ROOT
ATOM      1  O   LIG A   1      -8.781   2.894 122.061  0.00  0.00    -0.248 OA
ATOM      2  C   LIG A   1      -8.738   2.249 123.106  0.00  0.00    +0.340 C 
ATOM      3  C   LIG A   1      -8.423   2.936 124.392  0.00  0.00    +0.260 C 
ATOM      4  C   LIG A   1      -7.907   2.133 125.587  0.00  0.00    +0.124 C 
ATOM      5  C   LIG A   1      -7.730   0.627 125.295  0.00  0.00    +0.042 C 
ATOM      6  C   LIG A   1      -6.408   0.355 124.538  0.00  0.00    +0.018 C 
ATOM      7  C   LIG A   1      -8.946   0.183 124.388  0.00  0.00    +0.218 C 
ATOM      8  O   LIG A   1      -8.923   0.897 123.129  0.00  0.00    -0.454 OA
ATOM      9  C   LIG A   1      -7.737  -0.146 126.615  0.00  0.00    +0.014 C 
ATOM     10  C   LIG A   1      -6.759   0.412 127.647  0.00  0.00    +0.006 C 
ATOM     11  C   LIG A   1      -7.137   1.854 128.037  0.00  0.00    +0.014 C 
ATOM     12  C   LIG A   1      -7.119   2.819 126.779  0.00  0.00    +0.030 C 
ATOM     13  C   LIG A   1      -7.828   4.141 127.241  0.00  0.00    +0.124 C 
ATOM     14  C   LIG A   1      -7.282   4.728 128.546  0.00  0.00    +0.039 C 
ATOM     15  C   LIG A   1      -7.236   3.777 129.766  0.00  0.00    +0.036 C 
ATOM     16  C   LIG A   1      -6.488   2.403 129.409  0.00  0.00    +0.051 C 
ATOM     17  C   LIG A   1      -4.899   2.557 129.317  0.00  0.00    +0.197 C 
ATOM     18  C   LIG A   1      -4.087   1.758 130.348  0.00  0.00    +0.165 C 
ATOM     19  C   LIG A   1      -4.522   0.336 130.352  0.00  0.00    +0.311 C 
ATOM     20  O   LIG A   1      -5.862   0.174 130.414  0.00  0.00    -0.464 OA
ATOM     21  C   LIG A   1      -6.696   1.344 130.539  0.00  0.00    +0.243 C 
ATOM     22  O   LIG A   1      -3.743  -0.607 130.337  0.00  0.00    -0.251 OA
ATOM     23  C   LIG A   1      -5.713   3.171 126.244  0.00  0.00    +0.017 C 
ATOM     24  O   LIG A   1      -9.271   2.591 125.489  0.00  0.00    -0.352 OA
ENDROOT
BRANCH   7  25
ATOM     25  C   LIG A   1      -9.035  -1.299 124.132  0.00  0.00    +0.031 A 
ATOM     26  C   LIG A   1      -8.882  -1.937 122.915  0.00  0.00    +0.202 A 
ATOM     27  O   LIG A   1      -9.028  -3.279 123.047  0.00  0.00    -0.471 OA
ATOM     28  C   LIG A   1      -9.254  -3.522 124.361  0.00  0.00    +0.195 A 
ATOM     29  C   LIG A   1      -9.255  -2.347 125.073  0.00  0.00    +0.048 A 
ENDBRANCH   7  25
BRANCH  15  30
ATOM     30  C   LIG A   1      -8.597   3.782 130.595  0.00  0.00    +0.064 C 
ATOM     31  C   LIG A   1      -9.252   5.180 130.532  0.00  0.00    +0.041 C 
ATOM     32  C   LIG A   1      -9.646   2.739 130.209  0.00  0.00    +0.041 C 
BRANCH  30  33
ATOM     33  O   LIG A   1      -8.309   3.582 131.980  0.00  0.00    -0.389 OA
ATOM     34  H   LIG A   1      -7.881   2.714 132.095  0.00  0.00    +0.210 HD
ENDBRANCH  30  33
ENDBRANCH  15  30
BRANCH  13  35
ATOM     35  O   LIG A   1      -7.699   5.163 126.248  0.00  0.00    -0.391 OA
ATOM     36  H   LIG A   1      -7.020   5.788 126.559  0.00  0.00    +0.210 HD
ENDBRANCH  13  35
BRANCH  17  37
ATOM     37  O   LIG A   1      -4.376   3.914 129.229  0.00  0.00    -0.460 OA
BRANCH  37  38
ATOM     38  C   LIG A   1      -3.144   4.159 128.699  0.00  0.00    +0.304 C 
ATOM     39  C   LIG A   1      -2.566   5.437 129.221  0.00  0.00    +0.136 C 
ATOM     40  O   LIG A   1      -2.573   3.466 127.869  0.00  0.00    -0.251 OA
ENDBRANCH  37  38
ENDBRANCH  17  37
TORSDOF 6
ENDMDL
MODEL 5
REMARK VINA RESULT:      -7.8      1.945      5.083
REMARK  Name = NuBBE_1057
REMARK  11 active torsions:
REMARK  status: ('A' for Active; 'I' for Inactive)
REMARK    1  A    between atoms: C_6  and  C_7
REMARK    2  A    between atoms: C_8  and  C_11
REMARK    3  A    between atoms: C_19  and  C_42
REMARK    4  A    between atoms: C_20  and  O_41
REMARK    5  A    between atoms: C_23  and  C_37
REMARK    6  A    between atoms: C_26  and  O_28
REMARK    7  A    between atoms: O_28  and  C_29
REMARK    8  A    between atoms: C_29  and  C_30
REMARK    9  A    between atoms: C_37  and  O_38
REMARK   10  A    between atoms: C_37  and  C_39
REMARK   11  A    between atoms: C_37  and  C_40
REMARK                            x       y       z     vdW  Elec       q    Type
REMARK                         _______ _______ _______ _____ _____    ______ ____
ROOT
ATOM      1  O   LIG A   1      -8.520   0.781 125.777  0.00  0.00    -0.248 OA
ATOM      2  C   LIG A   1      -8.250   0.775 126.975  0.00  0.00    +0.340 C 
ATOM      3  C   LIG A   1      -8.313   2.043 127.759  0.00  0.00    +0.260 C 
ATOM      4  C   LIG A   1      -7.554   2.169 129.080  0.00  0.00    +0.124 C 
ATOM      5  C   LIG A   1      -6.738   0.913 129.451  0.00  0.00    +0.042 C 
ATOM      6  C   LIG A   1      -5.396   0.869 128.681  0.00  0.00    +0.018 C 
ATOM      7  C   LIG A   1      -7.606  -0.344 129.047  0.00  0.00    +0.218 C 
ATOM      8  O   LIG A   1      -7.839  -0.357 127.618  0.00  0.00    -0.454 OA
ATOM      9  C   LIG A   1      -6.468   0.914 130.958  0.00  0.00    +0.014 C 
ATOM     10  C   LIG A   1      -5.868   2.224 131.462  0.00  0.00    +0.006 C 
ATOM     11  C   LIG A   1      -6.842   3.396 131.239  0.00  0.00    +0.014 C 
ATOM     12  C   LIG A   1      -7.187   3.580 129.702  0.00  0.00    +0.030 C 
ATOM     13  C   LIG A   1      -8.412   4.559 129.651  0.00  0.00    +0.124 C 
ATOM     14  C   LIG A   1      -8.225   5.848 130.456  0.00  0.00    +0.039 C 
ATOM     15  C   LIG A   1      -7.828   5.683 131.942  0.00  0.00    +0.036 C 
ATOM     16  C   LIG A   1      -6.549   4.727 132.104  0.00  0.00    +0.051 C 
ATOM     17  C   LIG A   1      -5.177   5.437 131.691  0.00  0.00    +0.197 C 
ATOM     18  C   LIG A   1      -4.145   5.607 132.816  0.00  0.00    +0.165 C 
ATOM     19  C   LIG A   1      -3.930   4.313 133.514  0.00  0.00    +0.311 C 
ATOM     20  O   LIG A   1      -5.072   3.682 133.862  0.00  0.00    -0.464 OA
ATOM     21  C   LIG A   1      -6.331   4.334 133.600  0.00  0.00    +0.243 C 
ATOM     22  O   LIG A   1      -2.822   3.870 133.784  0.00  0.00    -0.251 OA
ATOM     23  C   LIG A   1      -6.046   4.167 128.842  0.00  0.00    +0.017 C 
ATOM     24  O   LIG A   1      -8.977   1.945 129.020  0.00  0.00    -0.352 OA
ENDROOT
BRANCH   7  25
ATOM     25  C   LIG A   1      -7.041  -1.670 129.483  0.00  0.00    +0.031 A 
ATOM     26  C   LIG A   1      -6.072  -2.410 128.831  0.00  0.00    +0.202 A 
ATOM     27  O   LIG A   1      -5.802  -3.557 129.502  0.00  0.00    -0.471 OA
ATOM     28  C   LIG A   1      -6.581  -3.557 130.611  0.00  0.00    +0.195 A 
ATOM     29  C   LIG A   1      -7.350  -2.419 130.657  0.00  0.00    +0.048 A 
ENDBRANCH   7  25
BRANCH  15  30
ATOM     30  C   LIG A   1      -9.094   5.534 132.899  0.00  0.00    +0.064 C 
ATOM     31  C   LIG A   1     -10.337   6.172 132.239  0.00  0.00    +0.041 C 
ATOM     32  C   LIG A   1      -9.457   4.119 133.348  0.00  0.00    +0.041 C 
BRANCH  30  33
ATOM     33  O   LIG A   1      -8.883   6.301 134.087  0.00  0.00    -0.389 OA
ATOM     34  H   LIG A   1      -9.645   6.892 134.224  0.00  0.00    +0.210 HD
ENDBRANCH  30  33
ENDBRANCH  15  30
BRANCH  13  35
ATOM     35  O   LIG A   1      -8.692   4.956 128.304  0.00  0.00    -0.391 OA
ATOM     36  H   LIG A   1      -7.838   5.130 127.868  0.00  0.00    +0.210 HD
ENDBRANCH  13  35
BRANCH  17  37
ATOM     37  O   LIG A   1      -5.283   6.677 130.932  0.00  0.00    -0.460 OA
BRANCH  37  38
ATOM     38  C   LIG A   1      -4.265   7.096 130.128  0.00  0.00    +0.304 C 
ATOM     39  C   LIG A   1      -4.227   8.589 130.024  0.00  0.00    +0.136 C 
ATOM     40  O   LIG A   1      -3.490   6.372 129.520  0.00  0.00    -0.251 OA
ENDBRANCH  37  38
ENDBRANCH  17  37
TORSDOF 6
ENDMDL
MODEL 6
REMARK VINA RESULT:      -7.7      2.377      7.872
REMARK  Name = NuBBE_1057
REMARK  11 active torsions:
REMARK  status: ('A' for Active; 'I' for Inactive)
REMARK    1  A    between atoms: C_6  and  C_7
REMARK    2  A    between atoms: C_8  and  C_11
REMARK    3  A    between atoms: C_19  and  C_42
REMARK    4  A    between atoms: C_20  and  O_41
REMARK    5  A    between atoms: C_23  and  C_37
REMARK    6  A    between atoms: C_26  and  O_28
REMARK    7  A    between atoms: O_28  and  C_29
REMARK    8  A    between atoms: C_29  and  C_30
REMARK    9  A    between atoms: C_37  and  O_38
REMARK   10  A    between atoms: C_37  and  C_39
REMARK   11  A    between atoms: C_37  and  C_40
REMARK                            x       y       z     vdW  Elec       q    Type
REMARK                         _______ _______ _______ _____ _____    ______ ____
ROOT
ATOM      1  O   LIG A   1      -4.474   4.324 131.058  0.00  0.00    -0.248 OA
ATOM      2  C   LIG A   1      -5.487   3.787 130.620  0.00  0.00    +0.340 C 
ATOM      3  C   LIG A   1      -5.413   2.409 130.053  0.00  0.00    +0.260 C 
ATOM      4  C   LIG A   1      -6.500   1.910 129.099  0.00  0.00    +0.124 C 
ATOM      5  C   LIG A   1      -7.588   2.961 128.791  0.00  0.00    +0.042 C 
ATOM      6  C   LIG A   1      -7.105   3.967 127.719  0.00  0.00    +0.018 C 
ATOM      7  C   LIG A   1      -7.879   3.738 130.135  0.00  0.00    +0.218 C 
ATOM      8  O   LIG A   1      -6.690   4.432 130.585  0.00  0.00    -0.454 OA
ATOM      9  C   LIG A   1      -8.851   2.250 128.300  0.00  0.00    +0.014 C 
ATOM     10  C   LIG A   1      -8.586   1.267 127.161  0.00  0.00    +0.006 C 
ATOM     11  C   LIG A   1      -7.653   0.132 127.622  0.00  0.00    +0.014 C 
ATOM     12  C   LIG A   1      -6.253   0.694 128.114  0.00  0.00    +0.030 C 
ATOM     13  C   LIG A   1      -5.546  -0.499 128.849  0.00  0.00    +0.124 C 
ATOM     14  C   LIG A   1      -5.501  -1.801 128.043  0.00  0.00    +0.039 C 
ATOM     15  C   LIG A   1      -6.853  -2.327 127.506  0.00  0.00    +0.036 C 
ATOM     16  C   LIG A   1      -7.643  -1.189 126.695  0.00  0.00    +0.051 C 
ATOM     17  C   LIG A   1      -7.035  -0.914 125.242  0.00  0.00    +0.197 C 
ATOM     18  C   LIG A   1      -7.961  -1.226 124.057  0.00  0.00    +0.165 C 
ATOM     19  C   LIG A   1      -9.282  -0.573 124.254  0.00  0.00    +0.311 C 
ATOM     20  O   LIG A   1      -9.815  -0.776 125.478  0.00  0.00    -0.464 OA
ATOM     21  C   LIG A   1      -9.115  -1.629 126.406  0.00  0.00    +0.243 C 
ATOM     22  O   LIG A   1      -9.857   0.061 123.379  0.00  0.00    -0.251 OA
ATOM     23  C   LIG A   1      -5.324   1.207 126.991  0.00  0.00    +0.017 C 
ATOM     24  O   LIG A   1      -6.443   1.518 130.486  0.00  0.00    -0.352 OA
ENDROOT
BRANCH   7  25
ATOM     25  C   LIG A   1      -9.036   4.701 130.071  0.00  0.00    +0.031 A 
ATOM     26  C   LIG A   1     -10.331   4.465 130.494  0.00  0.00    +0.202 A 
ATOM     27  O   LIG A   1     -11.117   5.551 130.285  0.00  0.00    -0.471 OA
ATOM     28  C   LIG A   1     -10.325   6.511 129.746  0.00  0.00    +0.195 A 
ATOM     29  C   LIG A   1      -9.039   6.048 129.605  0.00  0.00    +0.048 A 
ENDBRANCH   7  25
BRANCH  15  30
ATOM     30  C   LIG A   1      -7.605  -3.263 128.553  0.00  0.00    +0.064 C 
ATOM     31  C   LIG A   1      -8.228  -2.407 129.679  0.00  0.00    +0.041 C 
ATOM     32  C   LIG A   1      -8.685  -4.193 127.999  0.00  0.00    +0.041 C 
BRANCH  30  33
ATOM     33  O   LIG A   1      -6.650  -4.093 129.218  0.00  0.00    -0.389 OA
ATOM     34  H   LIG A   1      -6.676  -3.908 130.174  0.00  0.00    +0.210 HD
ENDBRANCH  30  33
ENDBRANCH  15  30
BRANCH  13  35
ATOM     35  O   LIG A   1      -4.190  -0.169 129.167  0.00  0.00    -0.391 OA
ATOM     36  H   LIG A   1      -4.133   0.801 129.234  0.00  0.00    +0.210 HD
ENDBRANCH  13  35
BRANCH  17  37
ATOM     37  O   LIG A   1      -5.704  -1.448 124.977  0.00  0.00    -0.460 OA
BRANCH  37  38
ATOM     38  C   LIG A   1      -5.489  -2.319 123.950  0.00  0.00    +0.304 C 
ATOM     39  C   LIG A   1      -5.115  -3.678 124.453  0.00  0.00    +0.136 C 
ATOM     40  O   LIG A   1      -5.545  -2.047 122.759  0.00  0.00    -0.251 OA
ENDBRANCH  37  38
ENDBRANCH  17  37
TORSDOF 6
ENDMDL
MODEL 7
REMARK VINA RESULT:      -7.6      2.177      7.388
REMARK  Name = NuBBE_1057
REMARK  11 active torsions:
REMARK  status: ('A' for Active; 'I' for Inactive)
REMARK    1  A    between atoms: C_6  and  C_7
REMARK    2  A    between atoms: C_8  and  C_11
REMARK    3  A    between atoms: C_19  and  C_42
REMARK    4  A    between atoms: C_20  and  O_41
REMARK    5  A    between atoms: C_23  and  C_37
REMARK    6  A    between atoms: C_26  and  O_28
REMARK    7  A    between atoms: O_28  and  C_29
REMARK    8  A    between atoms: C_29  and  C_30
REMARK    9  A    between atoms: C_37  and  O_38
REMARK   10  A    between atoms: C_37  and  C_39
REMARK   11  A    between atoms: C_37  and  C_40
REMARK                            x       y       z     vdW  Elec       q    Type
REMARK                         _______ _______ _______ _____ _____    ______ ____
ROOT
ATOM      1  O   LIG A   1      -8.658   5.324 130.105  0.00  0.00    -0.248 OA
ATOM      2  C   LIG A   1      -7.739   4.536 129.893  0.00  0.00    +0.340 C 
ATOM      3  C   LIG A   1      -7.898   3.096 130.249  0.00  0.00    +0.260 C 
ATOM      4  C   LIG A   1      -6.665   2.211 130.443  0.00  0.00    +0.124 C 
ATOM      5  C   LIG A   1      -5.328   2.962 130.272  0.00  0.00    +0.042 C 
ATOM      6  C   LIG A   1      -4.963   3.754 131.550  0.00  0.00    +0.018 C 
ATOM      7  C   LIG A   1      -5.511   3.974 129.072  0.00  0.00    +0.218 C 
ATOM      8  O   LIG A   1      -6.541   4.943 129.383  0.00  0.00    -0.454 OA
ATOM      9  C   LIG A   1      -4.220   1.954 129.956  0.00  0.00    +0.014 C 
ATOM     10  C   LIG A   1      -4.165   0.790 130.943  0.00  0.00    +0.006 C 
ATOM     11  C   LIG A   1      -5.467  -0.032 130.896  0.00  0.00    +0.014 C 
ATOM     12  C   LIG A   1      -6.729   0.857 131.263  0.00  0.00    +0.030 C 
ATOM     13  C   LIG A   1      -7.985   0.006 130.859  0.00  0.00    +0.124 C 
ATOM     14  C   LIG A   1      -7.986  -1.422 131.412  0.00  0.00    +0.039 C 
ATOM     15  C   LIG A   1      -6.733  -2.279 131.113  0.00  0.00    +0.036 C 
ATOM     16  C   LIG A   1      -5.386  -1.513 131.532  0.00  0.00    +0.051 C 
ATOM     17  C   LIG A   1      -5.141  -1.490 133.112  0.00  0.00    +0.197 C 
ATOM     18  C   LIG A   1      -3.885  -2.222 133.607  0.00  0.00    +0.165 C 
ATOM     19  C   LIG A   1      -2.694  -1.773 132.839  0.00  0.00    +0.311 C 
ATOM     20  O   LIG A   1      -2.876  -1.768 131.501  0.00  0.00    -0.464 OA
ATOM     21  C   LIG A   1      -4.128  -2.249 130.970  0.00  0.00    +0.243 C 
ATOM     22  O   LIG A   1      -1.631  -1.468 133.363  0.00  0.00    -0.251 OA
ATOM     23  C   LIG A   1      -6.847   1.240 132.755  0.00  0.00    +0.017 C 
ATOM     24  O   LIG A   1      -7.470   2.172 129.247  0.00  0.00    -0.352 OA
ENDROOT
BRANCH   7  25
ATOM     25  C   LIG A   1      -4.254   4.686 128.647  0.00  0.00    +0.031 A 
ATOM     26  C   LIG A   1      -3.294   4.216 127.770  0.00  0.00    +0.202 A 
ATOM     27  O   LIG A   1      -2.292   5.116 127.616  0.00  0.00    -0.471 OA
ATOM     28  C   LIG A   1      -2.609   6.192 128.378  0.00  0.00    +0.195 A 
ATOM     29  C   LIG A   1      -3.807   5.988 129.020  0.00  0.00    +0.048 A 
ENDBRANCH   7  25
BRANCH  15  30
ATOM     30  C   LIG A   1      -6.841  -3.055 129.725  0.00  0.00    +0.064 C 
ATOM     31  C   LIG A   1      -8.325  -3.252 129.341  0.00  0.00    +0.041 C 
ATOM     32  C   LIG A   1      -6.111  -2.441 128.531  0.00  0.00    +0.041 C 
BRANCH  30  33
ATOM     33  O   LIG A   1      -6.330  -4.380 129.882  0.00  0.00    -0.389 OA
ATOM     34  H   LIG A   1      -6.436  -4.864 129.043  0.00  0.00    +0.210 HD
ENDBRANCH  30  33
ENDBRANCH  15  30
BRANCH  13  35
ATOM     35  O   LIG A   1      -9.189   0.625 131.324  0.00  0.00    -0.391 OA
ATOM     36  H   LIG A   1      -9.824  -0.086 131.524  0.00  0.00    +0.210 HD
ENDBRANCH  13  35
BRANCH  17  37
ATOM     37  O   LIG A   1      -6.277  -1.839 133.956  0.00  0.00    -0.460 OA
BRANCH  37  38
ATOM     38  C   LIG A   1      -6.280  -1.542 135.287  0.00  0.00    +0.304 C 
ATOM     39  C   LIG A   1      -6.601  -2.745 136.117  0.00  0.00    +0.136 C 
ATOM     40  O   LIG A   1      -6.089  -0.436 135.772  0.00  0.00    -0.251 OA
ENDBRANCH  37  38
ENDBRANCH  17  37
TORSDOF 6
ENDMDL
MODEL 8
REMARK VINA RESULT:      -7.5      2.091      4.888
REMARK  Name = NuBBE_1057
REMARK  11 active torsions:
REMARK  status: ('A' for Active; 'I' for Inactive)
REMARK    1  A    between atoms: C_6  and  C_7
REMARK    2  A    between atoms: C_8  and  C_11
REMARK    3  A    between atoms: C_19  and  C_42
REMARK    4  A    between atoms: C_20  and  O_41
REMARK    5  A    between atoms: C_23  and  C_37
REMARK    6  A    between atoms: C_26  and  O_28
REMARK    7  A    between atoms: O_28  and  C_29
REMARK    8  A    between atoms: C_29  and  C_30
REMARK    9  A    between atoms: C_37  and  O_38
REMARK   10  A    between atoms: C_37  and  C_39
REMARK   11  A    between atoms: C_37  and  C_40
REMARK                            x       y       z     vdW  Elec       q    Type
REMARK                         _______ _______ _______ _____ _____    ______ ____
ROOT
ATOM      1  O   LIG A   1      -6.347   0.989 125.139  0.00  0.00    -0.248 OA
ATOM      2  C   LIG A   1      -6.828   0.931 126.267  0.00  0.00    +0.340 C 
ATOM      3  C   LIG A   1      -7.405   2.157 126.894  0.00  0.00    +0.260 C 
ATOM      4  C   LIG A   1      -7.570   2.239 128.413  0.00  0.00    +0.124 C 
ATOM      5  C   LIG A   1      -7.060   0.989 129.162  0.00  0.00    +0.042 C 
ATOM      6  C   LIG A   1      -5.522   1.023 129.325  0.00  0.00    +0.018 C 
ATOM      7  C   LIG A   1      -7.460  -0.270 128.296  0.00  0.00    +0.218 C 
ATOM      8  O   LIG A   1      -6.812  -0.219 127.002  0.00  0.00    -0.454 OA
ATOM      9  C   LIG A   1      -7.723   0.923 130.540  0.00  0.00    +0.014 C 
ATOM     10  C   LIG A   1      -7.601   2.223 131.331  0.00  0.00    +0.006 C 
ATOM     11  C   LIG A   1      -8.321   3.376 130.607  0.00  0.00    +0.014 C 
ATOM     12  C   LIG A   1      -7.711   3.627 129.164  0.00  0.00    +0.030 C 
ATOM     13  C   LIG A   1      -8.724   4.571 128.427  0.00  0.00    +0.124 C 
ATOM     14  C   LIG A   1      -9.111   5.824 129.219  0.00  0.00    +0.039 C 
ATOM     15  C   LIG A   1      -9.651   5.596 130.651  0.00  0.00    +0.036 C 
ATOM     16  C   LIG A   1      -8.660   4.671 131.509  0.00  0.00    +0.051 C 
ATOM     17  C   LIG A   1      -7.345   5.439 131.997  0.00  0.00    +0.197 C 
ATOM     18  C   LIG A   1      -7.177   5.583 133.517  0.00  0.00    +0.165 C 
ATOM     19  C   LIG A   1      -7.343   4.262 134.178  0.00  0.00    +0.311 C 
ATOM     20  O   LIG A   1      -8.438   3.582 133.775  0.00  0.00    -0.464 OA
ATOM     21  C   LIG A   1      -9.338   4.210 132.839  0.00  0.00    +0.243 C 
ATOM     22  O   LIG A   1      -6.580   3.838 135.036  0.00  0.00    -0.251 OA
ATOM     23  C   LIG A   1      -6.314   4.288 129.151  0.00  0.00    +0.017 C 
ATOM     24  O   LIG A   1      -8.675   1.976 127.523  0.00  0.00    -0.352 OA
ENDROOT
BRANCH   7  25
ATOM     25  C   LIG A   1      -7.189  -1.600 128.949  0.00  0.00    +0.031 A 
ATOM     26  C   LIG A   1      -8.122  -2.449 129.514  0.00  0.00    +0.202 A 
ATOM     27  O   LIG A   1      -7.530  -3.561 130.014  0.00  0.00    -0.471 OA
ATOM     28  C   LIG A   1      -6.203  -3.450 129.754  0.00  0.00    +0.195 A 
ATOM     29  C   LIG A   1      -5.941  -2.275 129.092  0.00  0.00    +0.048 A 
ENDBRANCH   7  25
BRANCH  15  30
ATOM     30  C   LIG A   1     -11.227   5.363 130.680  0.00  0.00    +0.064 C 
ATOM     31  C   LIG A   1     -11.925   6.337 129.705  0.00  0.00    +0.041 C 
ATOM     32  C   LIG A   1     -11.721   3.947 130.386  0.00  0.00    +0.041 C 
BRANCH  30  33
ATOM     33  O   LIG A   1     -11.735   5.717 131.968  0.00  0.00    -0.389 OA
ATOM     34  H   LIG A   1     -11.013   5.666 132.620  0.00  0.00    +0.210 HD
ENDBRANCH  30  33
ENDBRANCH  15  30
BRANCH  13  35
ATOM     35  O   LIG A   1      -8.183   5.027 127.182  0.00  0.00    -0.391 OA
ATOM     36  H   LIG A   1      -8.933   5.282 126.614  0.00  0.00    +0.210 HD
ENDBRANCH  13  35
BRANCH  17  37
ATOM     37  O   LIG A   1      -7.052   6.712 131.349  0.00  0.00    -0.460 OA
BRANCH  37  38
ATOM     38  C   LIG A   1      -5.779   7.037 130.984  0.00  0.00    +0.304 C 
ATOM     39  C   LIG A   1      -4.768   6.276 131.783  0.00  0.00    +0.136 C 
ATOM     40  O   LIG A   1      -5.467   7.869 130.144  0.00  0.00    -0.251 OA
ENDBRANCH  37  38
ENDBRANCH  17  37
TORSDOF 6
ENDMDL
MODEL 9
REMARK VINA RESULT:      -7.1      2.396      7.289
REMARK  Name = NuBBE_1057
REMARK  11 active torsions:
REMARK  status: ('A' for Active; 'I' for Inactive)
REMARK    1  A    between atoms: C_6  and  C_7
REMARK    2  A    between atoms: C_8  and  C_11
REMARK    3  A    between atoms: C_19  and  C_42
REMARK    4  A    between atoms: C_20  and  O_41
REMARK    5  A    between atoms: C_23  and  C_37
REMARK    6  A    between atoms: C_26  and  O_28
REMARK    7  A    between atoms: O_28  and  C_29
REMARK    8  A    between atoms: C_29  and  C_30
REMARK    9  A    between atoms: C_37  and  O_38
REMARK   10  A    between atoms: C_37  and  C_39
REMARK   11  A    between atoms: C_37  and  C_40
REMARK                            x       y       z     vdW  Elec       q    Type
REMARK                         _______ _______ _______ _____ _____    ______ ____
ROOT
ATOM      1  O   LIG A   1      -4.876   8.025 130.230  0.00  0.00    -0.248 OA
ATOM      2  C   LIG A   1      -5.577   7.142 130.716  0.00  0.00    +0.340 C 
ATOM      3  C   LIG A   1      -4.945   5.908 131.267  0.00  0.00    +0.260 C 
ATOM      4  C   LIG A   1      -5.769   4.631 131.436  0.00  0.00    +0.124 C 
ATOM      5  C   LIG A   1      -7.230   4.766 130.956  0.00  0.00    +0.042 C 
ATOM      6  C   LIG A   1      -7.329   4.630 129.418  0.00  0.00    +0.018 C 
ATOM      7  C   LIG A   1      -7.730   6.203 131.382  0.00  0.00    +0.218 C 
ATOM      8  O   LIG A   1      -6.939   7.226 130.727  0.00  0.00    -0.454 OA
ATOM      9  C   LIG A   1      -8.082   3.685 131.625  0.00  0.00    +0.014 C 
ATOM     10  C   LIG A   1      -7.499   2.281 131.477  0.00  0.00    +0.006 C 
ATOM     11  C   LIG A   1      -6.127   2.180 132.169  0.00  0.00    +0.014 C 
ATOM     12  C   LIG A   1      -5.087   3.205 131.549  0.00  0.00    +0.030 C 
ATOM     13  C   LIG A   1      -3.870   3.234 132.538  0.00  0.00    +0.124 C 
ATOM     14  C   LIG A   1      -3.316   1.853 132.900  0.00  0.00    +0.039 C 
ATOM     15  C   LIG A   1      -4.333   0.824 133.450  0.00  0.00    +0.036 C 
ATOM     16  C   LIG A   1      -5.606   0.685 132.482  0.00  0.00    +0.051 C 
ATOM     17  C   LIG A   1      -5.298  -0.148 131.152  0.00  0.00    +0.197 C 
ATOM     18  C   LIG A   1      -6.080  -1.460 130.986  0.00  0.00    +0.165 C 
ATOM     19  C   LIG A   1      -7.533  -1.218 131.183  0.00  0.00    +0.311 C 
ATOM     20  O   LIG A   1      -7.824  -0.503 132.292  0.00  0.00    -0.464 OA
ATOM     21  C   LIG A   1      -6.748  -0.125 133.175  0.00  0.00    +0.243 C 
ATOM     22  O   LIG A   1      -8.396  -1.654 130.433  0.00  0.00    -0.251 OA
ATOM     23  C   LIG A   1      -4.573   2.841 130.138  0.00  0.00    +0.017 C 
ATOM     24  O   LIG A   1      -5.436   5.493 132.543  0.00  0.00    -0.352 OA
ENDROOT
BRANCH   7  25
ATOM     25  C   LIG A   1      -9.194   6.461 131.141  0.00  0.00    +0.031 A 
ATOM     26  C   LIG A   1     -10.236   6.170 132.002  0.00  0.00    +0.202 A 
ATOM     27  O   LIG A   1     -11.427   6.534 131.466  0.00  0.00    -0.471 OA
ATOM     28  C   LIG A   1     -11.161   7.088 130.257  0.00  0.00    +0.195 A 
ATOM     29  C   LIG A   1      -9.809   7.081 130.014  0.00  0.00    +0.048 A 
ENDBRANCH   7  25
BRANCH  15  30
ATOM     30  C   LIG A   1      -4.507   0.922 135.031  0.00  0.00    +0.064 C 
ATOM     31  C   LIG A   1      -5.470   2.076 135.388  0.00  0.00    +0.041 C 
ATOM     32  C   LIG A   1      -4.977  -0.341 135.753  0.00  0.00    +0.041 C 
BRANCH  30  33
ATOM     33  O   LIG A   1      -3.261   1.294 135.623  0.00  0.00    -0.389 OA
ATOM     34  H   LIG A   1      -3.431   1.716 136.485  0.00  0.00    +0.210 HD
ENDBRANCH  30  33
ENDBRANCH  15  30
BRANCH  13  35
ATOM     35  O   LIG A   1      -2.780   3.978 131.983  0.00  0.00    -0.391 OA
ATOM     36  H   LIG A   1      -2.388   4.503 132.704  0.00  0.00    +0.210 HD
ENDBRANCH  13  35
BRANCH  17  37
ATOM     37  O   LIG A   1      -3.894  -0.371 130.829  0.00  0.00    -0.460 OA
BRANCH  37  38
ATOM     38  C   LIG A   1      -3.310  -1.585 131.037  0.00  0.00    +0.304 C 
ATOM     39  C   LIG A   1      -3.171  -2.352 129.759  0.00  0.00    +0.136 C 
ATOM     40  O   LIG A   1      -2.969  -2.038 132.120  0.00  0.00    -0.251 OA
ENDBRANCH  37  38
ENDBRANCH  17  37
TORSDOF 6
ENDMDL
