MODEL 1
REMARK VINA RESULT:      -6.6      0.000      0.000
REMARK  Name = NuBBE_184
REMARK  15 active torsions:
REMARK  status: ('A' for Active; 'I' for Inactive)
REMARK    1  A    between atoms: C_1  and  C_2
REMARK    2  A    between atoms: C_2  and  C_3
REMARK    3  A    between atoms: C_3  and  C_4
REMARK    4  A    between atoms: C_4  and  C_5
REMARK    5  A    between atoms: C_6  and  C_7
REMARK    6  A    between atoms: C_6  and  C_10
REMARK    7  A    between atoms: C_7  and  O_8
REMARK    8  A    between atoms: C_10  and  C_11
REMARK    9  A    between atoms: C_11  and  C_12
REMARK   10  A    between atoms: C_13  and  C_14
REMARK   11  A    between atoms: C_13  and  C_15
REMARK   12  A    between atoms: C_16  and  C_17
REMARK   13  A    between atoms: C_17  and  C_18
REMARK   14  A    between atoms: C_18  and  C_19
REMARK   15  A    between atoms: C_19  and  C_20
REMARK                            x       y       z     vdW  Elec       q    Type
REMARK                         _______ _______ _______ _____ _____    ______ ____
ROOT
ATOM      1  C   LIG A   1      -8.891  -0.445 125.571  0.00  0.00    -0.016 C 
ATOM      2  C   LIG A   1      -9.101  -1.577 124.832  0.00  0.00    +0.033 C 
ENDROOT
BRANCH   2   3
ATOM      3  C   LIG A   1      -8.976  -1.540 123.350  0.00  0.00    +0.333 C 
ATOM      4  O   LIG A   1      -8.010  -1.921 122.647  0.00  0.00    -0.245 OA
BRANCH   3   5
ATOM      5  O   LIG A   1     -10.010  -1.079 122.714  0.00  0.00    -0.477 OA
ATOM      6  H   LIG A   1      -9.694  -0.184 122.462  0.00  0.00    +0.295 HD
ENDBRANCH   3   5
ENDBRANCH   2   3
BRANCH   1   7
ATOM      7  C   LIG A   1      -8.588   0.901 125.002  0.00  0.00    +0.032 C 
BRANCH   7   8
ATOM      8  C   LIG A   1      -7.189   1.140 124.417  0.00  0.00    +0.034 C 
BRANCH   8  10
ATOM      9  C   LIG A   1      -8.623   2.642 123.001  0.00  0.00    +0.038 C 
ATOM     10  C   LIG A   1      -7.228   2.291 123.416  0.00  0.00    -0.076 C 
ATOM     11  C   LIG A   1      -6.105   2.902 122.978  0.00  0.00    -0.027 C 
BRANCH  11  12
ATOM     12  C   LIG A   1      -5.895   4.119 122.085  0.00  0.00    +0.034 C 
BRANCH  12  13
ATOM     13  C   LIG A   1      -5.800   3.982 120.550  0.00  0.00    +0.078 C 
BRANCH  13  14
ATOM     14  C   LIG A   1      -5.392   5.292 119.854  0.00  0.00    +0.131 C 
ATOM     15  C   LIG A   1      -5.939   5.578 118.455  0.00  0.00    +0.086 C 
ATOM     16  O   LIG A   1      -4.660   6.117 120.407  0.00  0.00    -0.298 OA
ENDBRANCH  13  14
ENDBRANCH  12  13
ENDBRANCH  11  12
ENDBRANCH   8  10
ENDBRANCH   7   8
ENDBRANCH   1   7
BRANCH   2  17
ATOM     17  C   LIG A   1      -9.544  -2.846 125.521  0.00  0.00    +0.046 C 
BRANCH  17  18
ATOM     18  C   LIG A   1      -8.543  -3.677 126.346  0.00  0.00    +0.032 C 
BRANCH  18  19
ATOM     19  C   LIG A   1      -8.527  -3.461 127.840  0.00  0.00    -0.028 C 
ATOM     20  C   LIG A   1      -7.669  -2.701 128.554  0.00  0.00    -0.080 C 
ATOM     21  C   LIG A   1      -6.451  -2.000 128.015  0.00  0.00    +0.038 C 
ATOM     22  C   LIG A   1      -7.925  -2.403 130.012  0.00  0.00    +0.038 C 
ENDBRANCH  18  19
ENDBRANCH  17  18
ENDBRANCH   2  17
TORSDOF 11
ENDMDL
MODEL 2
REMARK VINA RESULT:      -6.5      4.023      7.651
REMARK  Name = NuBBE_184
REMARK  15 active torsions:
REMARK  status: ('A' for Active; 'I' for Inactive)
REMARK    1  A    between atoms: C_1  and  C_2
REMARK    2  A    between atoms: C_2  and  C_3
REMARK    3  A    between atoms: C_3  and  C_4
REMARK    4  A    between atoms: C_4  and  C_5
REMARK    5  A    between atoms: C_6  and  C_7
REMARK    6  A    between atoms: C_6  and  C_10
REMARK    7  A    between atoms: C_7  and  O_8
REMARK    8  A    between atoms: C_10  and  C_11
REMARK    9  A    between atoms: C_11  and  C_12
REMARK   10  A    between atoms: C_13  and  C_14
REMARK   11  A    between atoms: C_13  and  C_15
REMARK   12  A    between atoms: C_16  and  C_17
REMARK   13  A    between atoms: C_17  and  C_18
REMARK   14  A    between atoms: C_18  and  C_19
REMARK   15  A    between atoms: C_19  and  C_20
REMARK                            x       y       z     vdW  Elec       q    Type
REMARK                         _______ _______ _______ _____ _____    ______ ____
ROOT
ATOM      1  C   LIG A   1      -8.712  -2.830 124.950  0.00  0.00    -0.016 C 
ATOM      2  C   LIG A   1      -8.521  -1.738 124.148  0.00  0.00    +0.033 C 
ENDROOT
BRANCH   2   3
ATOM      3  C   LIG A   1      -8.961  -0.390 124.597  0.00  0.00    +0.333 C 
ATOM      4  O   LIG A   1     -10.095   0.133 124.474  0.00  0.00    -0.245 OA
BRANCH   3   5
ATOM      5  O   LIG A   1      -8.062   0.315 125.216  0.00  0.00    -0.477 OA
ATOM      6  H   LIG A   1      -7.268   0.131 124.668  0.00  0.00    +0.295 HD
ENDBRANCH   3   5
ENDBRANCH   2   3
BRANCH   1   7
ATOM      7  C   LIG A   1      -9.405  -2.806 126.272  0.00  0.00    +0.032 C 
BRANCH   7   8
ATOM      8  C   LIG A   1      -8.931  -3.787 127.353  0.00  0.00    +0.034 C 
BRANCH   8  10
ATOM      9  C   LIG A   1      -7.860  -1.622 128.050  0.00  0.00    +0.038 C 
ATOM     10  C   LIG A   1      -7.947  -3.097 128.295  0.00  0.00    -0.076 C 
ATOM     11  C   LIG A   1      -7.252  -3.776 129.233  0.00  0.00    -0.027 C 
BRANCH  11  12
ATOM     12  C   LIG A   1      -6.315  -3.307 130.339  0.00  0.00    +0.034 C 
BRANCH  12  13
ATOM     13  C   LIG A   1      -4.804  -3.620 130.298  0.00  0.00    +0.078 C 
BRANCH  13  14
ATOM     14  C   LIG A   1      -3.932  -2.359 130.164  0.00  0.00    +0.131 C 
ATOM     15  C   LIG A   1      -4.592  -1.059 129.704  0.00  0.00    +0.086 C 
ATOM     16  O   LIG A   1      -2.730  -2.373 130.441  0.00  0.00    -0.298 OA
ENDBRANCH  13  14
ENDBRANCH  12  13
ENDBRANCH  11  12
ENDBRANCH   8  10
ENDBRANCH   7   8
ENDBRANCH   1   7
BRANCH   2  17
ATOM     17  C   LIG A   1      -7.935  -1.920 122.768  0.00  0.00    +0.046 C 
BRANCH  17  18
ATOM     18  C   LIG A   1      -6.448  -1.617 122.505  0.00  0.00    +0.032 C 
BRANCH  18  19
ATOM     19  C   LIG A   1      -5.469  -2.755 122.664  0.00  0.00    -0.028 C 
ATOM     20  C   LIG A   1      -4.989  -3.275 123.814  0.00  0.00    -0.080 C 
ATOM     21  C   LIG A   1      -5.236  -2.736 125.198  0.00  0.00    +0.038 C 
ATOM     22  C   LIG A   1      -4.198  -4.560 123.814  0.00  0.00    +0.038 C 
ENDBRANCH  18  19
ENDBRANCH  17  18
ENDBRANCH   2  17
TORSDOF 11
ENDMDL
MODEL 3
REMARK VINA RESULT:      -6.4      3.044      3.983
REMARK  Name = NuBBE_184
REMARK  15 active torsions:
REMARK  status: ('A' for Active; 'I' for Inactive)
REMARK    1  A    between atoms: C_1  and  C_2
REMARK    2  A    between atoms: C_2  and  C_3
REMARK    3  A    between atoms: C_3  and  C_4
REMARK    4  A    between atoms: C_4  and  C_5
REMARK    5  A    between atoms: C_6  and  C_7
REMARK    6  A    between atoms: C_6  and  C_10
REMARK    7  A    between atoms: C_7  and  O_8
REMARK    8  A    between atoms: C_10  and  C_11
REMARK    9  A    between atoms: C_11  and  C_12
REMARK   10  A    between atoms: C_13  and  C_14
REMARK   11  A    between atoms: C_13  and  C_15
REMARK   12  A    between atoms: C_16  and  C_17
REMARK   13  A    between atoms: C_17  and  C_18
REMARK   14  A    between atoms: C_18  and  C_19
REMARK   15  A    between atoms: C_19  and  C_20
REMARK                            x       y       z     vdW  Elec       q    Type
REMARK                         _______ _______ _______ _____ _____    ______ ____
ROOT
ATOM      1  C   LIG A   1      -7.139  -3.422 125.690  0.00  0.00    -0.016 C 
ATOM      2  C   LIG A   1      -8.385  -3.171 126.197  0.00  0.00    +0.033 C 
ENDROOT
BRANCH   2   3
ATOM      3  C   LIG A   1      -9.379  -2.403 125.400  0.00  0.00    +0.333 C 
ATOM      4  O   LIG A   1      -9.687  -1.192 125.510  0.00  0.00    -0.245 OA
BRANCH   3   5
ATOM      5  O   LIG A   1      -9.978  -3.071 124.460  0.00  0.00    -0.477 OA
ATOM      6  H   LIG A   1     -10.223  -2.349 123.842  0.00  0.00    +0.295 HD
ENDBRANCH   3   5
ENDBRANCH   2   3
BRANCH   1   7
ATOM      7  C   LIG A   1      -6.639  -2.927 124.374  0.00  0.00    +0.032 C 
BRANCH   7   8
ATOM      8  C   LIG A   1      -5.500  -1.898 124.373  0.00  0.00    +0.034 C 
BRANCH   8  10
ATOM      9  C   LIG A   1      -5.489  -0.310 126.321  0.00  0.00    +0.038 C 
ATOM     10  C   LIG A   1      -5.994  -0.568 124.935  0.00  0.00    -0.076 C 
ATOM     11  C   LIG A   1      -6.794   0.260 124.229  0.00  0.00    -0.027 C 
BRANCH  11  12
ATOM     12  C   LIG A   1      -7.318   1.660 124.522  0.00  0.00    +0.034 C 
BRANCH  12  13
ATOM     13  C   LIG A   1      -8.818   2.001 124.388  0.00  0.00    +0.078 C 
BRANCH  13  14
ATOM     14  C   LIG A   1      -9.332   1.890 122.941  0.00  0.00    +0.131 C 
ATOM     15  C   LIG A   1     -10.211   0.696 122.567  0.00  0.00    +0.086 C 
ATOM     16  O   LIG A   1      -9.070   2.748 122.095  0.00  0.00    -0.298 OA
ENDBRANCH  13  14
ENDBRANCH  12  13
ENDBRANCH  11  12
ENDBRANCH   8  10
ENDBRANCH   7   8
ENDBRANCH   1   7
BRANCH   2  17
ATOM     17  C   LIG A   1      -8.718  -3.605 127.605  0.00  0.00    +0.046 C 
BRANCH  17  18
ATOM     18  C   LIG A   1      -8.099  -2.878 128.813  0.00  0.00    +0.032 C 
BRANCH  18  19
ATOM     19  C   LIG A   1      -7.241  -3.695 129.749  0.00  0.00    -0.028 C 
ATOM     20  C   LIG A   1      -5.895  -3.690 129.849  0.00  0.00    -0.080 C 
ATOM     21  C   LIG A   1      -4.944  -2.952 128.945  0.00  0.00    +0.038 C 
ATOM     22  C   LIG A   1      -5.199  -4.390 130.992  0.00  0.00    +0.038 C 
ENDBRANCH  18  19
ENDBRANCH  17  18
ENDBRANCH   2  17
TORSDOF 11
ENDMDL
MODEL 4
REMARK VINA RESULT:      -6.4      3.817      4.696
REMARK  Name = NuBBE_184
REMARK  15 active torsions:
REMARK  status: ('A' for Active; 'I' for Inactive)
REMARK    1  A    between atoms: C_1  and  C_2
REMARK    2  A    between atoms: C_2  and  C_3
REMARK    3  A    between atoms: C_3  and  C_4
REMARK    4  A    between atoms: C_4  and  C_5
REMARK    5  A    between atoms: C_6  and  C_7
REMARK    6  A    between atoms: C_6  and  C_10
REMARK    7  A    between atoms: C_7  and  O_8
REMARK    8  A    between atoms: C_10  and  C_11
REMARK    9  A    between atoms: C_11  and  C_12
REMARK   10  A    between atoms: C_13  and  C_14
REMARK   11  A    between atoms: C_13  and  C_15
REMARK   12  A    between atoms: C_16  and  C_17
REMARK   13  A    between atoms: C_17  and  C_18
REMARK   14  A    between atoms: C_18  and  C_19
REMARK   15  A    between atoms: C_19  and  C_20
REMARK                            x       y       z     vdW  Elec       q    Type
REMARK                         _______ _______ _______ _____ _____    ______ ____
ROOT
ATOM      1  C   LIG A   1      -7.430  -3.445 125.143  0.00  0.00    -0.016 C 
ATOM      2  C   LIG A   1      -8.772  -3.194 125.224  0.00  0.00    +0.033 C 
ENDROOT
BRANCH   2   3
ATOM      3  C   LIG A   1      -9.521  -2.720 124.029  0.00  0.00    +0.333 C 
ATOM      4  O   LIG A   1      -9.595  -1.551 123.578  0.00  0.00    -0.245 OA
BRANCH   3   5
ATOM      5  O   LIG A   1     -10.150  -3.640 123.362  0.00  0.00    -0.477 OA
ATOM      6  H   LIG A   1     -11.073  -3.491 123.658  0.00  0.00    +0.295 HD
ENDBRANCH   3   5
ENDBRANCH   2   3
BRANCH   1   7
ATOM      7  C   LIG A   1      -6.593  -3.224 123.927  0.00  0.00    +0.032 C 
BRANCH   7   8
ATOM      8  C   LIG A   1      -5.415  -2.245 124.028  0.00  0.00    +0.034 C 
BRANCH   8  10
ATOM      9  C   LIG A   1      -6.693  -0.092 123.800  0.00  0.00    +0.038 C 
ATOM     10  C   LIG A   1      -5.863  -0.951 124.703  0.00  0.00    -0.076 C 
ATOM     11  C   LIG A   1      -5.528  -0.651 125.977  0.00  0.00    -0.027 C 
BRANCH  11  12
ATOM     12  C   LIG A   1      -5.936   0.500 126.889  0.00  0.00    +0.034 C 
BRANCH  12  13
ATOM     13  C   LIG A   1      -7.291   0.496 127.630  0.00  0.00    +0.078 C 
BRANCH  13  14
ATOM     14  C   LIG A   1      -8.122   1.764 127.369  0.00  0.00    +0.131 C 
ATOM     15  C   LIG A   1      -7.774   2.632 126.159  0.00  0.00    +0.086 C 
ATOM     16  O   LIG A   1      -9.069   2.076 128.096  0.00  0.00    -0.298 OA
ENDBRANCH  13  14
ENDBRANCH  12  13
ENDBRANCH  11  12
ENDBRANCH   8  10
ENDBRANCH   7   8
ENDBRANCH   1   7
BRANCH   2  17
ATOM     17  C   LIG A   1      -9.476  -3.321 126.554  0.00  0.00    +0.046 C 
BRANCH  17  18
ATOM     18  C   LIG A   1      -8.806  -4.067 127.723  0.00  0.00    +0.032 C 
BRANCH  18  19
ATOM     19  C   LIG A   1      -8.600  -3.301 129.008  0.00  0.00    -0.028 C 
ATOM     20  C   LIG A   1      -7.456  -2.743 129.460  0.00  0.00    -0.080 C 
ATOM     21  C   LIG A   1      -6.097  -2.880 128.829  0.00  0.00    +0.038 C 
ATOM     22  C   LIG A   1      -7.464  -1.813 130.649  0.00  0.00    +0.038 C 
ENDBRANCH  18  19
ENDBRANCH  17  18
ENDBRANCH   2  17
TORSDOF 11
ENDMDL
MODEL 5
REMARK VINA RESULT:      -6.4      2.414      8.412
REMARK  Name = NuBBE_184
REMARK  15 active torsions:
REMARK  status: ('A' for Active; 'I' for Inactive)
REMARK    1  A    between atoms: C_1  and  C_2
REMARK    2  A    between atoms: C_2  and  C_3
REMARK    3  A    between atoms: C_3  and  C_4
REMARK    4  A    between atoms: C_4  and  C_5
REMARK    5  A    between atoms: C_6  and  C_7
REMARK    6  A    between atoms: C_6  and  C_10
REMARK    7  A    between atoms: C_7  and  O_8
REMARK    8  A    between atoms: C_10  and  C_11
REMARK    9  A    between atoms: C_11  and  C_12
REMARK   10  A    between atoms: C_13  and  C_14
REMARK   11  A    between atoms: C_13  and  C_15
REMARK   12  A    between atoms: C_16  and  C_17
REMARK   13  A    between atoms: C_17  and  C_18
REMARK   14  A    between atoms: C_18  and  C_19
REMARK   15  A    between atoms: C_19  and  C_20
REMARK                            x       y       z     vdW  Elec       q    Type
REMARK                         _______ _______ _______ _____ _____    ______ ____
ROOT
ATOM      1  C   LIG A   1      -7.584   0.390 123.214  0.00  0.00    -0.016 C 
ATOM      2  C   LIG A   1      -8.636   1.260 123.297  0.00  0.00    +0.033 C 
ENDROOT
BRANCH   2   3
ATOM      3  C   LIG A   1     -10.025   0.747 123.444  0.00  0.00    +0.333 C 
ATOM      4  O   LIG A   1     -10.824   0.411 122.537  0.00  0.00    -0.245 OA
BRANCH   3   5
ATOM      5  O   LIG A   1     -10.444   0.609 124.665  0.00  0.00    -0.477 OA
ATOM      6  H   LIG A   1      -9.610   0.372 125.126  0.00  0.00    +0.295 HD
ENDBRANCH   3   5
ENDBRANCH   2   3
BRANCH   1   7
ATOM      7  C   LIG A   1      -7.707  -1.097 123.200  0.00  0.00    +0.032 C 
BRANCH   7   8
ATOM      8  C   LIG A   1      -7.056  -1.887 124.344  0.00  0.00    +0.034 C 
BRANCH   8  10
ATOM      9  C   LIG A   1      -9.164  -3.245 124.164  0.00  0.00    +0.038 C 
ATOM     10  C   LIG A   1      -8.110  -2.708 125.083  0.00  0.00    -0.076 C 
ATOM     11  C   LIG A   1      -8.062  -2.907 126.418  0.00  0.00    -0.027 C 
BRANCH  11  12
ATOM     12  C   LIG A   1      -8.916  -3.760 127.348  0.00  0.00    +0.034 C 
BRANCH  12  13
ATOM     13  C   LIG A   1      -8.774  -3.663 128.882  0.00  0.00    +0.078 C 
BRANCH  13  14
ATOM     14  C   LIG A   1      -7.529  -2.873 129.322  0.00  0.00    +0.131 C 
ATOM     15  C   LIG A   1      -7.688  -1.394 129.677  0.00  0.00    +0.086 C 
ATOM     16  O   LIG A   1      -6.423  -3.410 129.416  0.00  0.00    -0.298 OA
ENDBRANCH  13  14
ENDBRANCH  12  13
ENDBRANCH  11  12
ENDBRANCH   8  10
ENDBRANCH   7   8
ENDBRANCH   1   7
BRANCH   2  17
ATOM     17  C   LIG A   1      -8.391   2.744 123.154  0.00  0.00    +0.046 C 
BRANCH  17  18
ATOM     18  C   LIG A   1      -7.671   3.299 121.911  0.00  0.00    +0.032 C 
BRANCH  18  19
ATOM     19  C   LIG A   1      -6.230   3.722 122.074  0.00  0.00    -0.028 C 
ATOM     20  C   LIG A   1      -5.468   4.407 121.195  0.00  0.00    -0.080 C 
ATOM     21  C   LIG A   1      -5.862   4.788 119.793  0.00  0.00    +0.038 C 
ATOM     22  C   LIG A   1      -4.120   4.954 121.598  0.00  0.00    +0.038 C 
ENDBRANCH  18  19
ENDBRANCH  17  18
ENDBRANCH   2  17
TORSDOF 11
ENDMDL
MODEL 6
REMARK VINA RESULT:      -6.4      8.342      9.975
REMARK  Name = NuBBE_184
REMARK  15 active torsions:
REMARK  status: ('A' for Active; 'I' for Inactive)
REMARK    1  A    between atoms: C_1  and  C_2
REMARK    2  A    between atoms: C_2  and  C_3
REMARK    3  A    between atoms: C_3  and  C_4
REMARK    4  A    between atoms: C_4  and  C_5
REMARK    5  A    between atoms: C_6  and  C_7
REMARK    6  A    between atoms: C_6  and  C_10
REMARK    7  A    between atoms: C_7  and  O_8
REMARK    8  A    between atoms: C_10  and  C_11
REMARK    9  A    between atoms: C_11  and  C_12
REMARK   10  A    between atoms: C_13  and  C_14
REMARK   11  A    between atoms: C_13  and  C_15
REMARK   12  A    between atoms: C_16  and  C_17
REMARK   13  A    between atoms: C_17  and  C_18
REMARK   14  A    between atoms: C_18  and  C_19
REMARK   15  A    between atoms: C_19  and  C_20
REMARK                            x       y       z     vdW  Elec       q    Type
REMARK                         _______ _______ _______ _____ _____    ______ ____
ROOT
ATOM      1  C   LIG A   1      -9.802   6.508 132.036  0.00  0.00    -0.016 C 
ATOM      2  C   LIG A   1     -10.840   5.992 131.310  0.00  0.00    +0.033 C 
ENDROOT
BRANCH   2   3
ATOM      3  C   LIG A   1     -10.605   4.883 130.346  0.00  0.00    +0.333 C 
ATOM      4  O   LIG A   1      -9.997   4.930 129.249  0.00  0.00    -0.245 OA
BRANCH   3   5
ATOM      5  O   LIG A   1     -11.067   3.723 130.704  0.00  0.00    -0.477 OA
ATOM      6  H   LIG A   1     -10.242   3.266 130.976  0.00  0.00    +0.295 HD
ENDBRANCH   3   5
ENDBRANCH   2   3
BRANCH   1   7
ATOM      7  C   LIG A   1      -8.377   6.083 131.906  0.00  0.00    +0.032 C 
BRANCH   7   8
ATOM      8  C   LIG A   1      -7.454   6.915 131.005  0.00  0.00    +0.034 C 
BRANCH   8  10
ATOM      9  C   LIG A   1      -6.054   4.827 130.969  0.00  0.00    +0.038 C 
ATOM     10  C   LIG A   1      -6.046   6.324 131.006  0.00  0.00    -0.076 C 
ATOM     11  C   LIG A   1      -4.940   7.099 131.036  0.00  0.00    -0.027 C 
BRANCH  11  12
ATOM     12  C   LIG A   1      -3.459   6.757 130.934  0.00  0.00    +0.034 C 
BRANCH  12  13
ATOM     13  C   LIG A   1      -2.954   5.650 129.984  0.00  0.00    +0.078 C 
BRANCH  13  14
ATOM     14  C   LIG A   1      -2.911   6.095 128.511  0.00  0.00    +0.131 C 
ATOM     15  C   LIG A   1      -3.973   5.556 127.553  0.00  0.00    +0.086 C 
ATOM     16  O   LIG A   1      -2.060   6.888 128.101  0.00  0.00    -0.298 OA
ENDBRANCH  13  14
ENDBRANCH  12  13
ENDBRANCH  11  12
ENDBRANCH   8  10
ENDBRANCH   7   8
ENDBRANCH   1   7
BRANCH   2  17
ATOM     17  C   LIG A   1     -12.214   6.609 131.431  0.00  0.00    +0.046 C 
BRANCH  17  18
ATOM     18  C   LIG A   1     -12.618   7.794 130.535  0.00  0.00    +0.032 C 
BRANCH  18  19
ATOM     19  C   LIG A   1     -12.780   7.525 129.058  0.00  0.00    -0.028 C 
ATOM     20  C   LIG A   1     -11.872   7.727 128.079  0.00  0.00    -0.080 C 
ATOM     21  C   LIG A   1     -10.532   8.394 128.240  0.00  0.00    +0.038 C 
ATOM     22  C   LIG A   1     -12.101   7.193 126.686  0.00  0.00    +0.038 C 
ENDBRANCH  18  19
ENDBRANCH  17  18
ENDBRANCH   2  17
TORSDOF 11
ENDMDL
MODEL 7
REMARK VINA RESULT:      -6.3      3.842      7.667
REMARK  Name = NuBBE_184
REMARK  15 active torsions:
REMARK  status: ('A' for Active; 'I' for Inactive)
REMARK    1  A    between atoms: C_1  and  C_2
REMARK    2  A    between atoms: C_2  and  C_3
REMARK    3  A    between atoms: C_3  and  C_4
REMARK    4  A    between atoms: C_4  and  C_5
REMARK    5  A    between atoms: C_6  and  C_7
REMARK    6  A    between atoms: C_6  and  C_10
REMARK    7  A    between atoms: C_7  and  O_8
REMARK    8  A    between atoms: C_10  and  C_11
REMARK    9  A    between atoms: C_11  and  C_12
REMARK   10  A    between atoms: C_13  and  C_14
REMARK   11  A    between atoms: C_13  and  C_15
REMARK   12  A    between atoms: C_16  and  C_17
REMARK   13  A    between atoms: C_17  and  C_18
REMARK   14  A    between atoms: C_18  and  C_19
REMARK   15  A    between atoms: C_19  and  C_20
REMARK                            x       y       z     vdW  Elec       q    Type
REMARK                         _______ _______ _______ _____ _____    ______ ____
ROOT
ATOM      1  C   LIG A   1      -7.923  -3.386 126.112  0.00  0.00    -0.016 C 
ATOM      2  C   LIG A   1      -7.963  -3.113 124.773  0.00  0.00    +0.033 C 
ENDROOT
BRANCH   2   3
ATOM      3  C   LIG A   1      -9.211  -2.597 124.148  0.00  0.00    +0.333 C 
ATOM      4  O   LIG A   1      -9.595  -1.406 124.060  0.00  0.00    -0.245 OA
BRANCH   3   5
ATOM      5  O   LIG A   1      -9.978  -3.495 123.608  0.00  0.00    -0.477 OA
ATOM      6  H   LIG A   1     -10.848  -3.040 123.629  0.00  0.00    +0.295 HD
ENDBRANCH   3   5
ENDBRANCH   2   3
BRANCH   1   7
ATOM      7  C   LIG A   1      -9.084  -3.263 127.042  0.00  0.00    +0.032 C 
BRANCH   7   8
ATOM      8  C   LIG A   1      -8.966  -3.900 128.434  0.00  0.00    +0.034 C 
BRANCH   8  10
ATOM      9  C   LIG A   1      -7.894  -1.833 129.382  0.00  0.00    +0.038 C 
ATOM     10  C   LIG A   1      -7.772  -3.312 129.182  0.00  0.00    -0.076 C 
ATOM     11  C   LIG A   1      -6.739  -4.076 129.601  0.00  0.00    -0.027 C 
BRANCH  11  12
ATOM     12  C   LIG A   1      -5.513  -3.748 130.445  0.00  0.00    +0.034 C 
BRANCH  12  13
ATOM     13  C   LIG A   1      -4.201  -3.256 129.797  0.00  0.00    +0.078 C 
BRANCH  13  14
ATOM     14  C   LIG A   1      -3.618  -2.012 130.490  0.00  0.00    +0.131 C 
ATOM     15  C   LIG A   1      -4.218  -0.644 130.163  0.00  0.00    +0.086 C 
ATOM     16  O   LIG A   1      -2.703  -2.100 131.312  0.00  0.00    -0.298 OA
ENDBRANCH  13  14
ENDBRANCH  12  13
ENDBRANCH  11  12
ENDBRANCH   8  10
ENDBRANCH   7   8
ENDBRANCH   1   7
BRANCH   2  17
ATOM     17  C   LIG A   1      -6.759  -3.417 123.913  0.00  0.00    +0.046 C 
BRANCH  17  18
ATOM     18  C   LIG A   1      -5.631  -2.380 123.755  0.00  0.00    +0.032 C 
BRANCH  18  19
ATOM     19  C   LIG A   1      -5.257  -1.571 124.972  0.00  0.00    -0.028 C 
ATOM     20  C   LIG A   1      -5.761  -0.378 125.357  0.00  0.00    -0.080 C 
ATOM     21  C   LIG A   1      -6.727   0.467 124.571  0.00  0.00    +0.038 C 
ATOM     22  C   LIG A   1      -5.450   0.193 126.719  0.00  0.00    +0.038 C 
ENDBRANCH  18  19
ENDBRANCH  17  18
ENDBRANCH   2  17
TORSDOF 11
ENDMDL
MODEL 8
REMARK VINA RESULT:      -6.3      7.690      9.285
REMARK  Name = NuBBE_184
REMARK  15 active torsions:
REMARK  status: ('A' for Active; 'I' for Inactive)
REMARK    1  A    between atoms: C_1  and  C_2
REMARK    2  A    between atoms: C_2  and  C_3
REMARK    3  A    between atoms: C_3  and  C_4
REMARK    4  A    between atoms: C_4  and  C_5
REMARK    5  A    between atoms: C_6  and  C_7
REMARK    6  A    between atoms: C_6  and  C_10
REMARK    7  A    between atoms: C_7  and  O_8
REMARK    8  A    between atoms: C_10  and  C_11
REMARK    9  A    between atoms: C_11  and  C_12
REMARK   10  A    between atoms: C_13  and  C_14
REMARK   11  A    between atoms: C_13  and  C_15
REMARK   12  A    between atoms: C_16  and  C_17
REMARK   13  A    between atoms: C_17  and  C_18
REMARK   14  A    between atoms: C_18  and  C_19
REMARK   15  A    between atoms: C_19  and  C_20
REMARK                            x       y       z     vdW  Elec       q    Type
REMARK                         _______ _______ _______ _____ _____    ______ ____
ROOT
ATOM      1  C   LIG A   1      -8.169   6.040 131.227  0.00  0.00    -0.016 C 
ATOM      2  C   LIG A   1      -7.852   4.946 130.470  0.00  0.00    +0.033 C 
ENDROOT
BRANCH   2   3
ATOM      3  C   LIG A   1      -8.756   4.502 129.375  0.00  0.00    +0.333 C 
ATOM      4  O   LIG A   1      -9.534   3.518 129.367  0.00  0.00    -0.245 OA
BRANCH   3   5
ATOM      5  O   LIG A   1      -8.751   5.246 128.311  0.00  0.00    -0.477 OA
ATOM      6  H   LIG A   1      -8.220   6.013 128.617  0.00  0.00    +0.295 HD
ENDBRANCH   3   5
ENDBRANCH   2   3
BRANCH   1   7
ATOM      7  C   LIG A   1      -9.424   6.836 131.090  0.00  0.00    +0.032 C 
BRANCH   7   8
ATOM      8  C   LIG A   1     -10.711   6.269 131.704  0.00  0.00    +0.034 C 
BRANCH   8  10
ATOM      9  C   LIG A   1     -12.794   7.667 131.528  0.00  0.00    +0.038 C 
ATOM     10  C   LIG A   1     -11.916   6.660 130.851  0.00  0.00    -0.076 C 
ATOM     11  C   LIG A   1     -12.131   6.134 129.625  0.00  0.00    -0.027 C 
BRANCH  11  12
ATOM     12  C   LIG A   1     -13.176   6.440 128.560  0.00  0.00    +0.034 C 
BRANCH  12  13
ATOM     13  C   LIG A   1     -12.817   7.240 127.289  0.00  0.00    +0.078 C 
BRANCH  13  14
ATOM     14  C   LIG A   1     -11.300   7.420 127.101  0.00  0.00    +0.131 C 
ATOM     15  C   LIG A   1     -10.595   8.536 127.872  0.00  0.00    +0.086 C 
ATOM     16  O   LIG A   1     -10.647   6.674 126.367  0.00  0.00    -0.298 OA
ENDBRANCH  13  14
ENDBRANCH  12  13
ENDBRANCH  11  12
ENDBRANCH   8  10
ENDBRANCH   7   8
ENDBRANCH   1   7
BRANCH   2  17
ATOM     17  C   LIG A   1      -6.620   4.139 130.805  0.00  0.00    +0.046 C 
BRANCH  17  18
ATOM     18  C   LIG A   1      -5.610   3.763 129.705  0.00  0.00    +0.032 C 
BRANCH  18  19
ATOM     19  C   LIG A   1      -4.272   4.463 129.721  0.00  0.00    -0.028 C 
ATOM     20  C   LIG A   1      -3.682   5.138 128.711  0.00  0.00    -0.080 C 
ATOM     21  C   LIG A   1      -4.186   5.226 127.295  0.00  0.00    +0.038 C 
ATOM     22  C   LIG A   1      -2.452   5.977 128.953  0.00  0.00    +0.038 C 
ENDBRANCH  18  19
ENDBRANCH  17  18
ENDBRANCH   2  17
TORSDOF 11
ENDMDL
MODEL 9
REMARK VINA RESULT:      -6.2      2.161      3.596
REMARK  Name = NuBBE_184
REMARK  15 active torsions:
REMARK  status: ('A' for Active; 'I' for Inactive)
REMARK    1  A    between atoms: C_1  and  C_2
REMARK    2  A    between atoms: C_2  and  C_3
REMARK    3  A    between atoms: C_3  and  C_4
REMARK    4  A    between atoms: C_4  and  C_5
REMARK    5  A    between atoms: C_6  and  C_7
REMARK    6  A    between atoms: C_6  and  C_10
REMARK    7  A    between atoms: C_7  and  O_8
REMARK    8  A    between atoms: C_10  and  C_11
REMARK    9  A    between atoms: C_11  and  C_12
REMARK   10  A    between atoms: C_13  and  C_14
REMARK   11  A    between atoms: C_13  and  C_15
REMARK   12  A    between atoms: C_16  and  C_17
REMARK   13  A    between atoms: C_17  and  C_18
REMARK   14  A    between atoms: C_18  and  C_19
REMARK   15  A    between atoms: C_19  and  C_20
REMARK                            x       y       z     vdW  Elec       q    Type
REMARK                         _______ _______ _______ _____ _____    ______ ____
ROOT
ATOM      1  C   LIG A   1      -9.456  -0.649 126.047  0.00  0.00    -0.016 C 
ATOM      2  C   LIG A   1      -8.466  -1.441 126.561  0.00  0.00    +0.033 C 
ENDROOT
BRANCH   2   3
ATOM      3  C   LIG A   1      -7.221  -0.832 127.101  0.00  0.00    +0.333 C 
ATOM      4  O   LIG A   1      -6.998  -0.439 128.272  0.00  0.00    -0.245 OA
BRANCH   3   5
ATOM      5  O   LIG A   1      -6.241  -0.720 126.256  0.00  0.00    -0.477 OA
ATOM      6  H   LIG A   1      -5.948   0.201 126.425  0.00  0.00    +0.295 HD
ENDBRANCH   3   5
ENDBRANCH   2   3
BRANCH   1   7
ATOM      7  C   LIG A   1      -9.380   0.836 125.920  0.00  0.00    +0.032 C 
BRANCH   7   8
ATOM      8  C   LIG A   1      -9.838   1.473 124.601  0.00  0.00    +0.034 C 
BRANCH   8  10
ATOM      9  C   LIG A   1      -9.000   2.513 122.471  0.00  0.00    +0.038 C 
ATOM     10  C   LIG A   1      -8.637   2.033 123.842  0.00  0.00    -0.076 C 
ATOM     11  C   LIG A   1      -7.400   2.074 124.384  0.00  0.00    -0.027 C 
BRANCH  11  12
ATOM     12  C   LIG A   1      -6.093   2.673 123.880  0.00  0.00    +0.034 C 
BRANCH  12  13
ATOM     13  C   LIG A   1      -6.021   4.128 123.367  0.00  0.00    +0.078 C 
BRANCH  13  14
ATOM     14  C   LIG A   1      -5.358   4.245 121.983  0.00  0.00    +0.131 C 
ATOM     15  C   LIG A   1      -5.600   3.135 120.960  0.00  0.00    +0.086 C 
ATOM     16  O   LIG A   1      -4.664   5.218 121.680  0.00  0.00    -0.298 OA
ENDBRANCH  13  14
ENDBRANCH  12  13
ENDBRANCH  11  12
ENDBRANCH   8  10
ENDBRANCH   7   8
ENDBRANCH   1   7
BRANCH   2  17
ATOM     17  C   LIG A   1      -8.606  -2.944 126.500  0.00  0.00    +0.046 C 
BRANCH  17  18
ATOM     18  C   LIG A   1      -8.424  -3.691 125.166  0.00  0.00    +0.032 C 
BRANCH  18  19
ATOM     19  C   LIG A   1      -7.379  -3.166 124.212  0.00  0.00    -0.028 C 
ATOM     20  C   LIG A   1      -7.542  -2.254 123.230  0.00  0.00    -0.080 C 
ATOM     21  C   LIG A   1      -8.851  -1.655 122.790  0.00  0.00    +0.038 C 
ATOM     22  C   LIG A   1      -6.352  -1.661 122.515  0.00  0.00    +0.038 C 
ENDBRANCH  18  19
ENDBRANCH  17  18
ENDBRANCH   2  17
TORSDOF 11
ENDMDL
