MODEL 1
REMARK VINA RESULT:      -8.7      0.000      0.000
REMARK  Name = NuBBE_830
REMARK  5 active torsions:
REMARK  status: ('A' for Active; 'I' for Inactive)
REMARK    1  A    between atoms: C_13  and  C_14
REMARK    2  A    between atoms: C_13  and  C_15
REMARK    3  A    between atoms: C_15  and  O_16
REMARK    4  A    between atoms: O_16  and  C_17
REMARK    5  A    between atoms: C_26  and  C_28
REMARK                            x       y       z     vdW  Elec       q    Type
REMARK                         _______ _______ _______ _____ _____    ______ ____
ROOT
ATOM      1  O   LIG A   1      -5.389   4.231 125.168  0.00  0.00    -0.250 OA
ATOM      2  C   LIG A   1      -6.070   3.821 124.238  0.00  0.00    +0.315 C 
ATOM      3  C   LIG A   1      -7.475   3.352 124.410  0.00  0.00    +0.155 C 
ATOM      4  C   LIG A   1      -7.943   2.818 125.733  0.00  0.00    +0.192 C 
ATOM      5  O   LIG A   1      -9.241   2.302 125.365  0.00  0.00    -0.460 OA
ATOM      6  C   LIG A   1      -9.207   1.950 124.033  0.00  0.00    +0.315 C 
ATOM      7  O   LIG A   1     -10.150   1.513 123.399  0.00  0.00    -0.250 OA
ATOM      8  C   LIG A   1      -7.082   1.686 126.298  0.00  0.00    +0.050 C 
ATOM      9  C   LIG A   1      -6.879   0.482 125.340  0.00  0.00    +0.013 C 
ATOM     10  C   LIG A   1      -7.653  -0.831 125.773  0.00  0.00    +0.068 C 
ATOM     11  C   LIG A   1      -9.133  -0.616 126.146  0.00  0.00    +0.023 C 
ATOM     12  C   LIG A   1      -7.562  -1.894 124.656  0.00  0.00    +0.018 C 
ATOM     13  C   LIG A   1      -7.998  -1.362 123.302  0.00  0.00    +0.001 C 
ATOM     14  C   LIG A   1      -7.068  -0.255 122.847  0.00  0.00    +0.005 C 
ATOM     15  C   LIG A   1      -6.921   0.917 123.833  0.00  0.00    +0.011 C 
ATOM     16  C   LIG A   1      -7.809   2.170 123.522  0.00  0.00    +0.091 C 
ATOM     17  C   LIG A   1      -7.720   2.724 122.106  0.00  0.00    +0.069 C 
ATOM     18  C   LIG A   1      -6.293   3.225 121.827  0.00  0.00    +0.211 C 
ATOM     19  O   LIG A   1      -5.644   3.887 122.953  0.00  0.00    -0.456 OA
ENDROOT
BRANCH  18  20
ATOM     20  C   LIG A   1      -6.254   4.106 120.617  0.00  0.00    +0.030 A 
ATOM     21  C   LIG A   1      -7.220   4.212 119.635  0.00  0.00    +0.202 A 
ATOM     22  O   LIG A   1      -6.851   5.112 118.688  0.00  0.00    -0.471 OA
ATOM     23  C   LIG A   1      -5.638   5.595 119.054  0.00  0.00    +0.195 A 
ATOM     24  C   LIG A   1      -5.226   5.015 120.230  0.00  0.00    +0.048 A 
ENDBRANCH  18  20
BRANCH  10  25
ATOM     25  C   LIG A   1      -6.952  -1.442 127.014  0.00  0.00    +0.313 C 
ATOM     26  O   LIG A   1      -5.770  -1.757 127.061  0.00  0.00    -0.250 OA
BRANCH  25  27
ATOM     27  O   LIG A   1      -7.833  -1.618 128.039  0.00  0.00    -0.468 OA
ATOM     28  C   LIG A   1      -7.808  -2.900 128.672  0.00  0.00    +0.280 C 
ENDBRANCH  25  27
ENDBRANCH  10  25
TORSDOF 3
ENDMDL
MODEL 2
REMARK VINA RESULT:      -8.6      1.535      2.257
REMARK  Name = NuBBE_830
REMARK  5 active torsions:
REMARK  status: ('A' for Active; 'I' for Inactive)
REMARK    1  A    between atoms: C_13  and  C_14
REMARK    2  A    between atoms: C_13  and  C_15
REMARK    3  A    between atoms: C_15  and  O_16
REMARK    4  A    between atoms: O_16  and  C_17
REMARK    5  A    between atoms: C_26  and  C_28
REMARK                            x       y       z     vdW  Elec       q    Type
REMARK                         _______ _______ _______ _____ _____    ______ ____
ROOT
ATOM      1  O   LIG A   1      -9.004   3.923 125.524  0.00  0.00    -0.250 OA
ATOM      2  C   LIG A   1      -8.396   3.268 124.689  0.00  0.00    +0.315 C 
ATOM      3  C   LIG A   1      -8.856   1.929 124.220  0.00  0.00    +0.155 C 
ATOM      4  C   LIG A   1      -9.717   1.069 125.100  0.00  0.00    +0.192 C 
ATOM      5  O   LIG A   1      -9.717  -0.163 124.345  0.00  0.00    -0.460 OA
ATOM      6  C   LIG A   1      -8.549  -0.227 123.617  0.00  0.00    +0.315 C 
ATOM      7  O   LIG A   1      -8.250  -1.122 122.847  0.00  0.00    -0.250 OA
ATOM      8  C   LIG A   1      -9.140   0.816 126.495  0.00  0.00    +0.050 C 
ATOM      9  C   LIG A   1      -7.703   0.231 126.508  0.00  0.00    +0.013 C 
ATOM     10  C   LIG A   1      -7.623  -1.286 126.964  0.00  0.00    +0.068 C 
ATOM     11  C   LIG A   1      -8.636  -2.221 126.276  0.00  0.00    +0.023 C 
ATOM     12  C   LIG A   1      -6.195  -1.832 126.740  0.00  0.00    +0.018 C 
ATOM     13  C   LIG A   1      -5.694  -1.606 125.325  0.00  0.00    +0.001 C 
ATOM     14  C   LIG A   1      -5.580  -0.122 125.038  0.00  0.00    +0.005 C 
ATOM     15  C   LIG A   1      -6.871   0.684 125.257  0.00  0.00    +0.011 C 
ATOM     16  C   LIG A   1      -7.710   0.972 123.965  0.00  0.00    +0.091 C 
ATOM     17  C   LIG A   1      -6.954   1.591 122.796  0.00  0.00    +0.069 C 
ATOM     18  C   LIG A   1      -6.423   2.980 123.190  0.00  0.00    +0.211 C 
ATOM     19  O   LIG A   1      -7.325   3.766 124.025  0.00  0.00    -0.456 OA
ENDROOT
BRANCH  18  20
ATOM     20  C   LIG A   1      -6.017   3.768 121.983  0.00  0.00    +0.030 A 
ATOM     21  C   LIG A   1      -4.912   4.587 121.859  0.00  0.00    +0.202 A 
ATOM     22  O   LIG A   1      -4.856   5.141 120.621  0.00  0.00    -0.471 OA
ATOM     23  C   LIG A   1      -5.931   4.682 119.935  0.00  0.00    +0.195 A 
ATOM     24  C   LIG A   1      -6.675   3.833 120.720  0.00  0.00    +0.048 A 
ENDBRANCH  18  20
BRANCH  10  25
ATOM     25  C   LIG A   1      -7.887  -1.367 128.490  0.00  0.00    +0.313 C 
ATOM     26  O   LIG A   1      -7.764  -0.430 129.268  0.00  0.00    -0.250 OA
BRANCH  25  27
ATOM     27  O   LIG A   1      -8.240  -2.630 128.860  0.00  0.00    -0.468 OA
ATOM     28  C   LIG A   1      -7.539  -3.172 129.983  0.00  0.00    +0.280 C 
ENDBRANCH  25  27
ENDBRANCH  10  25
TORSDOF 3
ENDMDL
MODEL 3
REMARK VINA RESULT:      -8.0      1.980      7.493
REMARK  Name = NuBBE_830
REMARK  5 active torsions:
REMARK  status: ('A' for Active; 'I' for Inactive)
REMARK    1  A    between atoms: C_13  and  C_14
REMARK    2  A    between atoms: C_13  and  C_15
REMARK    3  A    between atoms: C_15  and  O_16
REMARK    4  A    between atoms: O_16  and  C_17
REMARK    5  A    between atoms: C_26  and  C_28
REMARK                            x       y       z     vdW  Elec       q    Type
REMARK                         _______ _______ _______ _____ _____    ______ ____
ROOT
ATOM      1  O   LIG A   1      -8.098  -2.719 124.529  0.00  0.00    -0.250 OA
ATOM      2  C   LIG A   1      -7.743  -2.115 125.531  0.00  0.00    +0.315 C 
ATOM      3  C   LIG A   1      -8.477  -0.931 126.064  0.00  0.00    +0.155 C 
ATOM      4  C   LIG A   1      -9.306  -0.075 125.149  0.00  0.00    +0.192 C 
ATOM      5  O   LIG A   1      -9.622   1.025 126.031  0.00  0.00    -0.460 OA
ATOM      6  C   LIG A   1      -8.612   1.138 126.961  0.00  0.00    +0.315 C 
ATOM      7  O   LIG A   1      -8.586   1.946 127.873  0.00  0.00    -0.250 OA
ATOM      8  C   LIG A   1      -8.557   0.449 123.922  0.00  0.00    +0.050 C 
ATOM      9  C   LIG A   1      -7.246   1.216 124.240  0.00  0.00    +0.013 C 
ATOM     10  C   LIG A   1      -7.330   2.780 123.988  0.00  0.00    +0.068 C 
ATOM     11  C   LIG A   1      -8.575   3.464 124.585  0.00  0.00    +0.023 C 
ATOM     12  C   LIG A   1      -6.061   3.473 124.530  0.00  0.00    +0.018 C 
ATOM     13  C   LIG A   1      -5.768   3.115 125.976  0.00  0.00    +0.001 C 
ATOM     14  C   LIG A   1      -5.472   1.634 126.102  0.00  0.00    +0.005 C 
ATOM     15  C   LIG A   1      -6.569   0.703 125.558  0.00  0.00    +0.011 C 
ATOM     16  C   LIG A   1      -7.551   0.124 126.634  0.00  0.00    +0.091 C 
ATOM     17  C   LIG A   1      -6.908  -0.550 127.839  0.00  0.00    +0.069 C 
ATOM     18  C   LIG A   1      -6.110  -1.785 127.387  0.00  0.00    +0.211 C 
ATOM     19  O   LIG A   1      -6.730  -2.556 126.316  0.00  0.00    -0.456 OA
ENDROOT
BRANCH  18  20
ATOM     20  C   LIG A   1      -5.788  -2.676 128.547  0.00  0.00    +0.030 A 
ATOM     21  C   LIG A   1      -4.532  -3.047 128.986  0.00  0.00    +0.202 A 
ATOM     22  O   LIG A   1      -4.618  -3.864 130.067  0.00  0.00    -0.471 OA
ATOM     23  C   LIG A   1      -5.937  -4.027 130.334  0.00  0.00    +0.195 A 
ATOM     24  C   LIG A   1      -6.700  -3.318 129.435  0.00  0.00    +0.048 A 
ENDBRANCH  18  20
BRANCH  10  25
ATOM     25  C   LIG A   1      -7.351   3.042 122.460  0.00  0.00    +0.313 C 
ATOM     26  O   LIG A   1      -6.375   2.960 121.725  0.00  0.00    -0.250 OA
BRANCH  25  27
ATOM     27  O   LIG A   1      -8.595   3.412 122.043  0.00  0.00    -0.468 OA
ATOM     28  C   LIG A   1      -8.712   3.767 120.662  0.00  0.00    +0.280 C 
ENDBRANCH  25  27
ENDBRANCH  10  25
TORSDOF 3
ENDMDL
MODEL 4
REMARK VINA RESULT:      -7.8      3.114      8.024
REMARK  Name = NuBBE_830
REMARK  5 active torsions:
REMARK  status: ('A' for Active; 'I' for Inactive)
REMARK    1  A    between atoms: C_13  and  C_14
REMARK    2  A    between atoms: C_13  and  C_15
REMARK    3  A    between atoms: C_15  and  O_16
REMARK    4  A    between atoms: O_16  and  C_17
REMARK    5  A    between atoms: C_26  and  C_28
REMARK                            x       y       z     vdW  Elec       q    Type
REMARK                         _______ _______ _______ _____ _____    ______ ____
ROOT
ATOM      1  O   LIG A   1      -7.610   1.100 128.796  0.00  0.00    -0.250 OA
ATOM      2  C   LIG A   1      -7.263  -0.066 128.669  0.00  0.00    +0.315 C 
ATOM      3  C   LIG A   1      -6.327  -0.519 127.600  0.00  0.00    +0.155 C 
ATOM      4  C   LIG A   1      -6.210   0.251 126.315  0.00  0.00    +0.192 C 
ATOM      5  O   LIG A   1      -5.394  -0.655 125.539  0.00  0.00    -0.460 OA
ATOM      6  C   LIG A   1      -5.621  -1.937 125.988  0.00  0.00    +0.315 C 
ATOM      7  O   LIG A   1      -5.064  -2.936 125.569  0.00  0.00    -0.250 OA
ATOM      8  C   LIG A   1      -7.540   0.488 125.597  0.00  0.00    +0.050 C 
ATOM      9  C   LIG A   1      -8.364  -0.797 125.312  0.00  0.00    +0.013 C 
ATOM     10  C   LIG A   1      -8.412  -1.213 123.783  0.00  0.00    +0.068 C 
ATOM     11  C   LIG A   1      -7.045  -1.218 123.071  0.00  0.00    +0.023 C 
ATOM     12  C   LIG A   1      -9.067  -2.604 123.633  0.00  0.00    +0.018 C 
ATOM     13  C   LIG A   1      -8.424  -3.655 124.519  0.00  0.00    +0.001 C 
ATOM     14  C   LIG A   1      -8.617  -3.303 125.980  0.00  0.00    +0.005 C 
ATOM     15  C   LIG A   1      -8.106  -1.911 126.386  0.00  0.00    +0.011 C 
ATOM     16  C   LIG A   1      -6.686  -1.885 127.049  0.00  0.00    +0.091 C 
ATOM     17  C   LIG A   1      -6.474  -2.832 128.223  0.00  0.00    +0.069 C 
ATOM     18  C   LIG A   1      -7.412  -2.452 129.382  0.00  0.00    +0.211 C 
ATOM     19  O   LIG A   1      -7.595  -1.018 129.575  0.00  0.00    -0.456 OA
ENDROOT
BRANCH  18  20
ATOM     20  C   LIG A   1      -6.980  -3.095 130.663  0.00  0.00    +0.030 A 
ATOM     21  C   LIG A   1      -7.468  -2.836 131.929  0.00  0.00    +0.202 A 
ATOM     22  O   LIG A   1      -6.846  -3.608 132.855  0.00  0.00    -0.471 OA
ATOM     23  C   LIG A   1      -5.946  -4.375 132.191  0.00  0.00    +0.195 A 
ATOM     24  C   LIG A   1      -5.988  -4.104 130.844  0.00  0.00    +0.048 A 
ENDBRANCH  18  20
BRANCH  10  25
ATOM     25  C   LIG A   1      -9.323  -0.217 123.020  0.00  0.00    +0.313 C 
ATOM     26  O   LIG A   1     -10.478  -0.446 122.685  0.00  0.00    -0.250 OA
BRANCH  25  27
ATOM     27  O   LIG A   1      -8.658   0.938 122.737  0.00  0.00    -0.468 OA
ATOM     28  C   LIG A   1      -9.374   2.151 122.988  0.00  0.00    +0.280 C 
ENDBRANCH  25  27
ENDBRANCH  10  25
TORSDOF 3
ENDMDL
MODEL 5
REMARK VINA RESULT:      -7.6      2.826      5.962
REMARK  Name = NuBBE_830
REMARK  5 active torsions:
REMARK  status: ('A' for Active; 'I' for Inactive)
REMARK    1  A    between atoms: C_13  and  C_14
REMARK    2  A    between atoms: C_13  and  C_15
REMARK    3  A    between atoms: C_15  and  O_16
REMARK    4  A    between atoms: O_16  and  C_17
REMARK    5  A    between atoms: C_26  and  C_28
REMARK                            x       y       z     vdW  Elec       q    Type
REMARK                         _______ _______ _______ _____ _____    ______ ____
ROOT
ATOM      1  O   LIG A   1      -6.408   2.622 122.417  0.00  0.00    -0.250 OA
ATOM      2  C   LIG A   1      -6.896   1.969 123.329  0.00  0.00    +0.315 C 
ATOM      3  C   LIG A   1      -7.493   2.596 124.543  0.00  0.00    +0.155 C 
ATOM      4  C   LIG A   1      -7.044   3.956 124.996  0.00  0.00    +0.192 C 
ATOM      5  O   LIG A   1      -7.708   4.039 126.277  0.00  0.00    -0.460 OA
ATOM      6  C   LIG A   1      -7.872   2.761 126.764  0.00  0.00    +0.315 C 
ATOM      7  O   LIG A   1      -8.429   2.475 127.809  0.00  0.00    -0.250 OA
ATOM      8  C   LIG A   1      -5.532   4.090 125.191  0.00  0.00    +0.050 C 
ATOM      9  C   LIG A   1      -4.903   3.035 126.140  0.00  0.00    +0.013 C 
ATOM     10  C   LIG A   1      -4.430   3.618 127.537  0.00  0.00    +0.068 C 
ATOM     11  C   LIG A   1      -5.466   4.511 128.248  0.00  0.00    +0.023 C 
ATOM     12  C   LIG A   1      -4.020   2.466 128.481  0.00  0.00    +0.018 C 
ATOM     13  C   LIG A   1      -5.095   1.401 128.609  0.00  0.00    +0.001 C 
ATOM     14  C   LIG A   1      -5.332   0.728 127.273  0.00  0.00    +0.005 C 
ATOM     15  C   LIG A   1      -5.693   1.680 126.120  0.00  0.00    +0.011 C 
ATOM     16  C   LIG A   1      -7.223   1.802 125.804  0.00  0.00    +0.091 C 
ATOM     17  C   LIG A   1      -7.973   0.493 125.594  0.00  0.00    +0.069 C 
ATOM     18  C   LIG A   1      -7.415  -0.240 124.362  0.00  0.00    +0.211 C 
ATOM     19  O   LIG A   1      -7.054   0.625 123.246  0.00  0.00    -0.456 OA
ENDROOT
BRANCH  18  20
ATOM     20  C   LIG A   1      -8.351  -1.315 123.901  0.00  0.00    +0.030 A 
ATOM     21  C   LIG A   1      -9.392  -1.182 123.003  0.00  0.00    +0.202 A 
ATOM     22  O   LIG A   1     -10.027  -2.367 122.818  0.00  0.00    -0.471 OA
ATOM     23  C   LIG A   1      -9.398  -3.278 123.601  0.00  0.00    +0.195 A 
ATOM     24  C   LIG A   1      -8.361  -2.688 124.284  0.00  0.00    +0.048 A 
ENDBRANCH  18  20
BRANCH  10  25
ATOM     25  C   LIG A   1      -3.158   4.477 127.319  0.00  0.00    +0.313 C 
ATOM     26  O   LIG A   1      -2.072   4.035 126.967  0.00  0.00    -0.250 OA
BRANCH  25  27
ATOM     27  O   LIG A   1      -3.396   5.788 127.604  0.00  0.00    -0.468 OA
ATOM     28  C   LIG A   1      -2.328   6.494 128.242  0.00  0.00    +0.280 C 
ENDBRANCH  25  27
ENDBRANCH  10  25
TORSDOF 3
ENDMDL
MODEL 6
REMARK VINA RESULT:      -7.5      3.350      5.981
REMARK  Name = NuBBE_830
REMARK  5 active torsions:
REMARK  status: ('A' for Active; 'I' for Inactive)
REMARK    1  A    between atoms: C_13  and  C_14
REMARK    2  A    between atoms: C_13  and  C_15
REMARK    3  A    between atoms: C_15  and  O_16
REMARK    4  A    between atoms: O_16  and  C_17
REMARK    5  A    between atoms: C_26  and  C_28
REMARK                            x       y       z     vdW  Elec       q    Type
REMARK                         _______ _______ _______ _____ _____    ______ ____
ROOT
ATOM      1  O   LIG A   1      -5.083   0.637 128.835  0.00  0.00    -0.250 OA
ATOM      2  C   LIG A   1      -5.139   1.799 128.458  0.00  0.00    +0.315 C 
ATOM      3  C   LIG A   1      -6.422   2.476 128.113  0.00  0.00    +0.155 C 
ATOM      4  C   LIG A   1      -7.607   1.674 127.657  0.00  0.00    +0.192 C 
ATOM      5  O   LIG A   1      -8.498   2.733 127.242  0.00  0.00    -0.460 OA
ATOM      6  C   LIG A   1      -7.736   3.813 126.852  0.00  0.00    +0.315 C 
ATOM      7  O   LIG A   1      -8.179   4.885 126.477  0.00  0.00    -0.250 OA
ATOM      8  C   LIG A   1      -7.325   0.746 126.473  0.00  0.00    +0.050 C 
ATOM      9  C   LIG A   1      -6.712   1.446 125.231  0.00  0.00    +0.013 C 
ATOM     10  C   LIG A   1      -7.703   1.568 123.999  0.00  0.00    +0.068 C 
ATOM     11  C   LIG A   1      -9.104   2.105 124.348  0.00  0.00    +0.023 C 
ATOM     12  C   LIG A   1      -7.078   2.458 122.902  0.00  0.00    +0.018 C 
ATOM     13  C   LIG A   1      -6.611   3.803 123.431  0.00  0.00    +0.001 C 
ATOM     14  C   LIG A   1      -5.500   3.614 124.443  0.00  0.00    +0.005 C 
ATOM     15  C   LIG A   1      -5.846   2.693 125.625  0.00  0.00    +0.011 C 
ATOM     16  C   LIG A   1      -6.286   3.425 126.939  0.00  0.00    +0.091 C 
ATOM     17  C   LIG A   1      -5.354   4.519 127.444  0.00  0.00    +0.069 C 
ATOM     18  C   LIG A   1      -3.989   3.917 127.815  0.00  0.00    +0.211 C 
ATOM     19  O   LIG A   1      -4.050   2.606 128.452  0.00  0.00    -0.456 OA
ENDROOT
BRANCH  18  20
ATOM     20  C   LIG A   1      -3.189   4.863 128.656  0.00  0.00    +0.030 A 
ATOM     21  C   LIG A   1      -2.436   5.934 128.216  0.00  0.00    +0.202 A 
ATOM     22  O   LIG A   1      -1.847   6.574 129.257  0.00  0.00    -0.471 OA
ATOM     23  C   LIG A   1      -2.216   5.916 130.384  0.00  0.00    +0.195 A 
ATOM     24  C   LIG A   1      -3.041   4.861 130.074  0.00  0.00    +0.048 A 
ENDBRANCH  18  20
BRANCH  10  25
ATOM     25  C   LIG A   1      -7.894   0.166 123.366  0.00  0.00    +0.313 C 
ATOM     26  O   LIG A   1      -8.964  -0.425 123.292  0.00  0.00    -0.250 OA
BRANCH  25  27
ATOM     27  O   LIG A   1      -6.706  -0.343 122.933  0.00  0.00    -0.468 OA
ATOM     28  C   LIG A   1      -6.508  -1.743 123.151  0.00  0.00    +0.280 C 
ENDBRANCH  25  27
ENDBRANCH  10  25
TORSDOF 3
ENDMDL
MODEL 7
REMARK VINA RESULT:      -7.4      7.338      9.418
REMARK  Name = NuBBE_830
REMARK  5 active torsions:
REMARK  status: ('A' for Active; 'I' for Inactive)
REMARK    1  A    between atoms: C_13  and  C_14
REMARK    2  A    between atoms: C_13  and  C_15
REMARK    3  A    between atoms: C_15  and  O_16
REMARK    4  A    between atoms: O_16  and  C_17
REMARK    5  A    between atoms: C_26  and  C_28
REMARK                            x       y       z     vdW  Elec       q    Type
REMARK                         _______ _______ _______ _____ _____    ______ ____
ROOT
ATOM      1  O   LIG A   1      -9.381   3.077 129.184  0.00  0.00    -0.250 OA
ATOM      2  C   LIG A   1      -9.229   4.198 129.650  0.00  0.00    +0.315 C 
ATOM      3  C   LIG A   1      -7.885   4.788 129.915  0.00  0.00    +0.155 C 
ATOM      4  C   LIG A   1      -6.702   3.899 130.175  0.00  0.00    +0.192 C 
ATOM      5  O   LIG A   1      -5.722   4.879 130.584  0.00  0.00    -0.460 OA
ATOM      6  C   LIG A   1      -6.385   5.951 131.141  0.00  0.00    +0.315 C 
ATOM      7  O   LIG A   1      -5.854   6.965 131.556  0.00  0.00    -0.250 OA
ATOM      8  C   LIG A   1      -6.911   2.882 131.299  0.00  0.00    +0.050 C 
ATOM      9  C   LIG A   1      -7.360   3.492 132.654  0.00  0.00    +0.013 C 
ATOM     10  C   LIG A   1      -6.245   3.463 133.781  0.00  0.00    +0.068 C 
ATOM     11  C   LIG A   1      -4.861   3.971 133.334  0.00  0.00    +0.023 C 
ATOM     12  C   LIG A   1      -6.712   4.277 135.009  0.00  0.00    +0.018 C 
ATOM     13  C   LIG A   1      -7.160   5.682 134.647  0.00  0.00    +0.001 C 
ATOM     14  C   LIG A   1      -8.376   5.630 133.744  0.00  0.00    +0.005 C 
ATOM     15  C   LIG A   1      -8.197   4.805 132.459  0.00  0.00    +0.011 C 
ATOM     16  C   LIG A   1      -7.855   5.632 131.173  0.00  0.00    +0.091 C 
ATOM     17  C   LIG A   1      -8.776   6.805 130.862  0.00  0.00    +0.069 C 
ATOM     18  C   LIG A   1     -10.201   6.295 130.586  0.00  0.00    +0.211 C 
ATOM     19  O   LIG A   1     -10.270   5.046 129.838  0.00  0.00    -0.456 OA
ENDROOT
BRANCH  18  20
ATOM     20  C   LIG A   1     -11.032   7.346 129.916  0.00  0.00    +0.030 A 
ATOM     21  C   LIG A   1     -10.697   8.083 128.797  0.00  0.00    +0.202 A 
ATOM     22  O   LIG A   1     -11.693   8.943 128.467  0.00  0.00    -0.471 OA
ATOM     23  C   LIG A   1     -12.684   8.767 129.376  0.00  0.00    +0.195 A 
ATOM     24  C   LIG A   1     -12.333   7.797 130.285  0.00  0.00    +0.048 A 
ENDBRANCH  18  20
BRANCH  10  25
ATOM     25  C   LIG A   1      -6.063   2.003 134.270  0.00  0.00    +0.313 C 
ATOM     26  O   LIG A   1      -6.870   1.101 134.087  0.00  0.00    -0.250 OA
BRANCH  25  27
ATOM     27  O   LIG A   1      -4.898   1.859 134.963  0.00  0.00    -0.468 OA
ATOM     28  C   LIG A   1      -4.445   0.516 135.154  0.00  0.00    +0.280 C 
ENDBRANCH  25  27
ENDBRANCH  10  25
TORSDOF 3
ENDMDL
MODEL 8
REMARK VINA RESULT:      -7.4      7.685      8.863
REMARK  Name = NuBBE_830
REMARK  5 active torsions:
REMARK  status: ('A' for Active; 'I' for Inactive)
REMARK    1  A    between atoms: C_13  and  C_14
REMARK    2  A    between atoms: C_13  and  C_15
REMARK    3  A    between atoms: C_15  and  O_16
REMARK    4  A    between atoms: O_16  and  C_17
REMARK    5  A    between atoms: C_26  and  C_28
REMARK                            x       y       z     vdW  Elec       q    Type
REMARK                         _______ _______ _______ _____ _____    ______ ____
ROOT
ATOM      1  O   LIG A   1      -6.405   7.322 130.706  0.00  0.00    -0.250 OA
ATOM      2  C   LIG A   1      -7.504   6.845 130.955  0.00  0.00    +0.315 C 
ATOM      3  C   LIG A   1      -7.805   6.131 132.229  0.00  0.00    +0.155 C 
ATOM      4  C   LIG A   1      -6.706   5.461 133.003  0.00  0.00    +0.192 C 
ATOM      5  O   LIG A   1      -7.480   4.745 133.991  0.00  0.00    -0.460 OA
ATOM      6  C   LIG A   1      -8.720   4.469 133.456  0.00  0.00    +0.315 C 
ATOM      7  O   LIG A   1      -9.627   3.905 134.042  0.00  0.00    -0.250 OA
ATOM      8  C   LIG A   1      -5.872   4.470 132.188  0.00  0.00    +0.050 C 
ATOM      9  C   LIG A   1      -6.692   3.368 131.467  0.00  0.00    +0.013 C 
ATOM     10  C   LIG A   1      -6.525   1.920 132.091  0.00  0.00    +0.068 C 
ATOM     11  C   LIG A   1      -6.670   1.856 133.624  0.00  0.00    +0.023 C 
ATOM     12  C   LIG A   1      -7.534   0.944 131.445  0.00  0.00    +0.018 C 
ATOM     13  C   LIG A   1      -8.963   1.457 131.497  0.00  0.00    +0.001 C 
ATOM     14  C   LIG A   1      -9.095   2.730 130.685  0.00  0.00    +0.005 C 
ATOM     15  C   LIG A   1      -8.132   3.860 131.086  0.00  0.00    +0.011 C 
ATOM     16  C   LIG A   1      -8.738   4.953 132.032  0.00  0.00    +0.091 C 
ATOM     17  C   LIG A   1     -10.050   5.582 131.581  0.00  0.00    +0.069 C 
ATOM     18  C   LIG A   1      -9.843   6.336 130.257  0.00  0.00    +0.211 C 
ATOM     19  O   LIG A   1      -8.574   7.046 130.148  0.00  0.00    -0.456 OA
ENDROOT
BRANCH  18  20
ATOM     20  C   LIG A   1     -10.982   7.268 129.980  0.00  0.00    +0.030 A 
ATOM     21  C   LIG A   1     -12.164   7.370 130.689  0.00  0.00    +0.202 A 
ATOM     22  O   LIG A   1     -12.967   8.325 130.155  0.00  0.00    -0.471 OA
ATOM     23  C   LIG A   1     -12.308   8.847 129.092  0.00  0.00    +0.195 A 
ATOM     24  C   LIG A   1     -11.084   8.238 128.941  0.00  0.00    +0.048 A 
ENDBRANCH  18  20
BRANCH  10  25
ATOM     25  C   LIG A   1      -5.114   1.382 131.741  0.00  0.00    +0.313 C 
ATOM     26  O   LIG A   1      -4.143   1.435 132.486  0.00  0.00    -0.250 OA
BRANCH  25  27
ATOM     27  O   LIG A   1      -5.083   0.871 130.478  0.00  0.00    -0.468 OA
ATOM     28  C   LIG A   1      -4.156  -0.196 130.257  0.00  0.00    +0.280 C 
ENDBRANCH  25  27
ENDBRANCH  10  25
TORSDOF 3
ENDMDL
MODEL 9
REMARK VINA RESULT:      -7.4      7.986     10.299
REMARK  Name = NuBBE_830
REMARK  5 active torsions:
REMARK  status: ('A' for Active; 'I' for Inactive)
REMARK    1  A    between atoms: C_13  and  C_14
REMARK    2  A    between atoms: C_13  and  C_15
REMARK    3  A    between atoms: C_15  and  O_16
REMARK    4  A    between atoms: O_16  and  C_17
REMARK    5  A    between atoms: C_26  and  C_28
REMARK                            x       y       z     vdW  Elec       q    Type
REMARK                         _______ _______ _______ _____ _____    ______ ____
ROOT
ATOM      1  O   LIG A   1      -8.417   5.732 134.255  0.00  0.00    -0.250 OA
ATOM      2  C   LIG A   1      -8.293   5.731 133.038  0.00  0.00    +0.315 C 
ATOM      3  C   LIG A   1      -7.344   4.830 132.323  0.00  0.00    +0.155 C 
ATOM      4  C   LIG A   1      -6.120   4.308 133.019  0.00  0.00    +0.192 C 
ATOM      5  O   LIG A   1      -5.427   3.695 131.908  0.00  0.00    -0.460 OA
ATOM      6  C   LIG A   1      -5.789   4.354 130.754  0.00  0.00    +0.315 C 
ATOM      7  O   LIG A   1      -5.410   4.065 129.633  0.00  0.00    -0.250 OA
ATOM      8  C   LIG A   1      -5.236   5.391 133.641  0.00  0.00    +0.050 C 
ATOM      9  C   LIG A   1      -4.791   6.509 132.661  0.00  0.00    +0.013 C 
ATOM     10  C   LIG A   1      -3.254   6.460 132.274  0.00  0.00    +0.068 C 
ATOM     11  C   LIG A   1      -2.736   5.070 131.858  0.00  0.00    +0.023 C 
ATOM     12  C   LIG A   1      -2.960   7.470 131.143  0.00  0.00    +0.018 C 
ATOM     13  C   LIG A   1      -3.883   7.301 129.949  0.00  0.00    +0.001 C 
ATOM     14  C   LIG A   1      -5.316   7.587 130.348  0.00  0.00    +0.005 C 
ATOM     15  C   LIG A   1      -5.844   6.749 131.524  0.00  0.00    +0.011 C 
ATOM     16  C   LIG A   1      -6.696   5.495 131.125  0.00  0.00    +0.091 C 
ATOM     17  C   LIG A   1      -7.849   5.743 130.162  0.00  0.00    +0.069 C 
ATOM     18  C   LIG A   1      -8.882   6.681 130.809  0.00  0.00    +0.211 C 
ATOM     19  O   LIG A   1      -9.106   6.457 132.232  0.00  0.00    -0.456 OA
ENDROOT
BRANCH  18  20
ATOM     20  C   LIG A   1     -10.184   6.647 130.069  0.00  0.00    +0.030 A 
ATOM     21  C   LIG A   1     -11.106   5.619 130.056  0.00  0.00    +0.202 A 
ATOM     22  O   LIG A   1     -12.172   5.934 129.278  0.00  0.00    -0.471 OA
ATOM     23  C   LIG A   1     -11.945   7.174 128.780  0.00  0.00    +0.195 A 
ATOM     24  C   LIG A   1     -10.742   7.660 129.235  0.00  0.00    +0.048 A 
ENDBRANCH  18  20
BRANCH  10  25
ATOM     25  C   LIG A   1      -2.414   6.916 133.495  0.00  0.00    +0.313 C 
ATOM     26  O   LIG A   1      -2.787   7.725 134.335  0.00  0.00    -0.250 OA
BRANCH  25  27
ATOM     27  O   LIG A   1      -1.185   6.325 133.493  0.00  0.00    -0.468 OA
ATOM     28  C   LIG A   1      -0.064   7.212 133.530  0.00  0.00    +0.280 C 
ENDBRANCH  25  27
ENDBRANCH  10  25
TORSDOF 3
ENDMDL
