MODEL 1
REMARK VINA RESULT:      -6.7      0.000      0.000
REMARK  Name = NuBBE_1530
REMARK  3 active torsions:
REMARK  status: ('A' for Active; 'I' for Inactive)
REMARK    1  A    between atoms: C_1  and  C_2
REMARK    2  A    between atoms: C_4  and  C_6
REMARK    3  A    between atoms: C_13  and  C_15
REMARK                            x       y       z     vdW  Elec       q    Type
REMARK                         _______ _______ _______ _____ _____    ______ ____
ROOT
ATOM      1  C   LIG A   1      -5.787  -2.555 123.895  0.00  0.00    +0.018 C 
ATOM      2  C   LIG A   1      -6.711  -1.435 124.446  0.00  0.00    +0.051 C 
ATOM      3  C   LIG A   1      -7.938  -2.065 125.025  0.00  0.00    +0.203 C 
ATOM      4  C   LIG A   1      -7.935  -2.518 126.464  0.00  0.00    +0.108 C 
ATOM      5  O   LIG A   1      -8.606  -1.316 126.066  0.00  0.00    -0.349 OA
ATOM      6  C   LIG A   1      -8.863  -3.595 126.930  0.00  0.00    +0.045 C 
ATOM      7  C   LIG A   1      -6.771  -2.188 127.374  0.00  0.00    +0.038 C 
ATOM      8  C   LIG A   1      -5.591  -1.455 126.716  0.00  0.00    +0.004 C 
ATOM      9  C   LIG A   1      -5.957  -0.600 125.492  0.00  0.00    +0.014 C 
ATOM     10  C   LIG A   1      -8.859  -2.335 123.911  0.00  0.00    +0.344 C 
ATOM     11  O   LIG A   1      -9.760  -3.156 123.908  0.00  0.00    -0.247 OA
ATOM     12  O   LIG A   1      -8.485  -1.550 122.850  0.00  0.00    -0.454 OA
ATOM     13  C   LIG A   1      -7.355  -0.710 123.235  0.00  0.00    +0.219 C 
ENDROOT
BRANCH  13  14
ATOM     14  C   LIG A   1      -7.773   0.711 123.447  0.00  0.00    +0.031 A 
ATOM     15  C   LIG A   1      -6.972   1.891 123.410  0.00  0.00    +0.048 A 
ATOM     16  C   LIG A   1      -7.814   2.947 123.666  0.00  0.00    +0.195 A 
ATOM     17  O   LIG A   1      -9.080   2.505 123.866  0.00  0.00    -0.471 OA
ATOM     18  C   LIG A   1      -9.050   1.155 123.741  0.00  0.00    +0.202 A 
ENDBRANCH  13  14
TORSDOF 1
ENDMDL
MODEL 2
REMARK VINA RESULT:      -6.5      8.269      9.470
REMARK  Name = NuBBE_1530
REMARK  3 active torsions:
REMARK  status: ('A' for Active; 'I' for Inactive)
REMARK    1  A    between atoms: C_1  and  C_2
REMARK    2  A    between atoms: C_4  and  C_6
REMARK    3  A    between atoms: C_13  and  C_15
REMARK                            x       y       z     vdW  Elec       q    Type
REMARK                         _______ _______ _______ _____ _____    ______ ____
ROOT
ATOM      1  C   LIG A   1      -7.781   4.686 129.523  0.00  0.00    +0.018 C 
ATOM      2  C   LIG A   1      -8.816   5.369 130.458  0.00  0.00    +0.051 C 
ATOM      3  C   LIG A   1      -9.142   4.433 131.579  0.00  0.00    +0.203 C 
ATOM      4  C   LIG A   1      -8.289   4.436 132.824  0.00  0.00    +0.108 C 
ATOM      5  O   LIG A   1      -9.585   5.047 132.811  0.00  0.00    -0.349 OA
ATOM      6  C   LIG A   1      -8.207   3.225 133.699  0.00  0.00    +0.045 C 
ATOM      7  C   LIG A   1      -7.218   5.488 133.023  0.00  0.00    +0.038 C 
ATOM      8  C   LIG A   1      -7.015   6.468 131.856  0.00  0.00    +0.004 C 
ATOM      9  C   LIG A   1      -8.255   6.700 130.978  0.00  0.00    +0.014 C 
ATOM     10  C   LIG A   1     -10.152   3.487 131.081  0.00  0.00    +0.344 C 
ATOM     11  O   LIG A   1     -10.385   2.381 131.537  0.00  0.00    -0.247 OA
ATOM     12  O   LIG A   1     -10.741   4.039 129.972  0.00  0.00    -0.454 OA
ATOM     13  C   LIG A   1     -10.188   5.368 129.732  0.00  0.00    +0.219 C 
ENDROOT
BRANCH  13  14
ATOM     14  C   LIG A   1     -11.153   6.444 130.118  0.00  0.00    +0.031 A 
ATOM     15  C   LIG A   1     -12.078   6.464 131.205  0.00  0.00    +0.048 A 
ATOM     16  C   LIG A   1     -12.737   7.668 131.139  0.00  0.00    +0.195 A 
ATOM     17  O   LIG A   1     -12.293   8.393 130.083  0.00  0.00    -0.471 OA
ATOM     18  C   LIG A   1     -11.343   7.648 129.466  0.00  0.00    +0.202 A 
ENDBRANCH  13  14
TORSDOF 1
ENDMDL
MODEL 3
REMARK VINA RESULT:      -6.5      1.938      2.572
REMARK  Name = NuBBE_1530
REMARK  3 active torsions:
REMARK  status: ('A' for Active; 'I' for Inactive)
REMARK    1  A    between atoms: C_1  and  C_2
REMARK    2  A    between atoms: C_4  and  C_6
REMARK    3  A    between atoms: C_13  and  C_15
REMARK                            x       y       z     vdW  Elec       q    Type
REMARK                         _______ _______ _______ _____ _____    ______ ____
ROOT
ATOM      1  C   LIG A   1      -6.351  -0.968 122.700  0.00  0.00    +0.018 C 
ATOM      2  C   LIG A   1      -7.180  -0.795 124.001  0.00  0.00    +0.051 C 
ATOM      3  C   LIG A   1      -8.542  -1.371 123.783  0.00  0.00    +0.203 C 
ATOM      4  C   LIG A   1      -8.782  -2.838 124.043  0.00  0.00    +0.108 C 
ATOM      5  O   LIG A   1      -9.232  -1.837 124.965  0.00  0.00    -0.349 OA
ATOM      6  C   LIG A   1      -9.897  -3.566 123.359  0.00  0.00    +0.045 C 
ATOM      7  C   LIG A   1      -7.709  -3.692 124.684  0.00  0.00    +0.038 C 
ATOM      8  C   LIG A   1      -6.369  -2.992 124.960  0.00  0.00    +0.004 C 
ATOM      9  C   LIG A   1      -6.460  -1.473 125.176  0.00  0.00    +0.014 C 
ATOM     10  C   LIG A   1      -9.343  -0.352 123.087  0.00  0.00    +0.344 C 
ATOM     11  O   LIG A   1     -10.338  -0.559 122.413  0.00  0.00    -0.247 OA
ATOM     12  O   LIG A   1      -8.737   0.864 123.272  0.00  0.00    -0.454 OA
ATOM     13  C   LIG A   1      -7.564   0.704 124.126  0.00  0.00    +0.219 C 
ENDROOT
BRANCH  13  14
ATOM     14  C   LIG A   1      -7.814   1.222 125.507  0.00  0.00    +0.031 A 
ATOM     15  C   LIG A   1      -6.875   1.743 126.447  0.00  0.00    +0.048 A 
ATOM     16  C   LIG A   1      -7.591   2.086 127.569  0.00  0.00    +0.195 A 
ATOM     17  O   LIG A   1      -8.906   1.806 127.395  0.00  0.00    -0.471 OA
ATOM     18  C   LIG A   1      -9.035   1.278 126.153  0.00  0.00    +0.202 A 
ENDBRANCH  13  14
TORSDOF 1
ENDMDL
MODEL 4
REMARK VINA RESULT:      -6.3      8.015      9.339
REMARK  Name = NuBBE_1530
REMARK  3 active torsions:
REMARK  status: ('A' for Active; 'I' for Inactive)
REMARK    1  A    between atoms: C_1  and  C_2
REMARK    2  A    between atoms: C_4  and  C_6
REMARK    3  A    between atoms: C_13  and  C_15
REMARK                            x       y       z     vdW  Elec       q    Type
REMARK                         _______ _______ _______ _____ _____    ______ ____
ROOT
ATOM      1  C   LIG A   1      -7.506   5.914 131.894  0.00  0.00    +0.018 C 
ATOM      2  C   LIG A   1      -8.988   5.556 131.598  0.00  0.00    +0.051 C 
ATOM      3  C   LIG A   1      -9.023   4.372 130.685  0.00  0.00    +0.203 C 
ATOM      4  C   LIG A   1      -8.995   2.980 131.267  0.00  0.00    +0.108 C 
ATOM      5  O   LIG A   1     -10.209   3.547 130.759  0.00  0.00    -0.349 OA
ATOM      6  C   LIG A   1      -8.492   1.823 130.463  0.00  0.00    +0.045 C 
ATOM      7  C   LIG A   1      -9.105   2.768 132.762  0.00  0.00    +0.038 C 
ATOM      8  C   LIG A   1      -9.158   4.044 133.620  0.00  0.00    +0.004 C 
ATOM      9  C   LIG A   1      -9.734   5.280 132.912  0.00  0.00    +0.014 C 
ATOM     10  C   LIG A   1      -8.825   4.868 129.315  0.00  0.00    +0.344 C 
ATOM     11  O   LIG A   1      -8.418   4.217 128.368  0.00  0.00    -0.247 OA
ATOM     12  O   LIG A   1      -9.112   6.210 129.303  0.00  0.00    -0.454 OA
ATOM     13  C   LIG A   1      -9.553   6.630 130.629  0.00  0.00    +0.219 C 
ENDROOT
BRANCH  13  14
ATOM     14  C   LIG A   1     -11.031   6.861 130.670  0.00  0.00    +0.031 A 
ATOM     15  C   LIG A   1     -11.910   7.195 129.598  0.00  0.00    +0.048 A 
ATOM     16  C   LIG A   1     -13.169   7.300 130.140  0.00  0.00    +0.195 A 
ATOM     17  O   LIG A   1     -13.131   7.062 131.474  0.00  0.00    -0.471 OA
ATOM     18  C   LIG A   1     -11.838   6.804 131.791  0.00  0.00    +0.202 A 
ENDBRANCH  13  14
TORSDOF 1
ENDMDL
MODEL 5
REMARK VINA RESULT:      -6.2      1.856      4.614
REMARK  Name = NuBBE_1530
REMARK  3 active torsions:
REMARK  status: ('A' for Active; 'I' for Inactive)
REMARK    1  A    between atoms: C_1  and  C_2
REMARK    2  A    between atoms: C_4  and  C_6
REMARK    3  A    between atoms: C_13  and  C_15
REMARK                            x       y       z     vdW  Elec       q    Type
REMARK                         _______ _______ _______ _____ _____    ______ ____
ROOT
ATOM      1  C   LIG A   1      -8.831   1.003 126.307  0.00  0.00    +0.018 C 
ATOM      2  C   LIG A   1      -7.829   0.464 125.250  0.00  0.00    +0.051 C 
ATOM      3  C   LIG A   1      -8.282   0.901 123.893  0.00  0.00    +0.203 C 
ATOM      4  C   LIG A   1      -7.843   2.242 123.357  0.00  0.00    +0.108 C 
ATOM      5  O   LIG A   1      -7.249   1.026 122.888  0.00  0.00    -0.349 OA
ATOM      6  C   LIG A   1      -8.651   2.954 122.317  0.00  0.00    +0.045 C 
ATOM      7  C   LIG A   1      -6.817   3.071 124.100  0.00  0.00    +0.038 C 
ATOM      8  C   LIG A   1      -6.337   2.499 125.444  0.00  0.00    +0.004 C 
ATOM      9  C   LIG A   1      -6.413   0.969 125.564  0.00  0.00    +0.014 C 
ATOM     10  C   LIG A   1      -9.320  -0.042 123.451  0.00  0.00    +0.344 C 
ATOM     11  O   LIG A   1     -10.177   0.176 122.612  0.00  0.00    -0.247 OA
ATOM     12  O   LIG A   1      -9.199  -1.187 124.198  0.00  0.00    -0.454 OA
ATOM     13  C   LIG A   1      -8.064  -1.063 125.106  0.00  0.00    +0.219 C 
ENDROOT
BRANCH  13  14
ATOM     14  C   LIG A   1      -6.898  -1.881 124.645  0.00  0.00    +0.031 A 
ATOM     15  C   LIG A   1      -6.475  -2.157 123.311  0.00  0.00    +0.048 A 
ATOM     16  C   LIG A   1      -5.357  -2.951 123.409  0.00  0.00    +0.195 A 
ATOM     17  O   LIG A   1      -5.062  -3.194 124.709  0.00  0.00    -0.471 OA
ATOM     18  C   LIG A   1      -5.998  -2.553 125.452  0.00  0.00    +0.202 A 
ENDBRANCH  13  14
TORSDOF 1
ENDMDL
MODEL 6
REMARK VINA RESULT:      -6.2      1.561      2.586
REMARK  Name = NuBBE_1530
REMARK  3 active torsions:
REMARK  status: ('A' for Active; 'I' for Inactive)
REMARK    1  A    between atoms: C_1  and  C_2
REMARK    2  A    between atoms: C_4  and  C_6
REMARK    3  A    between atoms: C_13  and  C_15
REMARK                            x       y       z     vdW  Elec       q    Type
REMARK                         _______ _______ _______ _____ _____    ______ ____
ROOT
ATOM      1  C   LIG A   1      -8.790  -2.820 123.638  0.00  0.00    +0.018 C 
ATOM      2  C   LIG A   1      -8.113  -1.445 123.886  0.00  0.00    +0.051 C 
ATOM      3  C   LIG A   1      -7.438  -1.475 125.220  0.00  0.00    +0.203 C 
ATOM      4  C   LIG A   1      -6.022  -1.986 125.327  0.00  0.00    +0.108 C 
ATOM      5  O   LIG A   1      -6.310  -0.584 125.383  0.00  0.00    -0.349 OA
ATOM      6  C   LIG A   1      -5.503  -2.542 126.617  0.00  0.00    +0.045 C 
ATOM      7  C   LIG A   1      -5.220  -2.305 124.083  0.00  0.00    +0.038 C 
ATOM      8  C   LIG A   1      -5.967  -2.156 122.747  0.00  0.00    +0.004 C 
ATOM      9  C   LIG A   1      -7.119  -1.138 122.756  0.00  0.00    +0.014 C 
ATOM     10  C   LIG A   1      -8.463  -1.201 126.237  0.00  0.00    +0.344 C 
ATOM     11  O   LIG A   1      -8.404  -1.507 127.416  0.00  0.00    -0.247 OA
ATOM     12  O   LIG A   1      -9.528  -0.601 125.615  0.00  0.00    -0.454 OA
ATOM     13  C   LIG A   1      -9.229  -0.413 124.199  0.00  0.00    +0.219 C 
ENDROOT
BRANCH  13  14
ATOM     14  C   LIG A   1      -8.928   1.019 123.886  0.00  0.00    +0.031 A 
ATOM     15  C   LIG A   1      -8.170   1.957 124.646  0.00  0.00    +0.048 A 
ATOM     16  C   LIG A   1      -8.181   3.137 123.940  0.00  0.00    +0.195 A 
ATOM     17  O   LIG A   1      -8.900   2.998 122.799  0.00  0.00    -0.471 OA
ATOM     18  C   LIG A   1      -9.355   1.721 122.774  0.00  0.00    +0.202 A 
ENDBRANCH  13  14
TORSDOF 1
ENDMDL
MODEL 7
REMARK VINA RESULT:      -6.2      2.228      3.649
REMARK  Name = NuBBE_1530
REMARK  3 active torsions:
REMARK  status: ('A' for Active; 'I' for Inactive)
REMARK    1  A    between atoms: C_1  and  C_2
REMARK    2  A    between atoms: C_4  and  C_6
REMARK    3  A    between atoms: C_13  and  C_15
REMARK                            x       y       z     vdW  Elec       q    Type
REMARK                         _______ _______ _______ _____ _____    ______ ____
ROOT
ATOM      1  C   LIG A   1      -9.188  -0.371 125.712  0.00  0.00    +0.018 C 
ATOM      2  C   LIG A   1      -8.427   0.055 124.427  0.00  0.00    +0.051 C 
ATOM      3  C   LIG A   1      -7.052  -0.531 124.466  0.00  0.00    +0.203 C 
ATOM      4  C   LIG A   1      -6.817  -1.919 123.924  0.00  0.00    +0.108 C 
ATOM      5  O   LIG A   1      -6.420  -0.757 123.185  0.00  0.00    -0.349 OA
ATOM      6  C   LIG A   1      -5.665  -2.746 124.404  0.00  0.00    +0.045 C 
ATOM      7  C   LIG A   1      -7.916  -2.655 123.187  0.00  0.00    +0.038 C 
ATOM      8  C   LIG A   1      -9.274  -1.936 123.114  0.00  0.00    +0.004 C 
ATOM      9  C   LIG A   1      -9.202  -0.403 123.183  0.00  0.00    +0.014 C 
ATOM     10  C   LIG A   1      -6.222   0.351 125.301  0.00  0.00    +0.344 C 
ATOM     11  O   LIG A   1      -5.193   0.037 125.875  0.00  0.00    -0.247 OA
ATOM     12  O   LIG A   1      -6.844   1.572 125.377  0.00  0.00    -0.454 OA
ATOM     13  C   LIG A   1      -8.058   1.556 124.568  0.00  0.00    +0.219 C 
ENDROOT
BRANCH  13  14
ATOM     14  C   LIG A   1      -7.882   2.327 123.297  0.00  0.00    +0.031 A 
ATOM     15  C   LIG A   1      -8.881   2.790 122.390  0.00  0.00    +0.048 A 
ATOM     16  C   LIG A   1      -8.221   3.445 121.378  0.00  0.00    +0.195 A 
ATOM     17  O   LIG A   1      -6.882   3.413 121.588  0.00  0.00    -0.471 OA
ATOM     18  C   LIG A   1      -6.682   2.732 122.743  0.00  0.00    +0.202 A 
ENDBRANCH  13  14
TORSDOF 1
ENDMDL
MODEL 8
REMARK VINA RESULT:      -6.2      7.381      8.704
REMARK  Name = NuBBE_1530
REMARK  3 active torsions:
REMARK  status: ('A' for Active; 'I' for Inactive)
REMARK    1  A    between atoms: C_1  and  C_2
REMARK    2  A    between atoms: C_4  and  C_6
REMARK    3  A    between atoms: C_13  and  C_15
REMARK                            x       y       z     vdW  Elec       q    Type
REMARK                         _______ _______ _______ _____ _____    ______ ____
ROOT
ATOM      1  C   LIG A   1      -7.236   4.532 131.947  0.00  0.00    +0.018 C 
ATOM      2  C   LIG A   1      -8.689   4.495 131.397  0.00  0.00    +0.051 C 
ATOM      3  C   LIG A   1      -8.682   3.811 130.067  0.00  0.00    +0.203 C 
ATOM      4  C   LIG A   1      -8.813   2.309 130.001  0.00  0.00    +0.108 C 
ATOM      5  O   LIG A   1      -9.916   3.165 129.678  0.00  0.00    -0.349 OA
ATOM      6  C   LIG A   1      -8.285   1.544 128.828  0.00  0.00    +0.045 C 
ATOM      7  C   LIG A   1      -9.123   1.506 131.247  0.00  0.00    +0.038 C 
ATOM      8  C   LIG A   1      -9.205   2.306 132.558  0.00  0.00    +0.004 C 
ATOM      9  C   LIG A   1      -9.609   3.779 132.397  0.00  0.00    +0.014 C 
ATOM     10  C   LIG A   1      -8.282   4.807 129.063  0.00  0.00    +0.344 C 
ATOM     11  O   LIG A   1      -7.800   4.570 127.968  0.00  0.00    -0.247 OA
ATOM     12  O   LIG A   1      -8.482   6.054 129.599  0.00  0.00    -0.454 OA
ATOM     13  C   LIG A   1      -9.060   5.929 130.933  0.00  0.00    +0.219 C 
ENDROOT
BRANCH  13  14
ATOM     14  C   LIG A   1     -10.514   6.282 130.939  0.00  0.00    +0.031 A 
ATOM     15  C   LIG A   1     -11.385   6.487 129.828  0.00  0.00    +0.048 A 
ATOM     16  C   LIG A   1     -12.622   6.789 130.348  0.00  0.00    +0.195 A 
ATOM     17  O   LIG A   1     -12.576   6.793 131.703  0.00  0.00    -0.471 OA
ATOM     18  C   LIG A   1     -11.302   6.494 132.055  0.00  0.00    +0.202 A 
ENDBRANCH  13  14
TORSDOF 1
ENDMDL
MODEL 9
REMARK VINA RESULT:      -6.2      8.340     10.460
REMARK  Name = NuBBE_1530
REMARK  3 active torsions:
REMARK  status: ('A' for Active; 'I' for Inactive)
REMARK    1  A    between atoms: C_1  and  C_2
REMARK    2  A    between atoms: C_4  and  C_6
REMARK    3  A    between atoms: C_13  and  C_15
REMARK                            x       y       z     vdW  Elec       q    Type
REMARK                         _______ _______ _______ _____ _____    ______ ____
ROOT
ATOM      1  C   LIG A   1     -12.068   4.653 130.054  0.00  0.00    +0.018 C 
ATOM      2  C   LIG A   1     -10.945   5.542 130.656  0.00  0.00    +0.051 C 
ATOM      3  C   LIG A   1     -10.324   6.342 129.555  0.00  0.00    +0.203 C 
ATOM      4  C   LIG A   1     -10.922   7.674 129.173  0.00  0.00    +0.108 C 
ATOM      5  O   LIG A   1      -9.717   7.595 129.945  0.00  0.00    -0.349 OA
ATOM      6  C   LIG A   1     -10.719   8.241 127.803  0.00  0.00    +0.045 C 
ATOM      7  C   LIG A   1     -12.032   8.287 130.001  0.00  0.00    +0.038 C 
ATOM      8  C   LIG A   1     -12.546   7.433 131.172  0.00  0.00    +0.004 C 
ATOM      9  C   LIG A   1     -11.523   6.445 131.755  0.00  0.00    +0.014 C 
ATOM     10  C   LIG A   1      -9.340   5.478 128.886  0.00  0.00    +0.344 C 
ATOM     11  O   LIG A   1      -8.919   5.616 127.750  0.00  0.00    -0.247 OA
ATOM     12  O   LIG A   1      -9.028   4.450 129.739  0.00  0.00    -0.454 OA
ATOM     13  C   LIG A   1      -9.742   4.623 130.999  0.00  0.00    +0.219 C 
ENDROOT
BRANCH  13  14
ATOM     14  C   LIG A   1      -8.830   5.090 132.090  0.00  0.00    +0.031 A 
ATOM     15  C   LIG A   1      -7.645   5.877 131.983  0.00  0.00    +0.048 A 
ATOM     16  C   LIG A   1      -7.165   6.040 133.261  0.00  0.00    +0.195 A 
ATOM     17  O   LIG A   1      -7.964   5.403 134.152  0.00  0.00    -0.471 OA
ATOM     18  C   LIG A   1      -8.963   4.825 133.440  0.00  0.00    +0.202 A 
ENDBRANCH  13  14
TORSDOF 1
ENDMDL
