MODEL 1
REMARK VINA RESULT:      -6.9      0.000      0.000
REMARK  Name = NuBBE_1867
REMARK  13 active torsions:
REMARK  status: ('A' for Active; 'I' for Inactive)
REMARK    1  A    between atoms: C_1  and  O_2
REMARK    2  A    between atoms: O_2  and  C_3
REMARK    3  A    between atoms: C_7  and  C_8
REMARK    4  A    between atoms: C_9  and  O_17
REMARK    5  A    between atoms: C_11  and  O_12
REMARK    6  A    between atoms: O_12  and  C_13
REMARK    7  A    between atoms: C_14  and  O_15
REMARK    8  A    between atoms: C_18  and  O_19
REMARK    9  A    between atoms: O_19  and  C_20
REMARK   10  A    between atoms: C_24  and  O_25
REMARK   11  A    between atoms: O_25  and  C_26
REMARK   12  A    between atoms: C_27  and  O_28
REMARK   13  A    between atoms: O_28  and  C_29
REMARK                            x       y       z     vdW  Elec       q    Type
REMARK                         _______ _______ _______ _____ _____    ______ ____
ROOT
ATOM      1  C   LIG A   1      -7.215   1.163 130.684  0.00  0.00    +0.180 A 
ATOM      2  C   LIG A   1      -8.250   2.103 130.680  0.00  0.00    +0.113 A 
ATOM      3  C   LIG A   1      -8.895   2.448 129.513  0.00  0.00    +0.147 A 
ATOM      4  O   LIG A   1      -9.797   3.484 129.452  0.00  0.00    -0.451 OA
ATOM      5  C   LIG A   1      -9.891   4.322 130.561  0.00  0.00    +0.184 A 
ATOM      6  C   LIG A   1      -9.419   4.008 131.789  0.00  0.00    +0.211 A 
ATOM      7  C   LIG A   1      -8.819   2.659 131.902  0.00  0.00    +0.238 A 
ATOM      8  O   LIG A   1      -8.854   1.988 132.941  0.00  0.00    -0.283 OA
ATOM      9  C   LIG A   1      -8.631   1.724 128.358  0.00  0.00    +0.096 A 
ATOM     10  C   LIG A   1      -7.746   0.623 128.377  0.00  0.00    +0.169 A 
ATOM     11  C   LIG A   1      -7.019   0.350 129.554  0.00  0.00    +0.204 A 
ENDROOT
BRANCH   5  12
ATOM     12  C   LIG A   1     -10.595   5.591 130.290  0.00  0.00    +0.066 A 
ATOM     13  C   LIG A   1     -10.292   6.411 129.192  0.00  0.00    +0.131 A 
ATOM     14  C   LIG A   1     -11.000   7.593 128.941  0.00  0.00    +0.095 A 
ATOM     15  C   LIG A   1     -12.011   8.004 129.806  0.00  0.00    +0.165 A 
ATOM     16  C   LIG A   1     -12.300   7.199 130.914  0.00  0.00    +0.159 A 
ATOM     17  C   LIG A   1     -11.616   6.007 131.158  0.00  0.00    +0.064 A 
BRANCH  15  18
ATOM     18  O   LIG A   1     -12.754   9.151 129.680  0.00  0.00    -0.491 OA
ATOM     19  C   LIG A   1     -13.458   9.310 128.448  0.00  0.00    +0.277 C 
ENDBRANCH  15  18
BRANCH  16  20
ATOM     20  O   LIG A   1     -13.273   7.573 131.804  0.00  0.00    -0.503 OA
ATOM     21  H   LIG A   1     -14.121   7.374 131.360  0.00  0.00    +0.292 HD
ENDBRANCH  16  20
BRANCH  13  22
ATOM     22  O   LIG A   1      -9.290   6.139 128.298  0.00  0.00    -0.506 OA
ATOM     23  H   LIG A   1      -9.478   5.299 127.849  0.00  0.00    +0.292 HD
ENDBRANCH  13  22
ENDBRANCH   5  12
BRANCH   1  25
ATOM     24  C   LIG A   1      -5.263   1.953 131.714  0.00  0.00    +0.277 C 
ATOM     25  O   LIG A   1      -6.344   1.012 131.741  0.00  0.00    -0.490 OA
ENDBRANCH   1  25
BRANCH   6  26
ATOM     26  O   LIG A   1      -9.561   4.843 132.884  0.00  0.00    -0.488 OA
ATOM     27  C   LIG A   1      -8.377   5.561 133.240  0.00  0.00    +0.277 C 
ENDBRANCH   6  26
BRANCH  10  28
ATOM     28  O   LIG A   1      -7.554  -0.168 127.270  0.00  0.00    -0.491 OA
ATOM     29  C   LIG A   1      -8.486   0.036 126.205  0.00  0.00    +0.277 C 
ENDBRANCH  10  28
BRANCH  11  30
ATOM     30  O   LIG A   1      -6.260  -0.766 129.803  0.00  0.00    -0.488 OA
ATOM     31  C   LIG A   1      -6.890  -2.022 129.976  0.00  0.00    +0.277 C 
ENDBRANCH  11  30
TORSDOF 8
ENDMDL
MODEL 2
REMARK VINA RESULT:      -6.8      5.940      8.053
REMARK  Name = NuBBE_1867
REMARK  13 active torsions:
REMARK  status: ('A' for Active; 'I' for Inactive)
REMARK    1  A    between atoms: C_1  and  O_2
REMARK    2  A    between atoms: O_2  and  C_3
REMARK    3  A    between atoms: C_7  and  C_8
REMARK    4  A    between atoms: C_9  and  O_17
REMARK    5  A    between atoms: C_11  and  O_12
REMARK    6  A    between atoms: O_12  and  C_13
REMARK    7  A    between atoms: C_14  and  O_15
REMARK    8  A    between atoms: C_18  and  O_19
REMARK    9  A    between atoms: O_19  and  C_20
REMARK   10  A    between atoms: C_24  and  O_25
REMARK   11  A    between atoms: O_25  and  C_26
REMARK   12  A    between atoms: C_27  and  O_28
REMARK   13  A    between atoms: O_28  and  C_29
REMARK                            x       y       z     vdW  Elec       q    Type
REMARK                         _______ _______ _______ _____ _____    ______ ____
ROOT
ATOM      1  C   LIG A   1      -8.807  -0.300 124.390  0.00  0.00    +0.180 A 
ATOM      2  C   LIG A   1      -7.680   0.485 124.652  0.00  0.00    +0.113 A 
ATOM      3  C   LIG A   1      -6.780   0.135 125.634  0.00  0.00    +0.147 A 
ATOM      4  O   LIG A   1      -5.759   0.970 126.025  0.00  0.00    -0.451 OA
ATOM      5  C   LIG A   1      -5.779   2.278 125.547  0.00  0.00    +0.184 A 
ATOM      6  C   LIG A   1      -6.520   2.688 124.491  0.00  0.00    +0.211 A 
ATOM      7  C   LIG A   1      -7.297   1.620 123.821  0.00  0.00    +0.238 A 
ATOM      8  O   LIG A   1      -7.552   1.628 122.610  0.00  0.00    -0.283 OA
ATOM      9  C   LIG A   1      -6.902  -1.104 126.249  0.00  0.00    +0.096 A 
ATOM     10  C   LIG A   1      -7.906  -2.015 125.855  0.00  0.00    +0.169 A 
ATOM     11  C   LIG A   1      -8.879  -1.600 124.921  0.00  0.00    +0.204 A 
ENDROOT
BRANCH   5  12
ATOM     12  C   LIG A   1      -4.881   3.192 126.278  0.00  0.00    +0.066 A 
ATOM     13  C   LIG A   1      -5.348   4.286 127.025  0.00  0.00    +0.131 A 
ATOM     14  C   LIG A   1      -4.473   5.116 127.737  0.00  0.00    +0.095 A 
ATOM     15  C   LIG A   1      -3.100   4.892 127.693  0.00  0.00    +0.165 A 
ATOM     16  C   LIG A   1      -2.630   3.816 126.932  0.00  0.00    +0.159 A 
ATOM     17  C   LIG A   1      -3.496   2.969 126.239  0.00  0.00    +0.064 A 
BRANCH  15  18
ATOM     18  O   LIG A   1      -2.146   5.650 128.324  0.00  0.00    -0.491 OA
ATOM     19  C   LIG A   1      -2.292   7.066 128.210  0.00  0.00    +0.277 C 
ENDBRANCH  15  18
BRANCH  16  20
ATOM     20  O   LIG A   1      -1.285   3.569 126.842  0.00  0.00    -0.503 OA
ATOM     21  H   LIG A   1      -1.079   2.978 127.593  0.00  0.00    +0.292 HD
ENDBRANCH  16  20
BRANCH  13  22
ATOM     22  O   LIG A   1      -6.670   4.635 127.107  0.00  0.00    -0.506 OA
ATOM     23  H   LIG A   1      -6.772   5.368 127.735  0.00  0.00    +0.292 HD
ENDBRANCH  13  22
ENDBRANCH   5  12
BRANCH   1  25
ATOM     24  C   LIG A   1     -10.561   1.251 124.272  0.00  0.00    +0.277 C 
ATOM     25  O   LIG A   1      -9.880   0.151 123.654  0.00  0.00    -0.490 OA
ENDBRANCH   1  25
BRANCH   6  26
ATOM     26  O   LIG A   1      -6.491   3.986 124.013  0.00  0.00    -0.488 OA
ATOM     27  C   LIG A   1      -5.566   4.205 122.945  0.00  0.00    +0.277 C 
ENDBRANCH   6  26
BRANCH  10  28
ATOM     28  O   LIG A   1      -7.976  -3.283 126.378  0.00  0.00    -0.491 OA
ATOM     29  C   LIG A   1      -8.701  -3.399 127.605  0.00  0.00    +0.277 C 
ENDBRANCH  10  28
BRANCH  11  30
ATOM     30  O   LIG A   1      -9.808  -2.398 124.302  0.00  0.00    -0.488 OA
ATOM     31  C   LIG A   1      -9.408  -3.257 123.250  0.00  0.00    +0.277 C 
ENDBRANCH  11  30
TORSDOF 8
ENDMDL
MODEL 3
REMARK VINA RESULT:      -6.8      5.229      7.665
REMARK  Name = NuBBE_1867
REMARK  13 active torsions:
REMARK  status: ('A' for Active; 'I' for Inactive)
REMARK    1  A    between atoms: C_1  and  O_2
REMARK    2  A    between atoms: O_2  and  C_3
REMARK    3  A    between atoms: C_7  and  C_8
REMARK    4  A    between atoms: C_9  and  O_17
REMARK    5  A    between atoms: C_11  and  O_12
REMARK    6  A    between atoms: O_12  and  C_13
REMARK    7  A    between atoms: C_14  and  O_15
REMARK    8  A    between atoms: C_18  and  O_19
REMARK    9  A    between atoms: O_19  and  C_20
REMARK   10  A    between atoms: C_24  and  O_25
REMARK   11  A    between atoms: O_25  and  C_26
REMARK   12  A    between atoms: C_27  and  O_28
REMARK   13  A    between atoms: O_28  and  C_29
REMARK                            x       y       z     vdW  Elec       q    Type
REMARK                         _______ _______ _______ _____ _____    ______ ____
ROOT
ATOM      1  C   LIG A   1      -7.545   0.031 127.214  0.00  0.00    +0.180 A 
ATOM      2  C   LIG A   1      -7.817   0.818 126.091  0.00  0.00    +0.113 A 
ATOM      3  C   LIG A   1      -7.958   0.255 124.842  0.00  0.00    +0.147 A 
ATOM      4  O   LIG A   1      -8.058   1.015 123.701  0.00  0.00    -0.451 OA
ATOM      5  C   LIG A   1      -7.802   2.380 123.813  0.00  0.00    +0.184 A 
ATOM      6  C   LIG A   1      -7.790   3.055 124.985  0.00  0.00    +0.211 A 
ATOM      7  C   LIG A   1      -8.121   2.242 126.178  0.00  0.00    +0.238 A 
ATOM      8  O   LIG A   1      -8.694   2.703 127.172  0.00  0.00    -0.283 OA
ATOM      9  C   LIG A   1      -8.004  -1.129 124.729  0.00  0.00    +0.096 A 
ATOM     10  C   LIG A   1      -7.949  -1.953 125.874  0.00  0.00    +0.169 A 
ATOM     11  C   LIG A   1      -7.703  -1.364 127.131  0.00  0.00    +0.204 A 
ENDROOT
BRANCH   5  12
ATOM     12  C   LIG A   1      -7.577   3.051 122.517  0.00  0.00    +0.066 A 
ATOM     13  C   LIG A   1      -6.326   3.554 122.125  0.00  0.00    +0.131 A 
ATOM     14  C   LIG A   1      -6.136   4.155 120.875  0.00  0.00    +0.095 A 
ATOM     15  C   LIG A   1      -7.205   4.300 119.995  0.00  0.00    +0.165 A 
ATOM     16  C   LIG A   1      -8.457   3.819 120.391  0.00  0.00    +0.159 A 
ATOM     17  C   LIG A   1      -8.651   3.196 121.626  0.00  0.00    +0.064 A 
BRANCH  15  18
ATOM     18  O   LIG A   1      -7.147   4.893 118.758  0.00  0.00    -0.491 OA
ATOM     19  C   LIG A   1      -5.997   5.700 118.502  0.00  0.00    +0.277 C 
ENDBRANCH  15  18
BRANCH  16  20
ATOM     20  O   LIG A   1      -9.543   3.957 119.567  0.00  0.00    -0.503 OA
ATOM     21  H   LIG A   1      -9.173   4.125 118.677  0.00  0.00    +0.292 HD
ENDBRANCH  16  20
BRANCH  13  22
ATOM     22  O   LIG A   1      -5.212   3.512 122.921  0.00  0.00    -0.506 OA
ATOM     23  H   LIG A   1      -5.245   2.722 123.483  0.00  0.00    +0.292 HD
ENDBRANCH  13  22
ENDBRANCH   5  12
BRANCH   1  25
ATOM     24  C   LIG A   1      -5.682   0.799 128.412  0.00  0.00    +0.277 C 
ATOM     25  O   LIG A   1      -7.094   0.555 128.406  0.00  0.00    -0.490 OA
ENDBRANCH   1  25
BRANCH   6  26
ATOM     26  O   LIG A   1      -7.571   4.419 125.063  0.00  0.00    -0.488 OA
ATOM     27  C   LIG A   1      -6.325   4.788 125.658  0.00  0.00    +0.277 C 
ENDBRANCH   6  26
BRANCH  10  28
ATOM     28  O   LIG A   1      -8.100  -3.316 125.790  0.00  0.00    -0.491 OA
ATOM     29  C   LIG A   1      -8.625  -3.797 124.550  0.00  0.00    +0.277 C 
ENDBRANCH  10  28
BRANCH  11  30
ATOM     30  O   LIG A   1      -7.790  -1.982 128.353  0.00  0.00    -0.488 OA
ATOM     31  C   LIG A   1      -6.720  -2.790 128.810  0.00  0.00    +0.277 C 
ENDBRANCH  11  30
TORSDOF 8
ENDMDL
MODEL 4
REMARK VINA RESULT:      -6.7      1.693      2.167
REMARK  Name = NuBBE_1867
REMARK  13 active torsions:
REMARK  status: ('A' for Active; 'I' for Inactive)
REMARK    1  A    between atoms: C_1  and  O_2
REMARK    2  A    between atoms: O_2  and  C_3
REMARK    3  A    between atoms: C_7  and  C_8
REMARK    4  A    between atoms: C_9  and  O_17
REMARK    5  A    between atoms: C_11  and  O_12
REMARK    6  A    between atoms: O_12  and  C_13
REMARK    7  A    between atoms: C_14  and  O_15
REMARK    8  A    between atoms: C_18  and  O_19
REMARK    9  A    between atoms: O_19  and  C_20
REMARK   10  A    between atoms: C_24  and  O_25
REMARK   11  A    between atoms: O_25  and  C_26
REMARK   12  A    between atoms: C_27  and  O_28
REMARK   13  A    between atoms: O_28  and  C_29
REMARK                            x       y       z     vdW  Elec       q    Type
REMARK                         _______ _______ _______ _____ _____    ______ ____
ROOT
ATOM      1  C   LIG A   1      -6.303   2.222 129.879  0.00  0.00    +0.180 A 
ATOM      2  C   LIG A   1      -7.378   3.086 130.105  0.00  0.00    +0.113 A 
ATOM      3  C   LIG A   1      -8.568   2.935 129.427  0.00  0.00    +0.147 A 
ATOM      4  O   LIG A   1      -9.579   3.864 129.504  0.00  0.00    -0.451 OA
ATOM      5  C   LIG A   1      -9.292   5.079 130.123  0.00  0.00    +0.184 A 
ATOM      6  C   LIG A   1      -8.225   5.284 130.929  0.00  0.00    +0.211 A 
ATOM      7  C   LIG A   1      -7.378   4.091 131.161  0.00  0.00    +0.238 A 
ATOM      8  O   LIG A   1      -6.758   3.897 132.214  0.00  0.00    -0.283 OA
ATOM      9  C   LIG A   1      -8.757   1.805 128.642  0.00  0.00    +0.096 A 
ATOM     10  C   LIG A   1      -7.768   0.801 128.564  0.00  0.00    +0.169 A 
ATOM     11  C   LIG A   1      -6.519   1.021 129.182  0.00  0.00    +0.204 A 
ENDROOT
BRANCH   5  12
ATOM     12  C   LIG A   1     -10.286   6.134 129.852  0.00  0.00    +0.066 A 
ATOM     13  C   LIG A   1     -11.385   6.382 130.691  0.00  0.00    +0.131 A 
ATOM     14  C   LIG A   1     -12.294   7.413 130.426  0.00  0.00    +0.095 A 
ATOM     15  C   LIG A   1     -12.146   8.205 129.290  0.00  0.00    +0.165 A 
ATOM     16  C   LIG A   1     -11.065   7.947 128.440  0.00  0.00    +0.159 A 
ATOM     17  C   LIG A   1     -10.140   6.936 128.710  0.00  0.00    +0.064 A 
BRANCH  15  18
ATOM     18  O   LIG A   1     -12.984   9.224 128.911  0.00  0.00    -0.491 OA
ATOM     19  C   LIG A   1     -13.193  10.256 129.877  0.00  0.00    +0.277 C 
ENDBRANCH  15  18
BRANCH  16  20
ATOM     20  O   LIG A   1     -10.891   8.687 127.300  0.00  0.00    -0.503 OA
ATOM     21  H   LIG A   1     -11.488   8.286 126.637  0.00  0.00    +0.292 HD
ENDBRANCH  16  20
BRANCH  13  22
ATOM     22  O   LIG A   1     -11.662   5.643 131.811  0.00  0.00    -0.506 OA
ATOM     23  H   LIG A   1     -10.836   5.439 132.277  0.00  0.00    +0.292 HD
ENDBRANCH  13  22
ENDBRANCH   5  12
BRANCH   1  25
ATOM     24  C   LIG A   1      -4.306   3.334 129.355  0.00  0.00    +0.277 C 
ATOM     25  O   LIG A   1      -5.016   2.505 130.284  0.00  0.00    -0.490 OA
ENDBRANCH   1  25
BRANCH   6  26
ATOM     26  O   LIG A   1      -7.985   6.490 131.564  0.00  0.00    -0.488 OA
ATOM     27  C   LIG A   1      -6.812   7.174 131.115  0.00  0.00    +0.277 C 
ENDBRANCH   6  26
BRANCH  10  28
ATOM     28  O   LIG A   1      -7.981  -0.370 127.879  0.00  0.00    -0.491 OA
ATOM     29  C   LIG A   1      -7.546  -0.368 126.516  0.00  0.00    +0.277 C 
ENDBRANCH  10  28
BRANCH  11  30
ATOM     30  O   LIG A   1      -5.520   0.096 129.353  0.00  0.00    -0.488 OA
ATOM     31  C   LIG A   1      -5.647  -0.900 130.351  0.00  0.00    +0.277 C 
ENDBRANCH  11  30
TORSDOF 8
ENDMDL
MODEL 5
REMARK VINA RESULT:      -6.7      6.115      7.908
REMARK  Name = NuBBE_1867
REMARK  13 active torsions:
REMARK  status: ('A' for Active; 'I' for Inactive)
REMARK    1  A    between atoms: C_1  and  O_2
REMARK    2  A    between atoms: O_2  and  C_3
REMARK    3  A    between atoms: C_7  and  C_8
REMARK    4  A    between atoms: C_9  and  O_17
REMARK    5  A    between atoms: C_11  and  O_12
REMARK    6  A    between atoms: O_12  and  C_13
REMARK    7  A    between atoms: C_14  and  O_15
REMARK    8  A    between atoms: C_18  and  O_19
REMARK    9  A    between atoms: O_19  and  C_20
REMARK   10  A    between atoms: C_24  and  O_25
REMARK   11  A    between atoms: O_25  and  C_26
REMARK   12  A    between atoms: C_27  and  O_28
REMARK   13  A    between atoms: O_28  and  C_29
REMARK                            x       y       z     vdW  Elec       q    Type
REMARK                         _______ _______ _______ _____ _____    ______ ____
ROOT
ATOM      1  C   LIG A   1      -8.338   0.119 124.443  0.00  0.00    +0.180 A 
ATOM      2  C   LIG A   1      -7.204   0.863 124.783  0.00  0.00    +0.113 A 
ATOM      3  C   LIG A   1      -6.399   0.493 125.838  0.00  0.00    +0.147 A 
ATOM      4  O   LIG A   1      -5.379   1.293 126.298  0.00  0.00    -0.451 OA
ATOM      5  C   LIG A   1      -5.307   2.593 125.802  0.00  0.00    +0.184 A 
ATOM      6  C   LIG A   1      -5.944   3.014 124.686  0.00  0.00    +0.211 A 
ATOM      7  C   LIG A   1      -6.709   1.968 123.970  0.00  0.00    +0.238 A 
ATOM      8  O   LIG A   1      -6.867   1.966 122.743  0.00  0.00    -0.283 OA
ATOM      9  C   LIG A   1      -6.621  -0.730 126.458  0.00  0.00    +0.096 A 
ATOM     10  C   LIG A   1      -7.627  -1.606 125.997  0.00  0.00    +0.169 A 
ATOM     11  C   LIG A   1      -8.505  -1.168 124.983  0.00  0.00    +0.204 A 
ENDROOT
BRANCH   5  12
ATOM     12  C   LIG A   1      -4.432   3.482 126.591  0.00  0.00    +0.066 A 
ATOM     13  C   LIG A   1      -3.052   3.266 126.731  0.00  0.00    +0.131 A 
ATOM     14  C   LIG A   1      -2.241   4.146 127.458  0.00  0.00    +0.095 A 
ATOM     15  C   LIG A   1      -2.799   5.251 128.096  0.00  0.00    +0.165 A 
ATOM     16  C   LIG A   1      -4.178   5.456 127.977  0.00  0.00    +0.159 A 
ATOM     17  C   LIG A   1      -4.990   4.597 127.234  0.00  0.00    +0.064 A 
BRANCH  15  18
ATOM     18  O   LIG A   1      -2.114   6.165 128.856  0.00  0.00    -0.491 OA
ATOM     19  C   LIG A   1      -2.054   5.897 130.258  0.00  0.00    +0.277 C 
ENDBRANCH  15  18
BRANCH  16  20
ATOM     20  O   LIG A   1      -4.774   6.518 128.605  0.00  0.00    -0.503 OA
ATOM     21  H   LIG A   1      -5.627   6.176 128.940  0.00  0.00    +0.292 HD
ENDBRANCH  16  20
BRANCH  13  22
ATOM     22  O   LIG A   1      -2.396   2.191 126.190  0.00  0.00    -0.506 OA
ATOM     23  H   LIG A   1      -1.516   2.115 126.591  0.00  0.00    +0.292 HD
ENDBRANCH  13  22
ENDBRANCH   5  12
BRANCH   1  25
ATOM     24  C   LIG A   1     -10.230   1.495 124.286  0.00  0.00    +0.277 C 
ATOM     25  O   LIG A   1      -9.330   0.601 123.617  0.00  0.00    -0.490 OA
ENDBRANCH   1  25
BRANCH   6  26
ATOM     26  O   LIG A   1      -5.823   4.302 124.194  0.00  0.00    -0.488 OA
ATOM     27  C   LIG A   1      -5.022   4.415 123.016  0.00  0.00    +0.277 C 
ENDBRANCH   6  26
BRANCH  10  28
ATOM     28  O   LIG A   1      -7.791  -2.862 126.530  0.00  0.00    -0.491 OA
ATOM     29  C   LIG A   1      -8.019  -2.902 127.941  0.00  0.00    +0.277 C 
ENDBRANCH  10  28
BRANCH  11  30
ATOM     30  O   LIG A   1      -9.415  -1.938 124.303  0.00  0.00    -0.488 OA
ATOM     31  C   LIG A   1      -8.969  -2.834 123.302  0.00  0.00    +0.277 C 
ENDBRANCH  11  30
TORSDOF 8
ENDMDL
MODEL 6
REMARK VINA RESULT:      -6.5      1.698      2.038
REMARK  Name = NuBBE_1867
REMARK  13 active torsions:
REMARK  status: ('A' for Active; 'I' for Inactive)
REMARK    1  A    between atoms: C_1  and  O_2
REMARK    2  A    between atoms: O_2  and  C_3
REMARK    3  A    between atoms: C_7  and  C_8
REMARK    4  A    between atoms: C_9  and  O_17
REMARK    5  A    between atoms: C_11  and  O_12
REMARK    6  A    between atoms: O_12  and  C_13
REMARK    7  A    between atoms: C_14  and  O_15
REMARK    8  A    between atoms: C_18  and  O_19
REMARK    9  A    between atoms: O_19  and  C_20
REMARK   10  A    between atoms: C_24  and  O_25
REMARK   11  A    between atoms: O_25  and  C_26
REMARK   12  A    between atoms: C_27  and  O_28
REMARK   13  A    between atoms: O_28  and  C_29
REMARK                            x       y       z     vdW  Elec       q    Type
REMARK                         _______ _______ _______ _____ _____    ______ ____
ROOT
ATOM      1  C   LIG A   1      -6.165   1.886 131.774  0.00  0.00    +0.180 A 
ATOM      2  C   LIG A   1      -7.236   2.784 131.740  0.00  0.00    +0.113 A 
ATOM      3  C   LIG A   1      -8.461   2.413 131.229  0.00  0.00    +0.147 A 
ATOM      4  O   LIG A   1      -9.477   3.318 131.029  0.00  0.00    -0.451 OA
ATOM      5  C   LIG A   1      -9.169   4.671 131.161  0.00  0.00    +0.184 A 
ATOM      6  C   LIG A   1      -8.060   5.138 131.779  0.00  0.00    +0.211 A 
ATOM      7  C   LIG A   1      -7.188   4.098 132.369  0.00  0.00    +0.238 A 
ATOM      8  O   LIG A   1      -6.507   4.284 133.385  0.00  0.00    -0.283 OA
ATOM      9  C   LIG A   1      -8.681   1.080 130.908  0.00  0.00    +0.096 A 
ATOM     10  C   LIG A   1      -7.686   0.104 131.135  0.00  0.00    +0.169 A 
ATOM     11  C   LIG A   1      -6.407   0.517 131.561  0.00  0.00    +0.204 A 
ENDROOT
BRANCH   5  12
ATOM     12  C   LIG A   1     -10.190   5.571 130.590  0.00  0.00    +0.066 A 
ATOM     13  C   LIG A   1     -10.141   6.039 129.267  0.00  0.00    +0.131 A 
ATOM     14  C   LIG A   1     -11.143   6.865 128.744  0.00  0.00    +0.095 A 
ATOM     15  C   LIG A   1     -12.207   7.273 129.543  0.00  0.00    +0.165 A 
ATOM     16  C   LIG A   1     -12.247   6.826 130.868  0.00  0.00    +0.159 A 
ATOM     17  C   LIG A   1     -11.265   5.982 131.392  0.00  0.00    +0.064 A 
BRANCH  15  18
ATOM     18  O   LIG A   1     -13.230   8.100 129.152  0.00  0.00    -0.491 OA
ATOM     19  C   LIG A   1     -12.915   9.490 129.061  0.00  0.00    +0.277 C 
ENDBRANCH  15  18
BRANCH  16  20
ATOM     20  O   LIG A   1     -13.264   7.218 131.699  0.00  0.00    -0.503 OA
ATOM     21  H   LIG A   1     -13.171   6.666 132.501  0.00  0.00    +0.292 HD
ENDBRANCH  16  20
BRANCH  13  22
ATOM     22  O   LIG A   1      -9.123   5.746 128.399  0.00  0.00    -0.506 OA
ATOM     23  H   LIG A   1      -8.499   5.137 128.826  0.00  0.00    +0.292 HD
ENDBRANCH  13  22
ENDBRANCH   5  12
BRANCH   1  25
ATOM     24  C   LIG A   1      -4.237   2.788 130.790  0.00  0.00    +0.277 C 
ATOM     25  O   LIG A   1      -4.861   2.282 131.978  0.00  0.00    -0.490 OA
ENDBRANCH   1  25
BRANCH   6  26
ATOM     26  O   LIG A   1      -7.799   6.489 131.929  0.00  0.00    -0.488 OA
ATOM     27  C   LIG A   1      -6.739   6.984 131.108  0.00  0.00    +0.277 C 
ENDBRANCH   6  26
BRANCH  10  28
ATOM     28  O   LIG A   1      -7.924  -1.232 130.922  0.00  0.00    -0.491 OA
ATOM     29  C   LIG A   1      -7.819  -1.662 129.563  0.00  0.00    +0.277 C 
ENDBRANCH  10  28
BRANCH  11  30
ATOM     30  O   LIG A   1      -5.389  -0.296 131.992  0.00  0.00    -0.488 OA
ATOM     31  C   LIG A   1      -4.528  -0.906 131.047  0.00  0.00    +0.277 C 
ENDBRANCH  11  30
TORSDOF 8
ENDMDL
MODEL 7
REMARK VINA RESULT:      -6.3      3.071      6.755
REMARK  Name = NuBBE_1867
REMARK  13 active torsions:
REMARK  status: ('A' for Active; 'I' for Inactive)
REMARK    1  A    between atoms: C_1  and  O_2
REMARK    2  A    between atoms: O_2  and  C_3
REMARK    3  A    between atoms: C_7  and  C_8
REMARK    4  A    between atoms: C_9  and  O_17
REMARK    5  A    between atoms: C_11  and  O_12
REMARK    6  A    between atoms: O_12  and  C_13
REMARK    7  A    between atoms: C_14  and  O_15
REMARK    8  A    between atoms: C_18  and  O_19
REMARK    9  A    between atoms: O_19  and  C_20
REMARK   10  A    between atoms: C_24  and  O_25
REMARK   11  A    between atoms: O_25  and  C_26
REMARK   12  A    between atoms: C_27  and  O_28
REMARK   13  A    between atoms: O_28  and  C_29
REMARK                            x       y       z     vdW  Elec       q    Type
REMARK                         _______ _______ _______ _____ _____    ______ ____
ROOT
ATOM      1  C   LIG A   1      -8.576   3.049 131.367  0.00  0.00    +0.180 A 
ATOM      2  C   LIG A   1      -8.103   3.211 130.061  0.00  0.00    +0.113 A 
ATOM      3  C   LIG A   1      -8.583   4.213 129.248  0.00  0.00    +0.147 A 
ATOM      4  O   LIG A   1      -8.261   4.293 127.913  0.00  0.00    -0.451 OA
ATOM      5  C   LIG A   1      -7.597   3.207 127.345  0.00  0.00    +0.184 A 
ATOM      6  C   LIG A   1      -6.965   2.248 128.060  0.00  0.00    +0.211 A 
ATOM      7  C   LIG A   1      -6.980   2.450 129.527  0.00  0.00    +0.238 A 
ATOM      8  O   LIG A   1      -6.065   2.073 130.270  0.00  0.00    -0.283 OA
ATOM      9  C   LIG A   1      -9.418   5.180 129.792  0.00  0.00    +0.096 A 
ATOM     10  C   LIG A   1      -9.744   5.169 131.166  0.00  0.00    +0.169 A 
ATOM     11  C   LIG A   1      -9.327   4.079 131.959  0.00  0.00    +0.204 A 
ENDROOT
BRANCH   5  12
ATOM     12  C   LIG A   1      -7.609   3.210 125.870  0.00  0.00    +0.066 A 
ATOM     13  C   LIG A   1      -8.543   2.485 125.113  0.00  0.00    +0.131 A 
ATOM     14  C   LIG A   1      -8.551   2.533 123.714  0.00  0.00    +0.095 A 
ATOM     15  C   LIG A   1      -7.598   3.285 123.031  0.00  0.00    +0.165 A 
ATOM     16  C   LIG A   1      -6.651   3.991 123.782  0.00  0.00    +0.159 A 
ATOM     17  C   LIG A   1      -6.652   3.967 125.178  0.00  0.00    +0.064 A 
BRANCH  15  18
ATOM     18  O   LIG A   1      -7.488   3.388 121.667  0.00  0.00    -0.491 OA
ATOM     19  C   LIG A   1      -8.693   3.690 120.962  0.00  0.00    +0.277 C 
ENDBRANCH  15  18
BRANCH  16  20
ATOM     20  O   LIG A   1      -5.681   4.727 123.154  0.00  0.00    -0.503 OA
ATOM     21  H   LIG A   1      -6.082   5.606 123.001  0.00  0.00    +0.292 HD
ENDBRANCH  16  20
BRANCH  13  22
ATOM     22  O   LIG A   1      -9.499   1.675 125.667  0.00  0.00    -0.506 OA
ATOM     23  H   LIG A   1      -9.681   0.933 125.068  0.00  0.00    +0.292 HD
ENDBRANCH  13  22
ENDBRANCH   5  12
BRANCH   1  25
ATOM     24  C   LIG A   1      -9.344   0.886 131.843  0.00  0.00    +0.277 C 
ATOM     25  O   LIG A   1      -8.369   1.903 132.103  0.00  0.00    -0.490 OA
ENDBRANCH   1  25
BRANCH   6  26
ATOM     26  O   LIG A   1      -6.280   1.201 127.468  0.00  0.00    -0.488 OA
ATOM     27  C   LIG A   1      -6.928  -0.068 127.576  0.00  0.00    +0.277 C 
ENDBRANCH   6  26
BRANCH  10  28
ATOM     28  O   LIG A   1     -10.481   6.175 131.741  0.00  0.00    -0.491 OA
ATOM     29  C   LIG A   1     -11.808   6.330 131.230  0.00  0.00    +0.277 C 
ENDBRANCH  10  28
BRANCH  11  30
ATOM     30  O   LIG A   1      -9.403   3.990 133.326  0.00  0.00    -0.488 OA
ATOM     31  C   LIG A   1      -8.404   4.594 134.128  0.00  0.00    +0.277 C 
ENDBRANCH  11  30
TORSDOF 8
ENDMDL
MODEL 8
REMARK VINA RESULT:      -6.3      5.147      8.917
REMARK  Name = NuBBE_1867
REMARK  13 active torsions:
REMARK  status: ('A' for Active; 'I' for Inactive)
REMARK    1  A    between atoms: C_1  and  O_2
REMARK    2  A    between atoms: O_2  and  C_3
REMARK    3  A    between atoms: C_7  and  C_8
REMARK    4  A    between atoms: C_9  and  O_17
REMARK    5  A    between atoms: C_11  and  O_12
REMARK    6  A    between atoms: O_12  and  C_13
REMARK    7  A    between atoms: C_14  and  O_15
REMARK    8  A    between atoms: C_18  and  O_19
REMARK    9  A    between atoms: O_19  and  C_20
REMARK   10  A    between atoms: C_24  and  O_25
REMARK   11  A    between atoms: O_25  and  C_26
REMARK   12  A    between atoms: C_27  and  O_28
REMARK   13  A    between atoms: O_28  and  C_29
REMARK                            x       y       z     vdW  Elec       q    Type
REMARK                         _______ _______ _______ _____ _____    ______ ____
ROOT
ATOM      1  C   LIG A   1      -8.678   0.540 124.368  0.00  0.00    +0.180 A 
ATOM      2  C   LIG A   1      -8.511  -0.003 125.645  0.00  0.00    +0.113 A 
ATOM      3  C   LIG A   1      -8.167   0.791 126.717  0.00  0.00    +0.147 A 
ATOM      4  O   LIG A   1      -7.834   0.264 127.944  0.00  0.00    -0.451 OA
ATOM      5  C   LIG A   1      -7.647  -1.114 128.022  0.00  0.00    +0.184 A 
ATOM      6  C   LIG A   1      -8.082  -1.992 127.089  0.00  0.00    +0.211 A 
ATOM      7  C   LIG A   1      -8.833  -1.388 125.965  0.00  0.00    +0.238 A 
ATOM      8  O   LIG A   1      -9.742  -1.977 125.366  0.00  0.00    -0.283 OA
ATOM      9  C   LIG A   1      -8.161   2.171 126.559  0.00  0.00    +0.096 A 
ATOM     10  C   LIG A   1      -8.537   2.763 125.334  0.00  0.00    +0.169 A 
ATOM     11  C   LIG A   1      -8.786   1.934 124.220  0.00  0.00    +0.204 A 
ENDROOT
BRANCH   5  12
ATOM     12  C   LIG A   1      -6.955  -1.551 129.250  0.00  0.00    +0.066 A 
ATOM     13  C   LIG A   1      -5.565  -1.742 129.315  0.00  0.00    +0.131 A 
ATOM     14  C   LIG A   1      -4.932  -2.124 130.504  0.00  0.00    +0.095 A 
ATOM     15  C   LIG A   1      -5.679  -2.358 131.655  0.00  0.00    +0.165 A 
ATOM     16  C   LIG A   1      -7.067  -2.189 131.588  0.00  0.00    +0.159 A 
ATOM     17  C   LIG A   1      -7.704  -1.785 130.413  0.00  0.00    +0.064 A 
BRANCH  15  18
ATOM     18  O   LIG A   1      -5.176  -2.760 132.867  0.00  0.00    -0.491 OA
ATOM     19  C   LIG A   1      -4.560  -4.048 132.895  0.00  0.00    +0.277 C 
ENDBRANCH  15  18
BRANCH  16  20
ATOM     20  O   LIG A   1      -7.846  -2.428 132.689  0.00  0.00    -0.503 OA
ATOM     21  H   LIG A   1      -8.055  -1.546 133.055  0.00  0.00    +0.292 HD
ENDBRANCH  16  20
BRANCH  13  22
ATOM     22  O   LIG A   1      -4.730  -1.588 128.240  0.00  0.00    -0.506 OA
ATOM     23  H   LIG A   1      -5.188  -1.868 127.432  0.00  0.00    +0.292 HD
ENDBRANCH  13  22
ENDBRANCH   5  12
BRANCH   1  25
ATOM     24  C   LIG A   1      -7.426  -0.740 122.854  0.00  0.00    +0.277 C 
ATOM     25  O   LIG A   1      -8.713  -0.230 123.225  0.00  0.00    -0.490 OA
ENDBRANCH   1  25
BRANCH   6  26
ATOM     26  O   LIG A   1      -7.916  -3.360 127.212  0.00  0.00    -0.488 OA
ATOM     27  C   LIG A   1      -9.013  -4.038 127.830  0.00  0.00    +0.277 C 
ENDBRANCH   6  26
BRANCH  10  28
ATOM     28  O   LIG A   1      -8.637   4.126 125.192  0.00  0.00    -0.491 OA
ATOM     29  C   LIG A   1      -7.440   4.859 125.468  0.00  0.00    +0.277 C 
ENDBRANCH  10  28
BRANCH  11  30
ATOM     30  O   LIG A   1      -9.323   2.322 123.019  0.00  0.00    -0.488 OA
ATOM     31  C   LIG A   1      -8.535   3.056 122.100  0.00  0.00    +0.277 C 
ENDBRANCH  11  30
TORSDOF 8
ENDMDL
MODEL 9
REMARK VINA RESULT:      -6.2      3.023      7.427
REMARK  Name = NuBBE_1867
REMARK  13 active torsions:
REMARK  status: ('A' for Active; 'I' for Inactive)
REMARK    1  A    between atoms: C_1  and  O_2
REMARK    2  A    between atoms: O_2  and  C_3
REMARK    3  A    between atoms: C_7  and  C_8
REMARK    4  A    between atoms: C_9  and  O_17
REMARK    5  A    between atoms: C_11  and  O_12
REMARK    6  A    between atoms: O_12  and  C_13
REMARK    7  A    between atoms: C_14  and  O_15
REMARK    8  A    between atoms: C_18  and  O_19
REMARK    9  A    between atoms: O_19  and  C_20
REMARK   10  A    between atoms: C_24  and  O_25
REMARK   11  A    between atoms: O_25  and  C_26
REMARK   12  A    between atoms: C_27  and  O_28
REMARK   13  A    between atoms: O_28  and  C_29
REMARK                            x       y       z     vdW  Elec       q    Type
REMARK                         _______ _______ _______ _____ _____    ______ ____
ROOT
ATOM      1  C   LIG A   1      -6.535   4.784 130.460  0.00  0.00    +0.180 A 
ATOM      2  C   LIG A   1      -7.052   4.124 129.342  0.00  0.00    +0.113 A 
ATOM      3  C   LIG A   1      -8.302   3.546 129.370  0.00  0.00    +0.147 A 
ATOM      4  O   LIG A   1      -8.767   2.750 128.348  0.00  0.00    -0.451 OA
ATOM      5  C   LIG A   1      -7.855   2.367 127.367  0.00  0.00    +0.184 A 
ATOM      6  C   LIG A   1      -6.662   2.971 127.163  0.00  0.00    +0.211 A 
ATOM      7  C   LIG A   1      -6.391   4.132 128.042  0.00  0.00    +0.238 A 
ATOM      8  O   LIG A   1      -5.711   5.103 127.688  0.00  0.00    -0.283 OA
ATOM      9  C   LIG A   1      -9.125   3.776 130.465  0.00  0.00    +0.096 A 
ATOM     10  C   LIG A   1      -8.713   4.619 131.519  0.00  0.00    +0.169 A 
ATOM     11  C   LIG A   1      -7.394   5.118 131.521  0.00  0.00    +0.204 A 
ENDROOT
BRANCH   5  12
ATOM     12  C   LIG A   1      -8.324   1.248 126.526  0.00  0.00    +0.066 A 
ATOM     13  C   LIG A   1      -9.047   1.438 125.338  0.00  0.00    +0.131 A 
ATOM     14  C   LIG A   1      -9.449   0.357 124.543  0.00  0.00    +0.095 A 
ATOM     15  C   LIG A   1      -9.166  -0.948 124.936  0.00  0.00    +0.165 A 
ATOM     16  C   LIG A   1      -8.464  -1.141 126.131  0.00  0.00    +0.159 A 
ATOM     17  C   LIG A   1      -8.039  -0.068 126.917  0.00  0.00    +0.064 A 
BRANCH  15  18
ATOM     18  O   LIG A   1      -9.530  -2.084 124.257  0.00  0.00    -0.491 OA
ATOM     19  C   LIG A   1      -8.768  -2.387 123.087  0.00  0.00    +0.277 C 
ENDBRANCH  15  18
BRANCH  16  20
ATOM     20  O   LIG A   1      -8.181  -2.408 126.569  0.00  0.00    -0.503 OA
ATOM     21  H   LIG A   1      -7.704  -2.837 125.830  0.00  0.00    +0.292 HD
ENDBRANCH  16  20
BRANCH  13  22
ATOM     22  O   LIG A   1      -9.425   2.669 124.871  0.00  0.00    -0.506 OA
ATOM     23  H   LIG A   1     -10.377   2.791 125.015  0.00  0.00    +0.292 HD
ENDBRANCH  13  22
ENDBRANCH   5  12
BRANCH   1  25
ATOM     24  C   LIG A   1      -4.404   3.997 131.042  0.00  0.00    +0.277 C 
ATOM     25  O   LIG A   1      -5.200   5.101 130.592  0.00  0.00    -0.490 OA
ENDBRANCH   1  25
BRANCH   6  26
ATOM     26  O   LIG A   1      -5.793   2.595 126.154  0.00  0.00    -0.488 OA
ATOM     27  C   LIG A   1      -4.602   1.948 126.608  0.00  0.00    +0.277 C 
ENDBRANCH   6  26
BRANCH  10  28
ATOM     28  O   LIG A   1      -9.554   4.941 132.557  0.00  0.00    -0.491 OA
ATOM     29  C   LIG A   1     -10.442   6.034 132.307  0.00  0.00    +0.277 C 
ENDBRANCH  10  28
BRANCH  11  30
ATOM     30  O   LIG A   1      -6.886   6.077 132.361  0.00  0.00    -0.488 OA
ATOM     31  C   LIG A   1      -6.463   5.718 133.664  0.00  0.00    +0.277 C 
ENDBRANCH  11  30
TORSDOF 8
ENDMDL
