MODEL 1
REMARK VINA RESULT:      -7.4      0.000      0.000
REMARK  Name = NuBBE_972
REMARK  5 active torsions:
REMARK  status: ('A' for Active; 'I' for Inactive)
REMARK    1  A    between atoms: C_2  and  C_14
REMARK    2  A    between atoms: N_3  and  C_4
REMARK    3  A    between atoms: C_4  and  C_5
REMARK    4  A    between atoms: C_5  and  C_6
REMARK    5  A    between atoms: C_9  and  O_10
REMARK                            x       y       z     vdW  Elec       q    Type
REMARK                         _______ _______ _______ _____ _____    ______ ____
ROOT
ATOM      1  O   LIG A   1     -10.187   1.264 124.106  0.00  0.00    -0.270 OA
ATOM      2  C   LIG A   1      -9.170   0.629 123.834  0.00  0.00    +0.244 C 
ATOM      3  N   LIG A   1      -8.054   1.180 123.242  0.00  0.00    -0.311 N 
ATOM      4  H   LIG A   1      -7.249   0.601 123.035  0.00  0.00    +0.149 HD
ENDROOT
BRANCH   2   5
ATOM      5  C   LIG A   1      -9.089  -0.832 124.117  0.00  0.00    +0.037 A 
ATOM      6  C   LIG A   1      -9.130  -1.771 123.074  0.00  0.00    +0.013 A 
ATOM      7  C   LIG A   1      -9.062  -3.135 123.355  0.00  0.00    +0.001 A 
ATOM      8  C   LIG A   1      -8.940  -3.570 124.672  0.00  0.00    +0.000 A 
ATOM      9  C   LIG A   1      -8.891  -2.643 125.714  0.00  0.00    +0.001 A 
ATOM     10  C   LIG A   1      -8.962  -1.275 125.440  0.00  0.00    +0.013 A 
ENDBRANCH   2   5
BRANCH   3  11
ATOM     11  C   LIG A   1      -7.953   2.584 122.899  0.00  0.00    +0.109 C 
BRANCH  11  12
ATOM     12  C   LIG A   1      -6.514   3.039 122.637  0.00  0.00    +0.054 C 
BRANCH  12  13
ATOM     13  C   LIG A   1      -6.329   3.823 121.354  0.00  0.00    -0.046 A 
ATOM     14  C   LIG A   1      -7.310   3.816 120.351  0.00  0.00    +0.007 A 
ATOM     15  C   LIG A   1      -7.134   4.551 119.175  0.00  0.00    +0.045 A 
ATOM     16  C   LIG A   1      -5.979   5.307 119.007  0.00  0.00    +0.117 A 
ATOM     17  C   LIG A   1      -5.001   5.339 119.993  0.00  0.00    +0.045 A 
ATOM     18  C   LIG A   1      -5.176   4.600 121.164  0.00  0.00    +0.007 A 
BRANCH  16  19
ATOM     19  O   LIG A   1      -5.770   6.041 117.877  0.00  0.00    -0.507 OA
ATOM     20  H   LIG A   1      -6.375   6.802 117.885  0.00  0.00    +0.292 HD
ENDBRANCH  16  19
ENDBRANCH  12  13
ENDBRANCH  11  12
ENDBRANCH   3  11
TORSDOF 5
ENDMDL
MODEL 2
REMARK VINA RESULT:      -7.4      1.992      2.533
REMARK  Name = NuBBE_972
REMARK  5 active torsions:
REMARK  status: ('A' for Active; 'I' for Inactive)
REMARK    1  A    between atoms: C_2  and  C_14
REMARK    2  A    between atoms: N_3  and  C_4
REMARK    3  A    between atoms: C_4  and  C_5
REMARK    4  A    between atoms: C_5  and  C_6
REMARK    5  A    between atoms: C_9  and  O_10
REMARK                            x       y       z     vdW  Elec       q    Type
REMARK                         _______ _______ _______ _____ _____    ______ ____
ROOT
ATOM      1  O   LIG A   1      -9.859  -1.809 123.045  0.00  0.00    -0.270 OA
ATOM      2  C   LIG A   1      -8.750  -1.310 123.231  0.00  0.00    +0.244 C 
ATOM      3  N   LIG A   1      -8.509   0.048 123.229  0.00  0.00    -0.311 N 
ATOM      4  H   LIG A   1      -7.570   0.397 123.380  0.00  0.00    +0.149 HD
ENDROOT
BRANCH   2   5
ATOM      5  C   LIG A   1      -7.556  -2.172 123.456  0.00  0.00    +0.037 A 
ATOM      6  C   LIG A   1      -6.315  -1.846 122.885  0.00  0.00    +0.013 A 
ATOM      7  C   LIG A   1      -5.209  -2.668 123.097  0.00  0.00    +0.001 A 
ATOM      8  C   LIG A   1      -5.328  -3.809 123.886  0.00  0.00    +0.000 A 
ATOM      9  C   LIG A   1      -6.557  -4.136 124.463  0.00  0.00    +0.001 A 
ATOM     10  C   LIG A   1      -7.670  -3.319 124.252  0.00  0.00    +0.013 A 
ENDBRANCH   2   5
BRANCH   3  11
ATOM     11  C   LIG A   1      -9.549   1.035 123.030  0.00  0.00    +0.109 C 
BRANCH  11  12
ATOM     12  C   LIG A   1      -9.092   2.464 123.343  0.00  0.00    +0.054 C 
BRANCH  12  13
ATOM     13  C   LIG A   1      -8.188   3.077 122.292  0.00  0.00    -0.046 A 
ATOM     14  C   LIG A   1      -8.696   3.500 121.055  0.00  0.00    +0.007 A 
ATOM     15  C   LIG A   1      -7.855   4.073 120.096  0.00  0.00    +0.045 A 
ATOM     16  C   LIG A   1      -6.504   4.237 120.382  0.00  0.00    +0.117 A 
ATOM     17  C   LIG A   1      -5.983   3.837 121.606  0.00  0.00    +0.045 A 
ATOM     18  C   LIG A   1      -6.823   3.259 122.559  0.00  0.00    +0.007 A 
BRANCH  16  19
ATOM     19  O   LIG A   1      -5.650   4.795 119.477  0.00  0.00    -0.507 OA
ATOM     20  H   LIG A   1      -6.068   5.589 119.104  0.00  0.00    +0.292 HD
ENDBRANCH  16  19
ENDBRANCH  12  13
ENDBRANCH  11  12
ENDBRANCH   3  11
TORSDOF 5
ENDMDL
MODEL 3
REMARK VINA RESULT:      -7.3      0.425      1.651
REMARK  Name = NuBBE_972
REMARK  5 active torsions:
REMARK  status: ('A' for Active; 'I' for Inactive)
REMARK    1  A    between atoms: C_2  and  C_14
REMARK    2  A    between atoms: N_3  and  C_4
REMARK    3  A    between atoms: C_4  and  C_5
REMARK    4  A    between atoms: C_5  and  C_6
REMARK    5  A    between atoms: C_9  and  O_10
REMARK                            x       y       z     vdW  Elec       q    Type
REMARK                         _______ _______ _______ _____ _____    ______ ____
ROOT
ATOM      1  O   LIG A   1      -9.351   1.255 125.141  0.00  0.00    -0.270 OA
ATOM      2  C   LIG A   1      -8.790   0.575 124.283  0.00  0.00    +0.244 C 
ATOM      3  N   LIG A   1      -8.138   1.103 123.189  0.00  0.00    -0.311 N 
ATOM      4  H   LIG A   1      -7.703   0.488 122.512  0.00  0.00    +0.149 HD
ENDROOT
BRANCH   2   5
ATOM      5  C   LIG A   1      -8.802  -0.912 124.366  0.00  0.00    +0.037 A 
ATOM      6  C   LIG A   1      -8.447  -1.571 125.555  0.00  0.00    +0.013 A 
ATOM      7  C   LIG A   1      -8.454  -2.964 125.613  0.00  0.00    +0.001 A 
ATOM      8  C   LIG A   1      -8.825  -3.707 124.496  0.00  0.00    +0.000 A 
ATOM      9  C   LIG A   1      -9.185  -3.061 123.313  0.00  0.00    +0.001 A 
ATOM     10  C   LIG A   1      -9.178  -1.665 123.246  0.00  0.00    +0.013 A 
ENDBRANCH   2   5
BRANCH   3  11
ATOM     11  C   LIG A   1      -8.024   2.526 122.948  0.00  0.00    +0.109 C 
BRANCH  11  12
ATOM     12  C   LIG A   1      -6.577   2.989 122.744  0.00  0.00    +0.054 C 
BRANCH  12  13
ATOM     13  C   LIG A   1      -6.347   3.786 121.476  0.00  0.00    -0.046 A 
ATOM     14  C   LIG A   1      -5.158   4.504 121.275  0.00  0.00    +0.007 A 
ATOM     15  C   LIG A   1      -4.952   5.228 120.097  0.00  0.00    +0.045 A 
ATOM     16  C   LIG A   1      -5.933   5.223 119.111  0.00  0.00    +0.117 A 
ATOM     17  C   LIG A   1      -7.111   4.509 119.284  0.00  0.00    +0.045 A 
ATOM     18  C   LIG A   1      -7.318   3.791 120.464  0.00  0.00    +0.007 A 
BRANCH  16  19
ATOM     19  O   LIG A   1      -5.770   5.913 117.946  0.00  0.00    -0.507 OA
ATOM     20  H   LIG A   1      -6.510   6.534 117.847  0.00  0.00    +0.292 HD
ENDBRANCH  16  19
ENDBRANCH  12  13
ENDBRANCH  11  12
ENDBRANCH   3  11
TORSDOF 5
ENDMDL
MODEL 4
REMARK VINA RESULT:      -7.2      2.079      7.635
REMARK  Name = NuBBE_972
REMARK  5 active torsions:
REMARK  status: ('A' for Active; 'I' for Inactive)
REMARK    1  A    between atoms: C_2  and  C_14
REMARK    2  A    between atoms: N_3  and  C_4
REMARK    3  A    between atoms: C_4  and  C_5
REMARK    4  A    between atoms: C_5  and  C_6
REMARK    5  A    between atoms: C_9  and  O_10
REMARK                            x       y       z     vdW  Elec       q    Type
REMARK                         _______ _______ _______ _____ _____    ______ ____
ROOT
ATOM      1  O   LIG A   1      -6.372   2.553 122.861  0.00  0.00    -0.270 OA
ATOM      2  C   LIG A   1      -7.193   3.059 122.098  0.00  0.00    +0.244 C 
ATOM      3  N   LIG A   1      -8.557   2.895 122.219  0.00  0.00    -0.311 N 
ATOM      4  H   LIG A   1      -9.182   3.332 121.552  0.00  0.00    +0.149 HD
ENDROOT
BRANCH   2   5
ATOM      5  C   LIG A   1      -6.749   3.891 120.945  0.00  0.00    +0.037 A 
ATOM      6  C   LIG A   1      -5.498   4.529 120.957  0.00  0.00    +0.013 A 
ATOM      7  C   LIG A   1      -5.099   5.312 119.874  0.00  0.00    +0.001 A 
ATOM      8  C   LIG A   1      -5.936   5.452 118.770  0.00  0.00    +0.000 A 
ATOM      9  C   LIG A   1      -7.178   4.816 118.747  0.00  0.00    +0.001 A 
ATOM     10  C   LIG A   1      -7.585   4.033 119.830  0.00  0.00    +0.013 A 
ENDBRANCH   2   5
BRANCH   3  11
ATOM     11  C   LIG A   1      -9.169   2.123 123.280  0.00  0.00    +0.109 C 
BRANCH  11  12
ATOM     12  C   LIG A   1      -9.795   0.813 122.789  0.00  0.00    +0.054 C 
BRANCH  12  13
ATOM     13  C   LIG A   1      -9.027  -0.434 123.180  0.00  0.00    -0.046 A 
ATOM     14  C   LIG A   1      -7.766  -0.348 123.790  0.00  0.00    +0.007 A 
ATOM     15  C   LIG A   1      -7.070  -1.504 124.156  0.00  0.00    +0.045 A 
ATOM     16  C   LIG A   1      -7.643  -2.750 123.923  0.00  0.00    +0.117 A 
ATOM     17  C   LIG A   1      -8.895  -2.856 123.332  0.00  0.00    +0.045 A 
ATOM     18  C   LIG A   1      -9.587  -1.701 122.963  0.00  0.00    +0.007 A 
BRANCH  16  19
ATOM     19  O   LIG A   1      -6.999  -3.901 124.268  0.00  0.00    -0.507 OA
ATOM     20  H   LIG A   1      -7.050  -4.521 123.521  0.00  0.00    +0.292 HD
ENDBRANCH  16  19
ENDBRANCH  12  13
ENDBRANCH  11  12
ENDBRANCH   3  11
TORSDOF 5
ENDMDL
MODEL 5
REMARK VINA RESULT:      -7.1      2.593      7.518
REMARK  Name = NuBBE_972
REMARK  5 active torsions:
REMARK  status: ('A' for Active; 'I' for Inactive)
REMARK    1  A    between atoms: C_2  and  C_14
REMARK    2  A    between atoms: N_3  and  C_4
REMARK    3  A    between atoms: C_4  and  C_5
REMARK    4  A    between atoms: C_5  and  C_6
REMARK    5  A    between atoms: C_9  and  O_10
REMARK                            x       y       z     vdW  Elec       q    Type
REMARK                         _______ _______ _______ _____ _____    ______ ____
ROOT
ATOM      1  O   LIG A   1      -9.036   3.002 122.560  0.00  0.00    -0.270 OA
ATOM      2  C   LIG A   1      -7.838   2.747 122.446  0.00  0.00    +0.244 C 
ATOM      3  N   LIG A   1      -7.197   1.743 123.140  0.00  0.00    -0.311 N 
ATOM      4  H   LIG A   1      -6.204   1.589 123.008  0.00  0.00    +0.149 HD
ENDROOT
BRANCH   2   5
ATOM      5  C   LIG A   1      -6.974   3.551 121.538  0.00  0.00    +0.037 A 
ATOM      6  C   LIG A   1      -7.433   3.949 120.272  0.00  0.00    +0.013 A 
ATOM      7  C   LIG A   1      -6.609   4.694 119.429  0.00  0.00    +0.001 A 
ATOM      8  C   LIG A   1      -5.331   5.057 119.846  0.00  0.00    +0.000 A 
ATOM      9  C   LIG A   1      -4.869   4.671 121.105  0.00  0.00    +0.001 A 
ATOM     10  C   LIG A   1      -5.688   3.922 121.954  0.00  0.00    +0.013 A 
ENDBRANCH   2   5
BRANCH   3  11
ATOM     11  C   LIG A   1      -7.878   0.860 124.063  0.00  0.00    +0.109 C 
BRANCH  11  12
ATOM     12  C   LIG A   1      -8.390  -0.425 123.403  0.00  0.00    +0.054 C 
BRANCH  12  13
ATOM     13  C   LIG A   1      -7.470  -1.619 123.560  0.00  0.00    -0.046 A 
ATOM     14  C   LIG A   1      -7.874  -2.759 124.271  0.00  0.00    +0.007 A 
ATOM     15  C   LIG A   1      -7.021  -3.858 124.401  0.00  0.00    +0.045 A 
ATOM     16  C   LIG A   1      -5.765  -3.824 123.806  0.00  0.00    +0.117 A 
ATOM     17  C   LIG A   1      -5.350  -2.711 123.086  0.00  0.00    +0.045 A 
ATOM     18  C   LIG A   1      -6.201  -1.611 122.962  0.00  0.00    +0.007 A 
BRANCH  16  19
ATOM     19  O   LIG A   1      -4.904  -4.877 123.905  0.00  0.00    -0.507 OA
ATOM     20  H   LIG A   1      -4.748  -5.235 123.015  0.00  0.00    +0.292 HD
ENDBRANCH  16  19
ENDBRANCH  12  13
ENDBRANCH  11  12
ENDBRANCH   3  11
TORSDOF 5
ENDMDL
MODEL 6
REMARK VINA RESULT:      -7.1      1.952      7.439
REMARK  Name = NuBBE_972
REMARK  5 active torsions:
REMARK  status: ('A' for Active; 'I' for Inactive)
REMARK    1  A    between atoms: C_2  and  C_14
REMARK    2  A    between atoms: N_3  and  C_4
REMARK    3  A    between atoms: C_4  and  C_5
REMARK    4  A    between atoms: C_5  and  C_6
REMARK    5  A    between atoms: C_9  and  O_10
REMARK                            x       y       z     vdW  Elec       q    Type
REMARK                         _______ _______ _______ _____ _____    ______ ____
ROOT
ATOM      1  O   LIG A   1      -8.472   2.396 122.518  0.00  0.00    -0.270 OA
ATOM      2  C   LIG A   1      -7.327   2.834 122.628  0.00  0.00    +0.244 C 
ATOM      3  N   LIG A   1      -6.536   2.643 123.741  0.00  0.00    -0.311 N 
ATOM      4  H   LIG A   1      -5.603   3.037 123.774  0.00  0.00    +0.149 HD
ENDROOT
BRANCH   2   5
ATOM      5  C   LIG A   1      -6.715   3.644 121.538  0.00  0.00    +0.037 A 
ATOM      6  C   LIG A   1      -5.434   4.199 121.687  0.00  0.00    +0.013 A 
ATOM      7  C   LIG A   1      -4.878   4.964 120.661  0.00  0.00    +0.001 A 
ATOM      8  C   LIG A   1      -5.588   5.168 119.480  0.00  0.00    +0.000 A 
ATOM      9  C   LIG A   1      -6.859   4.614 119.323  0.00  0.00    +0.001 A 
ATOM     10  C   LIG A   1      -7.423   3.850 120.347  0.00  0.00    +0.013 A 
ENDBRANCH   2   5
BRANCH   3  11
ATOM     11  C   LIG A   1      -6.964   1.879 124.894  0.00  0.00    +0.109 C 
BRANCH  11  12
ATOM     12  C   LIG A   1      -6.410   0.450 124.911  0.00  0.00    +0.054 C 
BRANCH  12  13
ATOM     13  C   LIG A   1      -7.402  -0.611 124.479  0.00  0.00    -0.046 A 
ATOM     14  C   LIG A   1      -7.470  -1.042 123.145  0.00  0.00    +0.007 A 
ATOM     15  C   LIG A   1      -8.382  -2.028 122.759  0.00  0.00    +0.045 A 
ATOM     16  C   LIG A   1      -9.220  -2.596 123.713  0.00  0.00    +0.117 A 
ATOM     17  C   LIG A   1      -9.160  -2.194 125.040  0.00  0.00    +0.045 A 
ATOM     18  C   LIG A   1      -8.253  -1.205 125.423  0.00  0.00    +0.007 A 
BRANCH  16  19
ATOM     19  O   LIG A   1     -10.121  -3.564 123.378  0.00  0.00    -0.507 OA
ATOM     20  H   LIG A   1      -9.657  -4.265 122.891  0.00  0.00    +0.292 HD
ENDBRANCH  16  19
ENDBRANCH  12  13
ENDBRANCH  11  12
ENDBRANCH   3  11
TORSDOF 5
ENDMDL
MODEL 7
REMARK VINA RESULT:      -6.7      3.993      5.508
REMARK  Name = NuBBE_972
REMARK  5 active torsions:
REMARK  status: ('A' for Active; 'I' for Inactive)
REMARK    1  A    between atoms: C_2  and  C_14
REMARK    2  A    between atoms: N_3  and  C_4
REMARK    3  A    between atoms: C_4  and  C_5
REMARK    4  A    between atoms: C_5  and  C_6
REMARK    5  A    between atoms: C_9  and  O_10
REMARK                            x       y       z     vdW  Elec       q    Type
REMARK                         _______ _______ _______ _____ _____    ______ ____
ROOT
ATOM      1  O   LIG A   1     -10.128  -2.846 125.876  0.00  0.00    -0.270 OA
ATOM      2  C   LIG A   1      -8.899  -2.887 125.892  0.00  0.00    +0.244 C 
ATOM      3  N   LIG A   1      -8.117  -2.949 124.758  0.00  0.00    -0.311 N 
ATOM      4  H   LIG A   1      -7.108  -2.989 124.839  0.00  0.00    +0.149 HD
ENDROOT
BRANCH   2   5
ATOM      5  C   LIG A   1      -8.156  -2.896 127.184  0.00  0.00    +0.037 A 
ATOM      6  C   LIG A   1      -8.686  -3.536 128.316  0.00  0.00    +0.013 A 
ATOM      7  C   LIG A   1      -7.983  -3.527 129.520  0.00  0.00    +0.001 A 
ATOM      8  C   LIG A   1      -6.745  -2.894 129.600  0.00  0.00    +0.000 A 
ATOM      9  C   LIG A   1      -6.208  -2.262 128.478  0.00  0.00    +0.001 A 
ATOM     10  C   LIG A   1      -6.908  -2.264 127.269  0.00  0.00    +0.013 A 
ENDBRANCH   2   5
BRANCH   3  11
ATOM     11  C   LIG A   1      -8.666  -2.947 123.419  0.00  0.00    +0.109 C 
BRANCH  11  12
ATOM     12  C   LIG A   1      -8.172  -1.773 122.566  0.00  0.00    +0.054 C 
BRANCH  12  13
ATOM     13  C   LIG A   1      -8.414  -0.408 123.179  0.00  0.00    -0.046 A 
ATOM     14  C   LIG A   1      -7.358   0.344 123.716  0.00  0.00    +0.007 A 
ATOM     15  C   LIG A   1      -7.590   1.606 124.270  0.00  0.00    +0.045 A 
ATOM     16  C   LIG A   1      -8.880   2.124 124.274  0.00  0.00    +0.117 A 
ATOM     17  C   LIG A   1      -9.937   1.402 123.736  0.00  0.00    +0.045 A 
ATOM     18  C   LIG A   1      -9.705   0.139 123.188  0.00  0.00    +0.007 A 
BRANCH  16  19
ATOM     19  O   LIG A   1      -9.149   3.353 124.802  0.00  0.00    -0.507 OA
ATOM     20  H   LIG A   1     -10.074   3.368 125.099  0.00  0.00    +0.292 HD
ENDBRANCH  16  19
ENDBRANCH  12  13
ENDBRANCH  11  12
ENDBRANCH   3  11
TORSDOF 5
ENDMDL
MODEL 8
REMARK VINA RESULT:      -6.6      9.688     10.469
REMARK  Name = NuBBE_972
REMARK  5 active torsions:
REMARK  status: ('A' for Active; 'I' for Inactive)
REMARK    1  A    between atoms: C_2  and  C_14
REMARK    2  A    between atoms: N_3  and  C_4
REMARK    3  A    between atoms: C_4  and  C_5
REMARK    4  A    between atoms: C_5  and  C_6
REMARK    5  A    between atoms: C_9  and  O_10
REMARK                            x       y       z     vdW  Elec       q    Type
REMARK                         _______ _______ _______ _____ _____    ______ ____
ROOT
ATOM      1  O   LIG A   1     -10.012   6.527 132.208  0.00  0.00    -0.270 OA
ATOM      2  C   LIG A   1      -9.729   6.651 131.017  0.00  0.00    +0.244 C 
ATOM      3  N   LIG A   1      -8.533   6.246 130.465  0.00  0.00    -0.311 N 
ATOM      4  H   LIG A   1      -8.356   6.384 129.477  0.00  0.00    +0.149 HD
ENDROOT
BRANCH   2   5
ATOM      5  C   LIG A   1     -10.687   7.291 130.071  0.00  0.00    +0.037 A 
ATOM      6  C   LIG A   1     -10.233   7.901 128.891  0.00  0.00    +0.013 A 
ATOM      7  C   LIG A   1     -11.141   8.504 128.020  0.00  0.00    +0.001 A 
ATOM      8  C   LIG A   1     -12.502   8.491 128.313  0.00  0.00    +0.000 A 
ATOM      9  C   LIG A   1     -12.962   7.879 129.480  0.00  0.00    +0.001 A 
ATOM     10  C   LIG A   1     -12.058   7.276 130.359  0.00  0.00    +0.013 A 
ENDBRANCH   2   5
BRANCH   3  11
ATOM     11  C   LIG A   1      -7.486   5.603 131.232  0.00  0.00    +0.109 C 
BRANCH  11  12
ATOM     12  C   LIG A   1      -6.356   6.558 131.630  0.00  0.00    +0.054 C 
BRANCH  12  13
ATOM     13  C   LIG A   1      -5.193   6.591 130.659  0.00  0.00    -0.046 A 
ATOM     14  C   LIG A   1      -4.681   5.410 130.099  0.00  0.00    +0.007 A 
ATOM     15  C   LIG A   1      -3.614   5.452 129.197  0.00  0.00    +0.045 A 
ATOM     16  C   LIG A   1      -3.067   6.680 128.841  0.00  0.00    +0.117 A 
ATOM     17  C   LIG A   1      -3.567   7.861 129.373  0.00  0.00    +0.045 A 
ATOM     18  C   LIG A   1      -4.628   7.817 130.279  0.00  0.00    +0.007 A 
BRANCH  16  19
ATOM     19  O   LIG A   1      -2.028   6.765 127.962  0.00  0.00    -0.507 OA
ATOM     20  H   LIG A   1      -2.088   7.614 127.492  0.00  0.00    +0.292 HD
ENDBRANCH  16  19
ENDBRANCH  12  13
ENDBRANCH  11  12
ENDBRANCH   3  11
TORSDOF 5
ENDMDL
MODEL 9
REMARK VINA RESULT:      -6.6     13.215     14.785
REMARK  Name = NuBBE_972
REMARK  5 active torsions:
REMARK  status: ('A' for Active; 'I' for Inactive)
REMARK    1  A    between atoms: C_2  and  C_14
REMARK    2  A    between atoms: N_3  and  C_4
REMARK    3  A    between atoms: C_4  and  C_5
REMARK    4  A    between atoms: C_5  and  C_6
REMARK    5  A    between atoms: C_9  and  O_10
REMARK                            x       y       z     vdW  Elec       q    Type
REMARK                         _______ _______ _______ _____ _____    ______ ____
ROOT
ATOM      1  O   LIG A   1      -6.277   6.794 137.189  0.00  0.00    -0.270 OA
ATOM      2  C   LIG A   1      -7.479   6.954 136.977  0.00  0.00    +0.244 C 
ATOM      3  N   LIG A   1      -8.201   6.220 136.061  0.00  0.00    -0.311 N 
ATOM      4  H   LIG A   1      -9.188   6.406 135.926  0.00  0.00    +0.149 HD
ENDROOT
BRANCH   2   5
ATOM      5  C   LIG A   1      -8.246   8.001 137.707  0.00  0.00    +0.037 A 
ATOM      6  C   LIG A   1      -7.685   8.670 138.807  0.00  0.00    +0.013 A 
ATOM      7  C   LIG A   1      -8.420   9.642 139.486  0.00  0.00    +0.001 A 
ATOM      8  C   LIG A   1      -9.709   9.962 139.067  0.00  0.00    +0.000 A 
ATOM      9  C   LIG A   1     -10.271   9.306 137.970  0.00  0.00    +0.001 A 
ATOM     10  C   LIG A   1      -9.542   8.330 137.287  0.00  0.00    +0.013 A 
ENDBRANCH   2   5
BRANCH   3  11
ATOM     11  C   LIG A   1      -7.622   5.159 135.264  0.00  0.00    +0.109 C 
BRANCH  11  12
ATOM     12  C   LIG A   1      -8.585   4.600 134.211  0.00  0.00    +0.054 C 
BRANCH  12  13
ATOM     13  C   LIG A   1      -8.728   5.463 132.973  0.00  0.00    -0.046 A 
ATOM     14  C   LIG A   1      -7.602   5.964 132.302  0.00  0.00    +0.007 A 
ATOM     15  C   LIG A   1      -7.746   6.750 131.156  0.00  0.00    +0.045 A 
ATOM     16  C   LIG A   1      -9.020   7.027 130.671  0.00  0.00    +0.117 A 
ATOM     17  C   LIG A   1     -10.147   6.531 131.312  0.00  0.00    +0.045 A 
ATOM     18  C   LIG A   1     -10.002   5.750 132.460  0.00  0.00    +0.007 A 
BRANCH  16  19
ATOM     19  O   LIG A   1      -9.203   7.787 129.554  0.00  0.00    -0.507 OA
ATOM     20  H   LIG A   1      -9.928   8.413 129.719  0.00  0.00    +0.292 HD
ENDBRANCH  16  19
ENDBRANCH  12  13
ENDBRANCH  11  12
ENDBRANCH   3  11
TORSDOF 5
ENDMDL
