MODEL 1
REMARK VINA RESULT:      -6.7      0.000      0.000
REMARK  Name = NuBBE_1309
REMARK  13 active torsions:
REMARK  status: ('A' for Active; 'I' for Inactive)
REMARK    1  A    between atoms: C_4  and  C_5
REMARK    2  A    between atoms: C_7  and  O_8
REMARK    3  A    between atoms: O_8  and  C_9
REMARK    4  A    between atoms: C_10  and  O_11
REMARK    5  A    between atoms: O_11  and  C_12
REMARK    6  A    between atoms: C_13  and  O_14
REMARK    7  A    between atoms: O_14  and  C_15
REMARK    8  A    between atoms: C_20  and  O_21
REMARK    9  A    between atoms: O_21  and  C_22
REMARK   10  A    between atoms: C_23  and  O_24
REMARK   11  A    between atoms: O_24  and  C_25
REMARK   12  A    between atoms: C_27  and  O_28
REMARK   13  A    between atoms: O_28  and  C_29
REMARK                            x       y       z     vdW  Elec       q    Type
REMARK                         _______ _______ _______ _____ _____    ______ ____
ROOT
ATOM      1  O   LIG A   1      -7.418  -1.650 126.506  0.00  0.00    -0.287 OA
ATOM      2  C   LIG A   1      -7.747  -0.503 126.673  0.00  0.00    +0.197 A 
ATOM      3  C   LIG A   1      -7.927  -0.012 128.051  0.00  0.00    +0.098 A 
ATOM      4  C   LIG A   1      -8.335   1.237 128.264  0.00  0.00    +0.140 A 
ATOM      5  O   LIG A   1      -8.533   2.173 127.252  0.00  0.00    -0.451 OA
ATOM      6  C   LIG A   1      -8.006   0.472 125.584  0.00  0.00    +0.109 A 
ATOM      7  C   LIG A   1      -8.375   1.776 125.929  0.00  0.00    +0.188 A 
ATOM      8  C   LIG A   1      -8.604   2.750 124.927  0.00  0.00    +0.205 A 
ATOM      9  C   LIG A   1      -8.428   2.385 123.581  0.00  0.00    +0.169 A 
ATOM     10  C   LIG A   1      -8.066   1.075 123.258  0.00  0.00    +0.096 A 
ATOM     11  C   LIG A   1      -7.884   0.101 124.243  0.00  0.00    +0.138 A 
ENDROOT
BRANCH   4  12
ATOM     12  C   LIG A   1      -8.562   1.732 129.641  0.00  0.00    +0.025 A 
ATOM     13  C   LIG A   1      -8.095   0.992 130.728  0.00  0.00    +0.061 A 
ATOM     14  C   LIG A   1      -8.264   1.436 132.046  0.00  0.00    +0.166 A 
ATOM     15  C   LIG A   1      -8.931   2.652 132.305  0.00  0.00    +0.203 A 
ATOM     16  C   LIG A   1      -9.413   3.409 131.219  0.00  0.00    +0.166 A 
ATOM     17  C   LIG A   1      -9.214   2.947 129.905  0.00  0.00    +0.061 A 
BRANCH  14  18
ATOM     18  O   LIG A   1      -7.826   0.723 133.125  0.00  0.00    -0.491 OA
ATOM     19  C   LIG A   1      -6.437   0.550 133.330  0.00  0.00    +0.277 C 
ENDBRANCH  14  18
BRANCH  15  20
ATOM     20  O   LIG A   1      -9.205   3.120 133.567  0.00  0.00    -0.488 OA
ATOM     21  C   LIG A   1      -8.263   3.971 134.204  0.00  0.00    +0.277 C 
ENDBRANCH  15  20
BRANCH  16  22
ATOM     22  O   LIG A   1     -10.037   4.635 131.264  0.00  0.00    -0.491 OA
ATOM     23  C   LIG A   1     -11.184   4.810 130.440  0.00  0.00    +0.277 C 
ENDBRANCH  16  22
ENDBRANCH   4  12
BRANCH   8  24
ATOM     24  O   LIG A   1      -8.940   4.016 125.356  0.00  0.00    -0.488 OA
ATOM     25  C   LIG A   1      -7.858   4.919 125.591  0.00  0.00    +0.277 C 
ENDBRANCH   8  24
BRANCH   9  26
ATOM     26  O   LIG A   1      -8.506   3.338 122.598  0.00  0.00    -0.491 OA
ATOM     27  C   LIG A   1      -7.376   3.446 121.737  0.00  0.00    +0.277 C 
ENDBRANCH   9  26
BRANCH  11  28
ATOM     28  O   LIG A   1      -7.485  -1.164 123.914  0.00  0.00    -0.494 OA
ATOM     29  C   LIG A   1      -8.324  -1.886 123.016  0.00  0.00    +0.277 C 
ENDBRANCH  11  28
TORSDOF 7
ENDMDL
MODEL 2
REMARK VINA RESULT:      -6.7      0.185      2.426
REMARK  Name = NuBBE_1309
REMARK  13 active torsions:
REMARK  status: ('A' for Active; 'I' for Inactive)
REMARK    1  A    between atoms: C_4  and  C_5
REMARK    2  A    between atoms: C_7  and  O_8
REMARK    3  A    between atoms: O_8  and  C_9
REMARK    4  A    between atoms: C_10  and  O_11
REMARK    5  A    between atoms: O_11  and  C_12
REMARK    6  A    between atoms: C_13  and  O_14
REMARK    7  A    between atoms: O_14  and  C_15
REMARK    8  A    between atoms: C_20  and  O_21
REMARK    9  A    between atoms: O_21  and  C_22
REMARK   10  A    between atoms: C_23  and  O_24
REMARK   11  A    between atoms: O_24  and  C_25
REMARK   12  A    between atoms: C_27  and  O_28
REMARK   13  A    between atoms: O_28  and  C_29
REMARK                            x       y       z     vdW  Elec       q    Type
REMARK                         _______ _______ _______ _____ _____    ______ ____
ROOT
ATOM      1  O   LIG A   1      -7.310  -1.635 126.445  0.00  0.00    -0.287 OA
ATOM      2  C   LIG A   1      -7.661  -0.496 126.620  0.00  0.00    +0.197 A 
ATOM      3  C   LIG A   1      -7.854  -0.020 128.002  0.00  0.00    +0.098 A 
ATOM      4  C   LIG A   1      -8.285   1.220 128.224  0.00  0.00    +0.140 A 
ATOM      5  O   LIG A   1      -8.498   2.160 127.220  0.00  0.00    -0.451 OA
ATOM      6  C   LIG A   1      -7.935   0.483 125.539  0.00  0.00    +0.109 A 
ATOM      7  C   LIG A   1      -8.329   1.777 125.894  0.00  0.00    +0.188 A 
ATOM      8  C   LIG A   1      -8.574   2.756 124.899  0.00  0.00    +0.205 A 
ATOM      9  C   LIG A   1      -8.388   2.405 123.551  0.00  0.00    +0.169 A 
ATOM     10  C   LIG A   1      -8.001   1.105 123.218  0.00  0.00    +0.096 A 
ATOM     11  C   LIG A   1      -7.803   0.126 124.195  0.00  0.00    +0.138 A 
ENDROOT
BRANCH   4  12
ATOM     12  C   LIG A   1      -8.525   1.698 129.605  0.00  0.00    +0.025 A 
ATOM     13  C   LIG A   1      -9.220   2.891 129.813  0.00  0.00    +0.061 A 
ATOM     14  C   LIG A   1      -9.493   3.366 131.102  0.00  0.00    +0.166 A 
ATOM     15  C   LIG A   1      -9.056   2.643 132.232  0.00  0.00    +0.203 A 
ATOM     16  C   LIG A   1      -8.350   1.440 132.040  0.00  0.00    +0.166 A 
ATOM     17  C   LIG A   1      -8.104   0.978 130.734  0.00  0.00    +0.061 A 
BRANCH  14  18
ATOM     18  O   LIG A   1     -10.161   4.535 131.330  0.00  0.00    -0.491 OA
ATOM     19  C   LIG A   1     -11.179   4.943 130.437  0.00  0.00    +0.277 C 
ENDBRANCH  14  18
BRANCH  15  20
ATOM     20  O   LIG A   1      -9.216   3.077 133.526  0.00  0.00    -0.488 OA
ATOM     21  C   LIG A   1      -8.163   3.804 134.143  0.00  0.00    +0.277 C 
ENDBRANCH  15  20
BRANCH  16  22
ATOM     22  O   LIG A   1      -7.890   0.575 133.006  0.00  0.00    -0.491 OA
ATOM     23  C   LIG A   1      -6.615  -0.020 132.792  0.00  0.00    +0.277 C 
ENDBRANCH  16  22
ENDBRANCH   4  12
BRANCH   8  24
ATOM     24  O   LIG A   1      -8.935   4.011 125.338  0.00  0.00    -0.488 OA
ATOM     25  C   LIG A   1      -7.873   4.947 125.538  0.00  0.00    +0.277 C 
ENDBRANCH   8  24
BRANCH   9  26
ATOM     26  O   LIG A   1      -8.481   3.365 122.576  0.00  0.00    -0.491 OA
ATOM     27  C   LIG A   1      -7.356   3.491 121.710  0.00  0.00    +0.277 C 
ENDBRANCH   9  26
BRANCH  11  28
ATOM     28  O   LIG A   1      -7.380  -1.129 123.856  0.00  0.00    -0.494 OA
ATOM     29  C   LIG A   1      -8.151  -1.822 122.879  0.00  0.00    +0.277 C 
ENDBRANCH  11  28
TORSDOF 7
ENDMDL
MODEL 3
REMARK VINA RESULT:      -6.4      3.506      9.123
REMARK  Name = NuBBE_1309
REMARK  13 active torsions:
REMARK  status: ('A' for Active; 'I' for Inactive)
REMARK    1  A    between atoms: C_4  and  C_5
REMARK    2  A    between atoms: C_7  and  O_8
REMARK    3  A    between atoms: O_8  and  C_9
REMARK    4  A    between atoms: C_10  and  O_11
REMARK    5  A    between atoms: O_11  and  C_12
REMARK    6  A    between atoms: C_13  and  O_14
REMARK    7  A    between atoms: O_14  and  C_15
REMARK    8  A    between atoms: C_20  and  O_21
REMARK    9  A    between atoms: O_21  and  C_22
REMARK   10  A    between atoms: C_23  and  O_24
REMARK   11  A    between atoms: O_24  and  C_25
REMARK   12  A    between atoms: C_27  and  O_28
REMARK   13  A    between atoms: O_28  and  C_29
REMARK                            x       y       z     vdW  Elec       q    Type
REMARK                         _______ _______ _______ _____ _____    ______ ____
ROOT
ATOM      1  O   LIG A   1      -2.875  -3.607 130.038  0.00  0.00    -0.287 OA
ATOM      2  C   LIG A   1      -3.988  -3.153 129.965  0.00  0.00    +0.197 A 
ATOM      3  C   LIG A   1      -4.570  -2.918 128.631  0.00  0.00    +0.098 A 
ATOM      4  C   LIG A   1      -5.779  -2.374 128.519  0.00  0.00    +0.140 A 
ATOM      5  O   LIG A   1      -6.598  -2.073 129.604  0.00  0.00    -0.451 OA
ATOM      6  C   LIG A   1      -4.833  -2.786 131.129  0.00  0.00    +0.109 A 
ATOM      7  C   LIG A   1      -6.112  -2.274 130.890  0.00  0.00    +0.188 A 
ATOM      8  C   LIG A   1      -6.968  -1.937 131.968  0.00  0.00    +0.205 A 
ATOM      9  C   LIG A   1      -6.512  -2.153 133.280  0.00  0.00    +0.169 A 
ATOM     10  C   LIG A   1      -5.228  -2.659 133.496  0.00  0.00    +0.096 A 
ATOM     11  C   LIG A   1      -4.367  -2.949 132.435  0.00  0.00    +0.138 A 
ENDROOT
BRANCH   4  12
ATOM     12  C   LIG A   1      -6.359  -2.092 127.186  0.00  0.00    +0.025 A 
ATOM     13  C   LIG A   1      -7.653  -1.579 127.088  0.00  0.00    +0.061 A 
ATOM     14  C   LIG A   1      -8.230  -1.272 125.849  0.00  0.00    +0.166 A 
ATOM     15  C   LIG A   1      -7.508  -1.490 124.657  0.00  0.00    +0.203 A 
ATOM     16  C   LIG A   1      -6.202  -2.011 124.737  0.00  0.00    +0.166 A 
ATOM     17  C   LIG A   1      -5.642  -2.294 125.996  0.00  0.00    +0.061 A 
BRANCH  14  18
ATOM     18  O   LIG A   1      -9.498  -0.780 125.729  0.00  0.00    -0.491 OA
ATOM     19  C   LIG A   1      -9.706   0.619 125.713  0.00  0.00    +0.277 C 
ENDBRANCH  14  18
BRANCH  15  20
ATOM     20  O   LIG A   1      -8.027  -1.288 123.402  0.00  0.00    -0.488 OA
ATOM     21  C   LIG A   1      -8.707  -2.356 122.758  0.00  0.00    +0.277 C 
ENDBRANCH  15  20
BRANCH  16  22
ATOM     22  O   LIG A   1      -5.327  -2.242 123.701  0.00  0.00    -0.491 OA
ATOM     23  C   LIG A   1      -4.774  -3.550 123.597  0.00  0.00    +0.277 C 
ENDBRANCH  16  22
ENDBRANCH   4  12
BRANCH   8  24
ATOM     24  O   LIG A   1      -8.219  -1.462 131.643  0.00  0.00    -0.488 OA
ATOM     25  C   LIG A   1      -8.410  -0.049 131.736  0.00  0.00    +0.277 C 
ENDBRANCH   8  24
BRANCH   9  26
ATOM     26  O   LIG A   1      -7.365  -1.969 134.338  0.00  0.00    -0.491 OA
ATOM     27  C   LIG A   1      -8.095  -3.117 134.763  0.00  0.00    +0.277 C 
ENDBRANCH   9  26
BRANCH  11  28
ATOM     28  O   LIG A   1      -3.131  -3.486 132.661  0.00  0.00    -0.494 OA
ATOM     29  C   LIG A   1      -3.086  -4.696 133.413  0.00  0.00    +0.277 C 
ENDBRANCH  11  28
TORSDOF 7
ENDMDL
MODEL 4
REMARK VINA RESULT:      -6.3      3.438      4.980
REMARK  Name = NuBBE_1309
REMARK  13 active torsions:
REMARK  status: ('A' for Active; 'I' for Inactive)
REMARK    1  A    between atoms: C_4  and  C_5
REMARK    2  A    between atoms: C_7  and  O_8
REMARK    3  A    between atoms: O_8  and  C_9
REMARK    4  A    between atoms: C_10  and  O_11
REMARK    5  A    between atoms: O_11  and  C_12
REMARK    6  A    between atoms: C_13  and  O_14
REMARK    7  A    between atoms: O_14  and  C_15
REMARK    8  A    between atoms: C_20  and  O_21
REMARK    9  A    between atoms: O_21  and  C_22
REMARK   10  A    between atoms: C_23  and  O_24
REMARK   11  A    between atoms: O_24  and  C_25
REMARK   12  A    between atoms: C_27  and  O_28
REMARK   13  A    between atoms: O_28  and  C_29
REMARK                            x       y       z     vdW  Elec       q    Type
REMARK                         _______ _______ _______ _____ _____    ______ ____
ROOT
ATOM      1  O   LIG A   1      -5.008   4.905 122.763  0.00  0.00    -0.287 OA
ATOM      2  C   LIG A   1      -5.668   4.442 123.658  0.00  0.00    +0.197 A 
ATOM      3  C   LIG A   1      -5.268   4.720 125.050  0.00  0.00    +0.098 A 
ATOM      4  C   LIG A   1      -5.952   4.184 126.058  0.00  0.00    +0.140 A 
ATOM      5  O   LIG A   1      -7.103   3.419 125.895  0.00  0.00    -0.451 OA
ATOM      6  C   LIG A   1      -6.865   3.584 123.473  0.00  0.00    +0.109 A 
ATOM      7  C   LIG A   1      -7.538   3.123 124.609  0.00  0.00    +0.188 A 
ATOM      8  C   LIG A   1      -8.702   2.326 124.484  0.00  0.00    +0.205 A 
ATOM      9  C   LIG A   1      -9.179   2.030 123.195  0.00  0.00    +0.169 A 
ATOM     10  C   LIG A   1      -8.488   2.495 122.074  0.00  0.00    +0.096 A 
ATOM     11  C   LIG A   1      -7.314   3.243 122.195  0.00  0.00    +0.138 A 
ENDROOT
BRANCH   4  12
ATOM     12  C   LIG A   1      -5.536   4.419 127.460  0.00  0.00    +0.025 A 
ATOM     13  C   LIG A   1      -4.326   5.062 127.725  0.00  0.00    +0.061 A 
ATOM     14  C   LIG A   1      -3.908   5.329 129.034  0.00  0.00    +0.166 A 
ATOM     15  C   LIG A   1      -4.707   4.937 130.129  0.00  0.00    +0.203 A 
ATOM     16  C   LIG A   1      -5.929   4.283 129.879  0.00  0.00    +0.166 A 
ATOM     17  C   LIG A   1      -6.332   4.043 128.553  0.00  0.00    +0.061 A 
BRANCH  14  18
ATOM     18  O   LIG A   1      -2.723   5.947 129.317  0.00  0.00    -0.491 OA
ATOM     19  C   LIG A   1      -2.150   6.827 128.370  0.00  0.00    +0.277 C 
ENDBRANCH  14  18
BRANCH  15  20
ATOM     20  O   LIG A   1      -4.335   5.093 131.441  0.00  0.00    -0.488 OA
ATOM     21  C   LIG A   1      -4.642   6.312 132.104  0.00  0.00    +0.277 C 
ENDBRANCH  15  20
BRANCH  16  22
ATOM     22  O   LIG A   1      -6.863   3.874 130.803  0.00  0.00    -0.491 OA
ATOM     23  C   LIG A   1      -7.905   4.790 131.123  0.00  0.00    +0.277 C 
ENDBRANCH  16  22
ENDBRANCH   4  12
BRANCH   8  24
ATOM     24  O   LIG A   1      -9.316   1.935 125.654  0.00  0.00    -0.488 OA
ATOM     25  C   LIG A   1      -9.059   0.600 126.095  0.00  0.00    +0.277 C 
ENDBRANCH   8  24
BRANCH   9  26
ATOM     26  O   LIG A   1     -10.378   1.381 123.042  0.00  0.00    -0.491 OA
ATOM     27  C   LIG A   1     -10.319   0.085 122.454  0.00  0.00    +0.277 C 
ENDBRANCH   9  26
BRANCH  11  28
ATOM     28  O   LIG A   1      -6.674   3.729 121.090  0.00  0.00    -0.494 OA
ATOM     29  C   LIG A   1      -7.495   4.103 119.987  0.00  0.00    +0.277 C 
ENDBRANCH  11  28
TORSDOF 7
ENDMDL
MODEL 5
REMARK VINA RESULT:      -6.3      2.674      7.705
REMARK  Name = NuBBE_1309
REMARK  13 active torsions:
REMARK  status: ('A' for Active; 'I' for Inactive)
REMARK    1  A    between atoms: C_4  and  C_5
REMARK    2  A    between atoms: C_7  and  O_8
REMARK    3  A    between atoms: O_8  and  C_9
REMARK    4  A    between atoms: C_10  and  O_11
REMARK    5  A    between atoms: O_11  and  C_12
REMARK    6  A    between atoms: C_13  and  O_14
REMARK    7  A    between atoms: O_14  and  C_15
REMARK    8  A    between atoms: C_20  and  O_21
REMARK    9  A    between atoms: O_21  and  C_22
REMARK   10  A    between atoms: C_23  and  O_24
REMARK   11  A    between atoms: O_24  and  C_25
REMARK   12  A    between atoms: C_27  and  O_28
REMARK   13  A    between atoms: O_28  and  C_29
REMARK                            x       y       z     vdW  Elec       q    Type
REMARK                         _______ _______ _______ _____ _____    ______ ____
ROOT
ATOM      1  O   LIG A   1      -4.607   3.371 129.503  0.00  0.00    -0.287 OA
ATOM      2  C   LIG A   1      -5.791   3.291 129.295  0.00  0.00    +0.197 A 
ATOM      3  C   LIG A   1      -6.291   2.172 128.476  0.00  0.00    +0.098 A 
ATOM      4  C   LIG A   1      -7.588   2.084 128.192  0.00  0.00    +0.140 A 
ATOM      5  O   LIG A   1      -8.554   2.953 128.692  0.00  0.00    -0.451 OA
ATOM      6  C   LIG A   1      -6.806   4.254 129.790  0.00  0.00    +0.109 A 
ATOM      7  C   LIG A   1      -8.149   4.029 129.474  0.00  0.00    +0.188 A 
ATOM      8  C   LIG A   1      -9.159   4.903 129.948  0.00  0.00    +0.205 A 
ATOM      9  C   LIG A   1      -8.783   5.985 130.762  0.00  0.00    +0.169 A 
ATOM     10  C   LIG A   1      -7.434   6.196 131.059  0.00  0.00    +0.096 A 
ATOM     11  C   LIG A   1      -6.434   5.361 130.556  0.00  0.00    +0.138 A 
ENDROOT
BRANCH   4  12
ATOM     12  C   LIG A   1      -8.100   0.989 127.335  0.00  0.00    +0.025 A 
ATOM     13  C   LIG A   1      -8.931   1.287 126.254  0.00  0.00    +0.061 A 
ATOM     14  C   LIG A   1      -9.414   0.287 125.402  0.00  0.00    +0.166 A 
ATOM     15  C   LIG A   1      -9.075  -1.064 125.629  0.00  0.00    +0.203 A 
ATOM     16  C   LIG A   1      -8.241  -1.383 126.719  0.00  0.00    +0.166 A 
ATOM     17  C   LIG A   1      -7.757  -0.355 127.548  0.00  0.00    +0.061 A 
BRANCH  14  18
ATOM     18  O   LIG A   1     -10.237   0.553 124.345  0.00  0.00    -0.491 OA
ATOM     19  C   LIG A   1      -9.796   1.419 123.317  0.00  0.00    +0.277 C 
ENDBRANCH  14  18
BRANCH  15  20
ATOM     20  O   LIG A   1      -9.568  -2.110 124.889  0.00  0.00    -0.488 OA
ATOM     21  C   LIG A   1      -8.844  -2.545 123.746  0.00  0.00    +0.277 C 
ENDBRANCH  15  20
BRANCH  16  22
ATOM     22  O   LIG A   1      -7.761  -2.623 127.071  0.00  0.00    -0.491 OA
ATOM     23  C   LIG A   1      -8.265  -3.197 128.272  0.00  0.00    +0.277 C 
ENDBRANCH  16  22
ENDBRANCH   4  12
BRANCH   8  24
ATOM     24  O   LIG A   1     -10.458   4.593 129.610  0.00  0.00    -0.488 OA
ATOM     25  C   LIG A   1     -11.118   3.627 130.431  0.00  0.00    +0.277 C 
ENDBRANCH   8  24
BRANCH   9  26
ATOM     26  O   LIG A   1      -9.746   6.765 131.350  0.00  0.00    -0.491 OA
ATOM     27  C   LIG A   1     -10.283   6.281 132.578  0.00  0.00    +0.277 C 
ENDBRANCH   9  26
BRANCH  11  28
ATOM     28  O   LIG A   1      -5.123   5.554 130.892  0.00  0.00    -0.494 OA
ATOM     29  C   LIG A   1      -4.856   6.539 131.887  0.00  0.00    +0.277 C 
ENDBRANCH  11  28
TORSDOF 7
ENDMDL
MODEL 6
REMARK VINA RESULT:      -6.3      3.394      4.910
REMARK  Name = NuBBE_1309
REMARK  13 active torsions:
REMARK  status: ('A' for Active; 'I' for Inactive)
REMARK    1  A    between atoms: C_4  and  C_5
REMARK    2  A    between atoms: C_7  and  O_8
REMARK    3  A    between atoms: O_8  and  C_9
REMARK    4  A    between atoms: C_10  and  O_11
REMARK    5  A    between atoms: O_11  and  C_12
REMARK    6  A    between atoms: C_13  and  O_14
REMARK    7  A    between atoms: O_14  and  C_15
REMARK    8  A    between atoms: C_20  and  O_21
REMARK    9  A    between atoms: O_21  and  C_22
REMARK   10  A    between atoms: C_23  and  O_24
REMARK   11  A    between atoms: O_24  and  C_25
REMARK   12  A    between atoms: C_27  and  O_28
REMARK   13  A    between atoms: O_28  and  C_29
REMARK                            x       y       z     vdW  Elec       q    Type
REMARK                         _______ _______ _______ _____ _____    ______ ____
ROOT
ATOM      1  O   LIG A   1      -5.085   4.921 122.989  0.00  0.00    -0.287 OA
ATOM      2  C   LIG A   1      -5.734   4.414 123.868  0.00  0.00    +0.197 A 
ATOM      3  C   LIG A   1      -5.328   4.640 125.268  0.00  0.00    +0.098 A 
ATOM      4  C   LIG A   1      -5.998   4.054 126.257  0.00  0.00    +0.140 A 
ATOM      5  O   LIG A   1      -7.142   3.283 126.071  0.00  0.00    -0.451 OA
ATOM      6  C   LIG A   1      -6.922   3.550 123.656  0.00  0.00    +0.109 A 
ATOM      7  C   LIG A   1      -7.581   3.035 124.776  0.00  0.00    +0.188 A 
ATOM      8  C   LIG A   1      -8.737   2.229 124.626  0.00  0.00    +0.205 A 
ATOM      9  C   LIG A   1      -9.220   1.981 123.329  0.00  0.00    +0.169 A 
ATOM     10  C   LIG A   1      -8.541   2.499 122.224  0.00  0.00    +0.096 A 
ATOM     11  C   LIG A   1      -7.376   3.256 122.368  0.00  0.00    +0.138 A 
ENDROOT
BRANCH   4  12
ATOM     12  C   LIG A   1      -5.576   4.237 127.665  0.00  0.00    +0.025 A 
ATOM     13  C   LIG A   1      -6.467   3.944 128.698  0.00  0.00    +0.061 A 
ATOM     14  C   LIG A   1      -6.100   4.076 130.043  0.00  0.00    +0.166 A 
ATOM     15  C   LIG A   1      -4.807   4.524 130.386  0.00  0.00    +0.203 A 
ATOM     16  C   LIG A   1      -3.897   4.829 129.355  0.00  0.00    +0.166 A 
ATOM     17  C   LIG A   1      -4.287   4.671 128.013  0.00  0.00    +0.061 A 
BRANCH  14  18
ATOM     18  O   LIG A   1      -6.959   3.806 131.071  0.00  0.00    -0.491 OA
ATOM     19  C   LIG A   1      -8.061   4.661 131.303  0.00  0.00    +0.277 C 
ENDBRANCH  14  18
BRANCH  15  20
ATOM     20  O   LIG A   1      -4.394   4.753 131.676  0.00  0.00    -0.488 OA
ATOM     21  C   LIG A   1      -4.561   6.049 132.232  0.00  0.00    +0.277 C 
ENDBRANCH  15  20
BRANCH  16  22
ATOM     22  O   LIG A   1      -2.586   5.227 129.486  0.00  0.00    -0.491 OA
ATOM     23  C   LIG A   1      -2.200   6.420 128.813  0.00  0.00    +0.277 C 
ENDBRANCH  16  22
ENDBRANCH   4  12
BRANCH   8  24
ATOM     24  O   LIG A   1      -9.338   1.783 125.782  0.00  0.00    -0.488 OA
ATOM     25  C   LIG A   1      -9.075   0.430 126.159  0.00  0.00    +0.277 C 
ENDBRANCH   8  24
BRANCH   9  26
ATOM     26  O   LIG A   1     -10.411   1.324 123.157  0.00  0.00    -0.491 OA
ATOM     27  C   LIG A   1     -10.343   0.060 122.504  0.00  0.00    +0.277 C 
ENDBRANCH   9  26
BRANCH  11  28
ATOM     28  O   LIG A   1      -6.749   3.795 121.279  0.00  0.00    -0.494 OA
ATOM     29  C   LIG A   1      -7.558   4.042 120.132  0.00  0.00    +0.277 C 
ENDBRANCH  11  28
TORSDOF 7
ENDMDL
MODEL 7
REMARK VINA RESULT:      -6.3      3.452      8.887
REMARK  Name = NuBBE_1309
REMARK  13 active torsions:
REMARK  status: ('A' for Active; 'I' for Inactive)
REMARK    1  A    between atoms: C_4  and  C_5
REMARK    2  A    between atoms: C_7  and  O_8
REMARK    3  A    between atoms: O_8  and  C_9
REMARK    4  A    between atoms: C_10  and  O_11
REMARK    5  A    between atoms: O_11  and  C_12
REMARK    6  A    between atoms: C_13  and  O_14
REMARK    7  A    between atoms: O_14  and  C_15
REMARK    8  A    between atoms: C_20  and  O_21
REMARK    9  A    between atoms: O_21  and  C_22
REMARK   10  A    between atoms: C_23  and  O_24
REMARK   11  A    between atoms: O_24  and  C_25
REMARK   12  A    between atoms: C_27  and  O_28
REMARK   13  A    between atoms: O_28  and  C_29
REMARK                            x       y       z     vdW  Elec       q    Type
REMARK                         _______ _______ _______ _____ _____    ______ ____
ROOT
ATOM      1  O   LIG A   1      -2.932  -3.547 129.862  0.00  0.00    -0.287 OA
ATOM      2  C   LIG A   1      -4.047  -3.096 129.796  0.00  0.00    +0.197 A 
ATOM      3  C   LIG A   1      -4.633  -2.853 128.465  0.00  0.00    +0.098 A 
ATOM      4  C   LIG A   1      -5.845  -2.313 128.361  0.00  0.00    +0.140 A 
ATOM      5  O   LIG A   1      -6.663  -2.024 129.450  0.00  0.00    -0.451 OA
ATOM      6  C   LIG A   1      -4.890  -2.743 130.964  0.00  0.00    +0.109 A 
ATOM      7  C   LIG A   1      -6.172  -2.234 130.734  0.00  0.00    +0.188 A 
ATOM      8  C   LIG A   1      -7.026  -1.909 131.817  0.00  0.00    +0.205 A 
ATOM      9  C   LIG A   1      -6.567  -2.134 133.126  0.00  0.00    +0.169 A 
ATOM     10  C   LIG A   1      -5.280  -2.637 133.334  0.00  0.00    +0.096 A 
ATOM     11  C   LIG A   1      -4.420  -2.914 132.269  0.00  0.00    +0.138 A 
ENDROOT
BRANCH   4  12
ATOM     12  C   LIG A   1      -6.430  -2.022 127.032  0.00  0.00    +0.025 A 
ATOM     13  C   LIG A   1      -5.714  -2.340 125.877  0.00  0.00    +0.061 A 
ATOM     14  C   LIG A   1      -6.240  -2.108 124.600  0.00  0.00    +0.166 A 
ATOM     15  C   LIG A   1      -7.519  -1.529 124.453  0.00  0.00    +0.203 A 
ATOM     16  C   LIG A   1      -8.252  -1.198 125.608  0.00  0.00    +0.166 A 
ATOM     17  C   LIG A   1      -7.706  -1.458 126.879  0.00  0.00    +0.061 A 
BRANCH  14  18
ATOM     18  O   LIG A   1      -5.553  -2.400 123.455  0.00  0.00    -0.491 OA
ATOM     19  C   LIG A   1      -4.548  -3.396 123.479  0.00  0.00    +0.277 C 
ENDBRANCH  14  18
BRANCH  15  20
ATOM     20  O   LIG A   1      -8.074  -1.200 123.241  0.00  0.00    -0.488 OA
ATOM     21  C   LIG A   1      -8.956  -2.121 122.615  0.00  0.00    +0.277 C 
ENDBRANCH  15  20
BRANCH  16  22
ATOM     22  O   LIG A   1      -9.525  -0.679 125.672  0.00  0.00    -0.491 OA
ATOM     23  C   LIG A   1      -9.646   0.738 125.733  0.00  0.00    +0.277 C 
ENDBRANCH  16  22
ENDBRANCH   4  12
BRANCH   8  24
ATOM     24  O   LIG A   1      -8.281  -1.437 131.498  0.00  0.00    -0.488 OA
ATOM     25  C   LIG A   1      -8.486  -0.029 131.634  0.00  0.00    +0.277 C 
ENDBRANCH   8  24
BRANCH   9  26
ATOM     26  O   LIG A   1      -7.417  -1.963 134.188  0.00  0.00    -0.491 OA
ATOM     27  C   LIG A   1      -8.151  -3.114 134.596  0.00  0.00    +0.277 C 
ENDBRANCH   9  26
BRANCH  11  28
ATOM     28  O   LIG A   1      -3.181  -3.448 132.487  0.00  0.00    -0.494 OA
ATOM     29  C   LIG A   1      -3.039  -4.291 133.627  0.00  0.00    +0.277 C 
ENDBRANCH  11  28
TORSDOF 7
ENDMDL
MODEL 8
REMARK VINA RESULT:      -6.3      2.256      3.287
REMARK  Name = NuBBE_1309
REMARK  13 active torsions:
REMARK  status: ('A' for Active; 'I' for Inactive)
REMARK    1  A    between atoms: C_4  and  C_5
REMARK    2  A    between atoms: C_7  and  O_8
REMARK    3  A    between atoms: O_8  and  C_9
REMARK    4  A    between atoms: C_10  and  O_11
REMARK    5  A    between atoms: O_11  and  C_12
REMARK    6  A    between atoms: C_13  and  O_14
REMARK    7  A    between atoms: O_14  and  C_15
REMARK    8  A    between atoms: C_20  and  O_21
REMARK    9  A    between atoms: O_21  and  C_22
REMARK   10  A    between atoms: C_23  and  O_24
REMARK   11  A    between atoms: O_24  and  C_25
REMARK   12  A    between atoms: C_27  and  O_28
REMARK   13  A    between atoms: O_28  and  C_29
REMARK                            x       y       z     vdW  Elec       q    Type
REMARK                         _______ _______ _______ _____ _____    ______ ____
ROOT
ATOM      1  O   LIG A   1      -8.140  -3.595 125.767  0.00  0.00    -0.287 OA
ATOM      2  C   LIG A   1      -8.174  -2.560 126.383  0.00  0.00    +0.197 A 
ATOM      3  C   LIG A   1      -7.916  -2.592 127.835  0.00  0.00    +0.098 A 
ATOM      4  C   LIG A   1      -7.992  -1.471 128.548  0.00  0.00    +0.140 A 
ATOM      5  O   LIG A   1      -8.227  -0.214 127.998  0.00  0.00    -0.451 OA
ATOM      6  C   LIG A   1      -8.477  -1.232 125.795  0.00  0.00    +0.109 A 
ATOM      7  C   LIG A   1      -8.475  -0.114 126.634  0.00  0.00    +0.188 A 
ATOM      8  C   LIG A   1      -8.729   1.180 126.114  0.00  0.00    +0.205 A 
ATOM      9  C   LIG A   1      -8.959   1.316 124.734  0.00  0.00    +0.169 A 
ATOM     10  C   LIG A   1      -8.964   0.185 123.915  0.00  0.00    +0.096 A 
ATOM     11  C   LIG A   1      -8.758  -1.096 124.433  0.00  0.00    +0.138 A 
ENDROOT
BRANCH   4  12
ATOM     12  C   LIG A   1      -7.777  -1.495 130.014  0.00  0.00    +0.025 A 
ATOM     13  C   LIG A   1      -7.274  -2.646 130.621  0.00  0.00    +0.061 A 
ATOM     14  C   LIG A   1      -7.030  -2.702 131.999  0.00  0.00    +0.166 A 
ATOM     15  C   LIG A   1      -7.303  -1.583 132.814  0.00  0.00    +0.203 A 
ATOM     16  C   LIG A   1      -7.816  -0.416 132.218  0.00  0.00    +0.166 A 
ATOM     17  C   LIG A   1      -8.036  -0.382 130.829  0.00  0.00    +0.061 A 
BRANCH  14  18
ATOM     18  O   LIG A   1      -6.547  -3.821 132.617  0.00  0.00    -0.491 OA
ATOM     19  C   LIG A   1      -5.264  -4.309 132.275  0.00  0.00    +0.277 C 
ENDBRANCH  14  18
BRANCH  15  20
ATOM     20  O   LIG A   1      -7.164  -1.582 134.181  0.00  0.00    -0.488 OA
ATOM     21  C   LIG A   1      -5.927  -1.171 134.746  0.00  0.00    +0.277 C 
ENDBRANCH  15  20
BRANCH  16  22
ATOM     22  O   LIG A   1      -8.095   0.784 132.831  0.00  0.00    -0.491 OA
ATOM     23  C   LIG A   1      -9.130   1.579 132.262  0.00  0.00    +0.277 C 
ENDBRANCH  16  22
ENDBRANCH   4  12
BRANCH   8  24
ATOM     24  O   LIG A   1      -8.683   2.228 127.007  0.00  0.00    -0.488 OA
ATOM     25  C   LIG A   1      -7.450   2.947 127.084  0.00  0.00    +0.277 C 
ENDBRANCH   8  24
BRANCH   9  26
ATOM     26  O   LIG A   1      -9.069   2.566 124.180  0.00  0.00    -0.491 OA
ATOM     27  C   LIG A   1      -8.832   2.654 122.778  0.00  0.00    +0.277 C 
ENDBRANCH   9  26
BRANCH  11  28
ATOM     28  O   LIG A   1      -8.721  -2.188 123.612  0.00  0.00    -0.494 OA
ATOM     29  C   LIG A   1      -7.860  -2.108 122.480  0.00  0.00    +0.277 C 
ENDBRANCH  11  28
TORSDOF 7
ENDMDL
MODEL 9
REMARK VINA RESULT:      -6.2      3.275      7.462
REMARK  Name = NuBBE_1309
REMARK  13 active torsions:
REMARK  status: ('A' for Active; 'I' for Inactive)
REMARK    1  A    between atoms: C_4  and  C_5
REMARK    2  A    between atoms: C_7  and  O_8
REMARK    3  A    between atoms: O_8  and  C_9
REMARK    4  A    between atoms: C_10  and  O_11
REMARK    5  A    between atoms: O_11  and  C_12
REMARK    6  A    between atoms: C_13  and  O_14
REMARK    7  A    between atoms: O_14  and  C_15
REMARK    8  A    between atoms: C_20  and  O_21
REMARK    9  A    between atoms: O_21  and  C_22
REMARK   10  A    between atoms: C_23  and  O_24
REMARK   11  A    between atoms: O_24  and  C_25
REMARK   12  A    between atoms: C_27  and  O_28
REMARK   13  A    between atoms: O_28  and  C_29
REMARK                            x       y       z     vdW  Elec       q    Type
REMARK                         _______ _______ _______ _____ _____    ______ ____
ROOT
ATOM      1  O   LIG A   1      -8.385   3.528 130.963  0.00  0.00    -0.287 OA
ATOM      2  C   LIG A   1      -7.807   3.267 129.939  0.00  0.00    +0.197 A 
ATOM      3  C   LIG A   1      -8.315   2.165 129.101  0.00  0.00    +0.098 A 
ATOM      4  C   LIG A   1      -7.669   1.825 127.988  0.00  0.00    +0.140 A 
ATOM      5  O   LIG A   1      -6.560   2.505 127.494  0.00  0.00    -0.451 OA
ATOM      6  C   LIG A   1      -6.593   3.965 129.448  0.00  0.00    +0.109 A 
ATOM      7  C   LIG A   1      -6.033   3.557 128.234  0.00  0.00    +0.188 A 
ATOM      8  C   LIG A   1      -4.891   4.212 127.709  0.00  0.00    +0.205 A 
ATOM      9  C   LIG A   1      -4.350   5.296 128.423  0.00  0.00    +0.169 A 
ATOM     10  C   LIG A   1      -4.921   5.682 129.637  0.00  0.00    +0.096 A 
ATOM     11  C   LIG A   1      -6.019   5.009 130.178  0.00  0.00    +0.138 A 
ENDROOT
BRANCH   4  12
ATOM     12  C   LIG A   1      -8.142   0.692 127.159  0.00  0.00    +0.025 A 
ATOM     13  C   LIG A   1      -8.905   0.941 126.017  0.00  0.00    +0.061 A 
ATOM     14  C   LIG A   1      -9.349  -0.098 125.190  0.00  0.00    +0.166 A 
ATOM     15  C   LIG A   1      -9.040  -1.438 125.505  0.00  0.00    +0.203 A 
ATOM     16  C   LIG A   1      -8.275  -1.707 126.656  0.00  0.00    +0.166 A 
ATOM     17  C   LIG A   1      -7.828  -0.642 127.460  0.00  0.00    +0.061 A 
BRANCH  14  18
ATOM     18  O   LIG A   1     -10.106   0.121 124.074  0.00  0.00    -0.491 OA
ATOM     19  C   LIG A   1      -9.922   1.308 123.327  0.00  0.00    +0.277 C 
ENDBRANCH  14  18
BRANCH  15  20
ATOM     20  O   LIG A   1      -9.500  -2.517 124.790  0.00  0.00    -0.488 OA
ATOM     21  C   LIG A   1      -8.708  -3.025 123.725  0.00  0.00    +0.277 C 
ENDBRANCH  15  20
BRANCH  16  22
ATOM     22  O   LIG A   1      -7.831  -2.932 127.099  0.00  0.00    -0.491 OA
ATOM     23  C   LIG A   1      -8.647  -3.616 128.043  0.00  0.00    +0.277 C 
ENDBRANCH  16  22
ENDBRANCH   4  12
BRANCH   8  24
ATOM     24  O   LIG A   1      -4.419   3.761 126.496  0.00  0.00    -0.488 OA
ATOM     25  C   LIG A   1      -3.271   2.912 126.532  0.00  0.00    +0.277 C 
ENDBRANCH   8  24
BRANCH   9  26
ATOM     26  O   LIG A   1      -3.335   6.037 127.874  0.00  0.00    -0.491 OA
ATOM     27  C   LIG A   1      -2.205   6.270 128.711  0.00  0.00    +0.277 C 
ENDBRANCH   9  26
BRANCH  11  28
ATOM     28  O   LIG A   1      -6.595   5.428 131.345  0.00  0.00    -0.494 OA
ATOM     29  C   LIG A   1      -7.127   6.750 131.358  0.00  0.00    +0.277 C 
ENDBRANCH  11  28
TORSDOF 7
ENDMDL
