MODEL 1
REMARK VINA RESULT:     -11.0      0.000      0.000
REMARK  Name = NuBBE_470
REMARK  7 active torsions:
REMARK  status: ('A' for Active; 'I' for Inactive)
REMARK    1  A    between atoms: C_3  and  O_5
REMARK    2  A    between atoms: C_11  and  C_13
REMARK    3  A    between atoms: C_15  and  C_16
REMARK    4  A    between atoms: C_17  and  O_19
REMARK    5  A    between atoms: C_25  and  C_27
REMARK    6  A    between atoms: C_34  and  C_35
REMARK    7  A    between atoms: C_35  and  C_36
REMARK                            x       y       z     vdW  Elec       q    Type
REMARK                         _______ _______ _______ _____ _____    ______ ____
ROOT
ATOM      1  C   LIG A   1      -4.129   4.272 128.353  0.00  0.00    +0.010 C 
ATOM      2  C   LIG A   1      -5.225   3.490 128.420  0.00  0.00    -0.045 C 
ATOM      3  C   LIG A   1      -5.173   1.963 128.560  0.00  0.00    +0.149 C 
ATOM      4  C   LIG A   1      -6.090   1.405 129.719  0.00  0.00    +0.067 C 
ATOM      5  C   LIG A   1      -5.712  -0.007 130.150  0.00  0.00    -0.023 C 
ATOM      6  C   LIG A   1      -6.246  -1.234 130.220  0.00  0.00    -0.030 C 
ATOM      7  C   LIG A   1      -7.540  -1.836 129.763  0.00  0.00    +0.034 C 
ATOM      8  C   LIG A   1      -7.303  -3.023 128.782  0.00  0.00    +0.012 C 
ATOM      9  C   LIG A   1      -8.634  -3.679 128.420  0.00  0.00    +0.012 C 
ATOM     10  C   LIG A   1      -6.365  -2.651 127.639  0.00  0.00    -0.022 C 
ATOM     11  C   LIG A   1      -6.541  -2.319 126.340  0.00  0.00    -0.041 C 
ATOM     12  C   LIG A   1      -5.324  -1.952 125.513  0.00  0.00    +0.042 C 
ATOM     13  C   LIG A   1      -7.847  -2.233 125.594  0.00  0.00    +0.210 C 
ATOM     14  C   LIG A   1      -8.253  -0.797 125.188  0.00  0.00    +0.189 C 
ATOM     15  O   LIG A   1      -8.458  -0.517 124.002  0.00  0.00    -0.289 OA
ATOM     16  C   LIG A   1      -7.539   1.933 129.530  0.00  0.00    +0.122 C 
ATOM     17  C   LIG A   1      -7.379   3.500 129.611  0.00  0.00    +0.040 C 
ATOM     18  C   LIG A   1      -6.606   4.150 128.461  0.00  0.00    +0.020 C 
ATOM     19  C   LIG A   1      -7.267   4.166 127.087  0.00  0.00    +0.013 C 
ATOM     20  C   LIG A   1      -8.343   1.528 128.266  0.00  0.00    +0.172 C 
ATOM     21  C   LIG A   1      -7.874   0.467 127.331  0.00  0.00    +0.051 C 
ATOM     22  C   LIG A   1      -8.575   0.230 126.212  0.00  0.00    +0.052 C 
ATOM     23  O   LIG A   1      -9.408   2.089 127.989  0.00  0.00    -0.291 OA
ATOM     24  C   LIG A   1      -8.471   1.756 130.728  0.00  0.00    +0.228 C 
ATOM     25  N   LIG A   1      -9.078   2.972 131.015  0.00  0.00    -0.311 N 
ATOM     26  C   LIG A   1      -8.733   4.028 130.080  0.00  0.00    +0.082 C 
ATOM     27  O   LIG A   1      -8.737   0.712 131.303  0.00  0.00    -0.275 OA
ATOM     28  H   LIG A   1      -9.881   3.005 131.633  0.00  0.00    +0.149 HD
ENDROOT
BRANCH   3  29
ATOM     29  O   LIG A   1      -3.824   1.550 128.784  0.00  0.00    -0.387 OA
ATOM     30  H   LIG A   1      -3.559   1.021 128.012  0.00  0.00    +0.210 HD
ENDBRANCH   3  29
BRANCH  13  31
ATOM     31  O   LIG A   1      -7.721  -3.051 124.426  0.00  0.00    -0.380 OA
ATOM     32  H   LIG A   1      -6.886  -2.778 123.997  0.00  0.00    +0.211 HD
ENDBRANCH  13  31
BRANCH  26  33
ATOM     33  C   LIG A   1      -8.618   5.415 130.737  0.00  0.00    +0.059 C 
BRANCH  33  34
ATOM     34  C   LIG A   1      -9.928   6.118 130.922  0.00  0.00    -0.021 A 
ATOM     35  C   LIG A   1     -10.733   6.047 132.043  0.00  0.00    +0.087 A 
ATOM     36  N   LIG A   1     -11.817   6.857 131.849  0.00  0.00    -0.360 N 
ATOM     37  C   LIG A   1     -11.734   7.475 130.623  0.00  0.00    +0.047 A 
ATOM     38  C   LIG A   1     -12.599   8.397 130.022  0.00  0.00    +0.026 A 
ATOM     39  C   LIG A   1     -12.257   8.874 128.754  0.00  0.00    +0.002 A 
ATOM     40  C   LIG A   1     -11.098   8.442 128.115  0.00  0.00    +0.001 A 
ATOM     41  C   LIG A   1     -10.243   7.518 128.731  0.00  0.00    +0.010 A 
ATOM     42  C   LIG A   1     -10.562   7.024 130.013  0.00  0.00    +0.003 A 
ATOM     43  H   LIG A   1     -12.565   7.000 132.512  0.00  0.00    +0.165 HD
ENDBRANCH  33  34
ENDBRANCH  26  33
TORSDOF 4
ENDMDL
MODEL 2
REMARK VINA RESULT:     -10.7      3.735      8.359
REMARK  Name = NuBBE_470
REMARK  7 active torsions:
REMARK  status: ('A' for Active; 'I' for Inactive)
REMARK    1  A    between atoms: C_3  and  O_5
REMARK    2  A    between atoms: C_11  and  C_13
REMARK    3  A    between atoms: C_15  and  C_16
REMARK    4  A    between atoms: C_17  and  O_19
REMARK    5  A    between atoms: C_25  and  C_27
REMARK    6  A    between atoms: C_34  and  C_35
REMARK    7  A    between atoms: C_35  and  C_36
REMARK                            x       y       z     vdW  Elec       q    Type
REMARK                         _______ _______ _______ _____ _____    ______ ____
ROOT
ATOM      1  C   LIG A   1      -6.919  -0.922 128.636  0.00  0.00    +0.010 C 
ATOM      2  C   LIG A   1      -6.788   0.390 128.356  0.00  0.00    -0.045 C 
ATOM      3  C   LIG A   1      -5.488   1.178 128.564  0.00  0.00    +0.149 C 
ATOM      4  C   LIG A   1      -5.055   2.023 127.302  0.00  0.00    +0.067 C 
ATOM      5  C   LIG A   1      -3.587   2.432 127.333  0.00  0.00    -0.023 C 
ATOM      6  C   LIG A   1      -2.831   3.538 127.338  0.00  0.00    -0.030 C 
ATOM      7  C   LIG A   1      -3.130   5.004 127.432  0.00  0.00    +0.034 C 
ATOM      8  C   LIG A   1      -2.422   5.654 128.658  0.00  0.00    +0.012 C 
ATOM      9  C   LIG A   1      -2.660   7.163 128.663  0.00  0.00    +0.012 C 
ATOM     10  C   LIG A   1      -2.690   4.893 129.952  0.00  0.00    -0.022 C 
ATOM     11  C   LIG A   1      -3.511   5.083 131.009  0.00  0.00    -0.041 C 
ATOM     12  C   LIG A   1      -3.528   4.042 132.112  0.00  0.00    +0.042 C 
ATOM     13  C   LIG A   1      -4.472   6.225 131.219  0.00  0.00    +0.210 C 
ATOM     14  C   LIG A   1      -5.963   5.821 131.150  0.00  0.00    +0.189 C 
ATOM     15  O   LIG A   1      -6.716   6.044 132.104  0.00  0.00    -0.289 OA
ATOM     16  C   LIG A   1      -6.235   2.934 126.861  0.00  0.00    +0.122 C 
ATOM     17  C   LIG A   1      -7.386   1.911 126.516  0.00  0.00    +0.040 C 
ATOM     18  C   LIG A   1      -7.958   1.129 127.700  0.00  0.00    +0.020 C 
ATOM     19  C   LIG A   1      -8.783   1.901 128.723  0.00  0.00    +0.013 C 
ATOM     20  C   LIG A   1      -6.751   4.037 127.821  0.00  0.00    +0.172 C 
ATOM     21  C   LIG A   1      -6.018   4.421 129.059  0.00  0.00    +0.051 C 
ATOM     22  C   LIG A   1      -6.567   5.321 129.887  0.00  0.00    +0.052 C 
ATOM     23  O   LIG A   1      -7.807   4.634 127.587  0.00  0.00    -0.291 OA
ATOM     24  C   LIG A   1      -6.101   3.570 125.478  0.00  0.00    +0.228 C 
ATOM     25  N   LIG A   1      -7.259   3.328 124.751  0.00  0.00    -0.311 N 
ATOM     26  C   LIG A   1      -8.282   2.625 125.506  0.00  0.00    +0.082 C 
ATOM     27  O   LIG A   1      -5.181   4.266 125.077  0.00  0.00    -0.275 OA
ATOM     28  H   LIG A   1      -7.443   3.846 123.900  0.00  0.00    +0.149 HD
ENDROOT
BRANCH   3  29
ATOM     29  O   LIG A   1      -4.435   0.278 128.915  0.00  0.00    -0.387 OA
ATOM     30  H   LIG A   1      -4.466  -0.454 128.277  0.00  0.00    +0.210 HD
ENDBRANCH   3  29
BRANCH  13  31
ATOM     31  O   LIG A   1      -4.181   6.792 132.501  0.00  0.00    -0.380 OA
ATOM     32  H   LIG A   1      -3.595   6.151 132.950  0.00  0.00    +0.211 HD
ENDBRANCH  13  31
BRANCH  26  33
ATOM     33  C   LIG A   1      -9.100   1.637 124.657  0.00  0.00    +0.059 C 
BRANCH  33  34
ATOM     34  C   LIG A   1      -8.337   0.427 124.214  0.00  0.00    -0.021 A 
ATOM     35  C   LIG A   1      -7.311   0.413 123.286  0.00  0.00    +0.087 A 
ATOM     36  N   LIG A   1      -6.841  -0.867 123.182  0.00  0.00    -0.360 N 
ATOM     37  C   LIG A   1      -7.528  -1.696 124.038  0.00  0.00    +0.047 A 
ATOM     38  C   LIG A   1      -7.370  -3.066 124.281  0.00  0.00    +0.026 A 
ATOM     39  C   LIG A   1      -8.214  -3.658 125.224  0.00  0.00    +0.002 A 
ATOM     40  C   LIG A   1      -9.178  -2.908 125.893  0.00  0.00    +0.001 A 
ATOM     41  C   LIG A   1      -9.322  -1.538 125.637  0.00  0.00    +0.010 A 
ATOM     42  C   LIG A   1      -8.481  -0.914 124.693  0.00  0.00    +0.003 A 
ATOM     43  H   LIG A   1      -6.086  -1.164 122.581  0.00  0.00    +0.165 HD
ENDBRANCH  33  34
ENDBRANCH  26  33
TORSDOF 4
ENDMDL
MODEL 3
REMARK VINA RESULT:     -10.2      2.016      3.269
REMARK  Name = NuBBE_470
REMARK  7 active torsions:
REMARK  status: ('A' for Active; 'I' for Inactive)
REMARK    1  A    between atoms: C_3  and  O_5
REMARK    2  A    between atoms: C_11  and  C_13
REMARK    3  A    between atoms: C_15  and  C_16
REMARK    4  A    between atoms: C_17  and  O_19
REMARK    5  A    between atoms: C_25  and  C_27
REMARK    6  A    between atoms: C_34  and  C_35
REMARK    7  A    between atoms: C_35  and  C_36
REMARK                            x       y       z     vdW  Elec       q    Type
REMARK                         _______ _______ _______ _____ _____    ______ ____
ROOT
ATOM      1  C   LIG A   1      -4.008   4.371 128.469  0.00  0.00    +0.010 C 
ATOM      2  C   LIG A   1      -5.115   3.615 128.606  0.00  0.00    -0.045 C 
ATOM      3  C   LIG A   1      -5.091   2.087 128.746  0.00  0.00    +0.149 C 
ATOM      4  C   LIG A   1      -5.945   1.551 129.962  0.00  0.00    +0.067 C 
ATOM      5  C   LIG A   1      -5.574   0.131 130.371  0.00  0.00    -0.023 C 
ATOM      6  C   LIG A   1      -6.131  -1.083 130.477  0.00  0.00    -0.030 C 
ATOM      7  C   LIG A   1      -7.466  -1.654 130.103  0.00  0.00    +0.034 C 
ATOM      8  C   LIG A   1      -7.319  -2.847 129.111  0.00  0.00    +0.012 C 
ATOM      9  C   LIG A   1      -8.686  -3.470 128.836  0.00  0.00    +0.012 C 
ATOM     10  C   LIG A   1      -6.448  -2.498 127.910  0.00  0.00    -0.022 C 
ATOM     11  C   LIG A   1      -6.698  -2.162 126.625  0.00  0.00    -0.041 C 
ATOM     12  C   LIG A   1      -5.528  -1.824 125.721  0.00  0.00    +0.042 C 
ATOM     13  C   LIG A   1      -8.046  -2.045 125.963  0.00  0.00    +0.210 C 
ATOM     14  C   LIG A   1      -8.443  -0.600 125.581  0.00  0.00    +0.189 C 
ATOM     15  O   LIG A   1      -8.717  -0.315 124.410  0.00  0.00    -0.289 OA
ATOM     16  C   LIG A   1      -7.391   2.113 129.864  0.00  0.00    +0.122 C 
ATOM     17  C   LIG A   1      -7.188   3.676 129.932  0.00  0.00    +0.040 C 
ATOM     18  C   LIG A   1      -6.475   4.308 128.735  0.00  0.00    +0.020 C 
ATOM     19  C   LIG A   1      -7.220   4.339 127.405  0.00  0.00    +0.013 C 
ATOM     20  C   LIG A   1      -8.282   1.727 128.654  0.00  0.00    +0.172 C 
ATOM     21  C   LIG A   1      -7.899   0.655 127.694  0.00  0.00    +0.051 C 
ATOM     22  C   LIG A   1      -8.675   0.435 126.622  0.00  0.00    +0.052 C 
ATOM     23  O   LIG A   1      -9.349   2.314 128.445  0.00  0.00    -0.291 OA
ATOM     24  C   LIG A   1      -8.248   1.959 131.119  0.00  0.00    +0.228 C 
ATOM     25  N   LIG A   1      -8.806   3.189 131.442  0.00  0.00    -0.311 N 
ATOM     26  C   LIG A   1      -8.496   4.237 130.485  0.00  0.00    +0.082 C 
ATOM     27  O   LIG A   1      -8.501   0.922 131.712  0.00  0.00    -0.275 OA
ATOM     28  H   LIG A   1      -9.567   3.242 132.110  0.00  0.00    +0.149 HD
ENDROOT
BRANCH   3  29
ATOM     29  O   LIG A   1      -3.740   1.642 128.884  0.00  0.00    -0.387 OA
ATOM     30  H   LIG A   1      -3.657   1.265 129.776  0.00  0.00    +0.210 HD
ENDBRANCH   3  29
BRANCH  13  31
ATOM     31  O   LIG A   1      -8.014  -2.865 124.790  0.00  0.00    -0.380 OA
ATOM     32  H   LIG A   1      -7.071  -3.067 124.630  0.00  0.00    +0.211 HD
ENDBRANCH  13  31
BRANCH  26  33
ATOM     33  C   LIG A   1      -8.307   5.620 131.131  0.00  0.00    +0.059 C 
BRANCH  33  34
ATOM     34  C   LIG A   1      -7.109   5.724 132.024  0.00  0.00    -0.021 A 
ATOM     35  C   LIG A   1      -6.975   5.136 133.268  0.00  0.00    +0.087 A 
ATOM     36  N   LIG A   1      -5.729   5.426 133.750  0.00  0.00    -0.360 N 
ATOM     37  C   LIG A   1      -5.031   6.183 132.838  0.00  0.00    +0.047 A 
ATOM     38  C   LIG A   1      -3.724   6.682 132.897  0.00  0.00    +0.026 A 
ATOM     39  C   LIG A   1      -3.264   7.424 131.806  0.00  0.00    +0.002 A 
ATOM     40  C   LIG A   1      -4.082   7.657 130.703  0.00  0.00    +0.001 A 
ATOM     41  C   LIG A   1      -5.387   7.150 130.660  0.00  0.00    +0.010 A 
ATOM     42  C   LIG A   1      -5.876   6.394 131.747  0.00  0.00    +0.003 A 
ATOM     43  H   LIG A   1      -5.360   5.117 134.638  0.00  0.00    +0.165 HD
ENDBRANCH  33  34
ENDBRANCH  26  33
TORSDOF 4
ENDMDL
MODEL 4
REMARK VINA RESULT:     -10.1      2.293      3.176
REMARK  Name = NuBBE_470
REMARK  7 active torsions:
REMARK  status: ('A' for Active; 'I' for Inactive)
REMARK    1  A    between atoms: C_3  and  O_5
REMARK    2  A    between atoms: C_11  and  C_13
REMARK    3  A    between atoms: C_15  and  C_16
REMARK    4  A    between atoms: C_17  and  O_19
REMARK    5  A    between atoms: C_25  and  C_27
REMARK    6  A    between atoms: C_34  and  C_35
REMARK    7  A    between atoms: C_35  and  C_36
REMARK                            x       y       z     vdW  Elec       q    Type
REMARK                         _______ _______ _______ _____ _____    ______ ____
ROOT
ATOM      1  C   LIG A   1      -5.269   4.323 127.521  0.00  0.00    +0.010 C 
ATOM      2  C   LIG A   1      -5.774   3.613 128.549  0.00  0.00    -0.045 C 
ATOM      3  C   LIG A   1      -5.001   2.508 129.281  0.00  0.00    +0.149 C 
ATOM      4  C   LIG A   1      -5.021   2.660 130.853  0.00  0.00    +0.067 C 
ATOM      5  C   LIG A   1      -3.920   1.863 131.543  0.00  0.00    -0.023 C 
ATOM      6  C   LIG A   1      -3.778   0.876 132.439  0.00  0.00    -0.030 C 
ATOM      7  C   LIG A   1      -4.733  -0.036 133.146  0.00  0.00    +0.034 C 
ATOM      8  C   LIG A   1      -4.415  -1.534 132.854  0.00  0.00    +0.012 C 
ATOM      9  C   LIG A   1      -5.338  -2.435 133.672  0.00  0.00    +0.012 C 
ATOM     10  C   LIG A   1      -4.289  -1.819 131.362  0.00  0.00    -0.022 C 
ATOM     11  C   LIG A   1      -5.101  -2.371 130.432  0.00  0.00    -0.041 C 
ATOM     12  C   LIG A   1      -4.622  -2.433 128.994  0.00  0.00    +0.042 C 
ATOM     13  C   LIG A   1      -6.487  -2.921 130.649  0.00  0.00    +0.210 C 
ATOM     14  C   LIG A   1      -7.610  -2.094 129.982  0.00  0.00    +0.189 C 
ATOM     15  O   LIG A   1      -8.378  -2.621 129.169  0.00  0.00    -0.289 OA
ATOM     16  C   LIG A   1      -6.492   2.776 131.342  0.00  0.00    +0.122 C 
ATOM     17  C   LIG A   1      -7.023   4.074 130.620  0.00  0.00    +0.040 C 
ATOM     18  C   LIG A   1      -7.155   3.982 129.098  0.00  0.00    +0.020 C 
ATOM     19  C   LIG A   1      -8.246   3.076 128.538  0.00  0.00    +0.013 C 
ATOM     20  C   LIG A   1      -7.467   1.589 131.125  0.00  0.00    +0.172 C 
ATOM     21  C   LIG A   1      -7.000   0.248 130.674  0.00  0.00    +0.051 C 
ATOM     22  C   LIG A   1      -7.909  -0.706 130.423  0.00  0.00    +0.052 C 
ATOM     23  O   LIG A   1      -8.680   1.726 131.313  0.00  0.00    -0.291 OA
ATOM     24  C   LIG A   1      -6.677   3.248 132.783  0.00  0.00    +0.228 C 
ATOM     25  N   LIG A   1      -7.584   4.300 132.804  0.00  0.00    -0.311 N 
ATOM     26  C   LIG A   1      -8.151   4.603 131.502  0.00  0.00    +0.082 C 
ATOM     27  O   LIG A   1      -6.196   2.747 133.787  0.00  0.00    -0.275 OA
ATOM     28  H   LIG A   1      -7.992   4.601 133.682  0.00  0.00    +0.149 HD
ENDROOT
BRANCH   3  29
ATOM     29  O   LIG A   1      -3.647   2.490 128.825  0.00  0.00    -0.387 OA
ATOM     30  H   LIG A   1      -3.168   1.861 129.390  0.00  0.00    +0.210 HD
ENDBRANCH   3  29
BRANCH  13  31
ATOM     31  O   LIG A   1      -6.497  -4.257 130.133  0.00  0.00    -0.380 OA
ATOM     32  H   LIG A   1      -6.752  -4.831 130.882  0.00  0.00    +0.211 HD
ENDBRANCH  13  31
BRANCH  26  33
ATOM     33  C   LIG A   1      -8.407   6.104 131.279  0.00  0.00    +0.059 C 
BRANCH  33  34
ATOM     34  C   LIG A   1      -9.855   6.473 131.177  0.00  0.00    -0.021 A 
ATOM     35  C   LIG A   1     -10.832   6.181 132.110  0.00  0.00    +0.087 A 
ATOM     36  N   LIG A   1     -12.014   6.718 131.681  0.00  0.00    -0.360 N 
ATOM     37  C   LIG A   1     -11.831   7.373 130.486  0.00  0.00    +0.047 A 
ATOM     38  C   LIG A   1     -12.748   8.083 129.701  0.00  0.00    +0.026 A 
ATOM     39  C   LIG A   1     -12.277   8.664 128.521  0.00  0.00    +0.002 A 
ATOM     40  C   LIG A   1     -10.943   8.536 128.142  0.00  0.00    +0.001 A 
ATOM     41  C   LIG A   1     -10.039   7.822 128.940  0.00  0.00    +0.010 A 
ATOM     42  C   LIG A   1     -10.486   7.229 130.139  0.00  0.00    +0.003 A 
ATOM     43  H   LIG A   1     -12.894   6.661 132.173  0.00  0.00    +0.165 HD
ENDBRANCH  33  34
ENDBRANCH  26  33
TORSDOF 4
ENDMDL
MODEL 5
REMARK VINA RESULT:     -10.1      3.603      8.462
REMARK  Name = NuBBE_470
REMARK  7 active torsions:
REMARK  status: ('A' for Active; 'I' for Inactive)
REMARK    1  A    between atoms: C_3  and  O_5
REMARK    2  A    between atoms: C_11  and  C_13
REMARK    3  A    between atoms: C_15  and  C_16
REMARK    4  A    between atoms: C_17  and  O_19
REMARK    5  A    between atoms: C_25  and  C_27
REMARK    6  A    between atoms: C_34  and  C_35
REMARK    7  A    between atoms: C_35  and  C_36
REMARK                            x       y       z     vdW  Elec       q    Type
REMARK                         _______ _______ _______ _____ _____    ______ ____
ROOT
ATOM      1  C   LIG A   1      -9.013   1.588 127.184  0.00  0.00    +0.010 C 
ATOM      2  C   LIG A   1      -8.255   1.567 128.298  0.00  0.00    -0.045 C 
ATOM      3  C   LIG A   1      -8.485   2.491 129.501  0.00  0.00    +0.149 C 
ATOM      4  C   LIG A   1      -8.534   1.728 130.883  0.00  0.00    +0.067 C 
ATOM      5  C   LIG A   1      -9.192   2.542 131.991  0.00  0.00    -0.023 C 
ATOM      6  C   LIG A   1      -8.903   3.056 133.194  0.00  0.00    -0.030 C 
ATOM      7  C   LIG A   1      -7.651   3.156 134.011  0.00  0.00    +0.034 C 
ATOM      8  C   LIG A   1      -7.302   4.638 134.342  0.00  0.00    +0.012 C 
ATOM      9  C   LIG A   1      -6.084   4.698 135.262  0.00  0.00    +0.012 C 
ATOM     10  C   LIG A   1      -7.292   5.522 133.100  0.00  0.00    -0.022 C 
ATOM     11  C   LIG A   1      -6.321   6.035 132.311  0.00  0.00    -0.041 C 
ATOM     12  C   LIG A   1      -6.726   6.850 131.098  0.00  0.00    +0.042 C 
ATOM     13  C   LIG A   1      -4.833   5.864 132.475  0.00  0.00    +0.210 C 
ATOM     14  C   LIG A   1      -4.167   5.007 131.373  0.00  0.00    +0.189 C 
ATOM     15  O   LIG A   1      -3.247   5.470 130.690  0.00  0.00    -0.289 OA
ATOM     16  C   LIG A   1      -7.253   0.862 131.039  0.00  0.00    +0.122 C 
ATOM     17  C   LIG A   1      -7.324  -0.132 129.816  0.00  0.00    +0.040 C 
ATOM     18  C   LIG A   1      -7.163   0.502 128.433  0.00  0.00    +0.020 C 
ATOM     19  C   LIG A   1      -5.789   1.052 128.065  0.00  0.00    +0.013 C 
ATOM     20  C   LIG A   1      -5.866   1.552 131.107  0.00  0.00    +0.172 C 
ATOM     21  C   LIG A   1      -5.717   3.026 131.260  0.00  0.00    +0.051 C 
ATOM     22  C   LIG A   1      -4.489   3.563 131.222  0.00  0.00    +0.052 C 
ATOM     23  O   LIG A   1      -4.827   0.889 131.025  0.00  0.00    -0.291 OA
ATOM     24  C   LIG A   1      -7.289  -0.180 132.157  0.00  0.00    +0.228 C 
ATOM     25  N   LIG A   1      -6.916  -1.414 131.640  0.00  0.00    -0.311 N 
ATOM     26  C   LIG A   1      -6.529  -1.365 130.242  0.00  0.00    +0.082 C 
ATOM     27  O   LIG A   1      -7.512   0.022 133.340  0.00  0.00    -0.275 OA
ATOM     28  H   LIG A   1      -6.676  -2.175 132.266  0.00  0.00    +0.149 HD
ENDROOT
BRANCH   3  29
ATOM     29  O   LIG A   1      -9.702   3.218 129.319  0.00  0.00    -0.387 OA
ATOM     30  H   LIG A   1     -10.394   2.735 129.801  0.00  0.00    +0.210 HD
ENDBRANCH   3  29
BRANCH  13  31
ATOM     31  O   LIG A   1      -4.255   7.173 132.486  0.00  0.00    -0.380 OA
ATOM     32  H   LIG A   1      -4.760   7.694 131.830  0.00  0.00    +0.211 HD
ENDBRANCH  13  31
BRANCH  26  33
ATOM     33  C   LIG A   1      -6.936  -2.619 129.449  0.00  0.00    +0.059 C 
BRANCH  33  34
ATOM     34  C   LIG A   1      -6.563  -2.578 127.999  0.00  0.00    -0.021 A 
ATOM     35  C   LIG A   1      -5.279  -2.484 127.496  0.00  0.00    +0.087 A 
ATOM     36  N   LIG A   1      -5.346  -2.517 126.131  0.00  0.00    -0.360 N 
ATOM     37  C   LIG A   1      -6.653  -2.647 125.723  0.00  0.00    +0.047 A 
ATOM     38  C   LIG A   1      -7.184  -2.746 124.432  0.00  0.00    +0.026 A 
ATOM     39  C   LIG A   1      -8.570  -2.881 124.311  0.00  0.00    +0.002 A 
ATOM     40  C   LIG A   1      -9.388  -2.913 125.438  0.00  0.00    +0.001 A 
ATOM     41  C   LIG A   1      -8.838  -2.812 126.723  0.00  0.00    +0.010 A 
ATOM     42  C   LIG A   1      -7.442  -2.679 126.874  0.00  0.00    +0.003 A 
ATOM     43  H   LIG A   1      -4.553  -2.471 125.506  0.00  0.00    +0.165 HD
ENDBRANCH  33  34
ENDBRANCH  26  33
TORSDOF 4
ENDMDL
MODEL 6
REMARK VINA RESULT:     -10.1      3.284      8.258
REMARK  Name = NuBBE_470
REMARK  7 active torsions:
REMARK  status: ('A' for Active; 'I' for Inactive)
REMARK    1  A    between atoms: C_3  and  O_5
REMARK    2  A    between atoms: C_11  and  C_13
REMARK    3  A    between atoms: C_15  and  C_16
REMARK    4  A    between atoms: C_17  and  O_19
REMARK    5  A    between atoms: C_25  and  C_27
REMARK    6  A    between atoms: C_34  and  C_35
REMARK    7  A    between atoms: C_35  and  C_36
REMARK                            x       y       z     vdW  Elec       q    Type
REMARK                         _______ _______ _______ _____ _____    ______ ____
ROOT
ATOM      1  C   LIG A   1      -7.952  -1.912 129.689  0.00  0.00    +0.010 C 
ATOM      2  C   LIG A   1      -7.516  -0.643 129.561  0.00  0.00    -0.045 C 
ATOM      3  C   LIG A   1      -6.987   0.198 130.730  0.00  0.00    +0.149 C 
ATOM      4  C   LIG A   1      -5.597   0.886 130.433  0.00  0.00    +0.067 C 
ATOM      5  C   LIG A   1      -4.871   1.332 131.697  0.00  0.00    -0.023 C 
ATOM      6  C   LIG A   1      -4.400   2.449 132.268  0.00  0.00    -0.030 C 
ATOM      7  C   LIG A   1      -4.481   3.907 131.930  0.00  0.00    +0.034 C 
ATOM      8  C   LIG A   1      -5.138   4.724 133.082  0.00  0.00    +0.012 C 
ATOM      9  C   LIG A   1      -5.109   6.215 132.750  0.00  0.00    +0.012 C 
ATOM     10  C   LIG A   1      -6.467   4.127 133.531  0.00  0.00    -0.022 C 
ATOM     11  C   LIG A   1      -7.765   4.429 133.304  0.00  0.00    -0.041 C 
ATOM     12  C   LIG A   1      -8.834   3.537 133.904  0.00  0.00    +0.042 C 
ATOM     13  C   LIG A   1      -8.301   5.564 132.470  0.00  0.00    +0.210 C 
ATOM     14  C   LIG A   1      -9.006   5.118 131.168  0.00  0.00    +0.189 C 
ATOM     15  O   LIG A   1     -10.178   5.441 130.949  0.00  0.00    -0.289 OA
ATOM     16  C   LIG A   1      -5.698   1.704 129.115  0.00  0.00    +0.122 C 
ATOM     17  C   LIG A   1      -6.058   0.617 128.030  0.00  0.00    +0.040 C 
ATOM     18  C   LIG A   1      -7.441  -0.023 128.163  0.00  0.00    +0.020 C 
ATOM     19  C   LIG A   1      -8.655   0.852 127.867  0.00  0.00    +0.013 C 
ATOM     20  C   LIG A   1      -6.673   2.907 129.032  0.00  0.00    +0.172 C 
ATOM     21  C   LIG A   1      -7.354   3.463 130.235  0.00  0.00    +0.051 C 
ATOM     22  C   LIG A   1      -8.252   4.447 130.077  0.00  0.00    +0.052 C 
ATOM     23  O   LIG A   1      -6.924   3.443 127.948  0.00  0.00    -0.291 OA
ATOM     24  C   LIG A   1      -4.368   2.164 128.517  0.00  0.00    +0.228 C 
ATOM     25  N   LIG A   1      -4.324   1.802 127.177  0.00  0.00    -0.311 N 
ATOM     26  C   LIG A   1      -5.545   1.175 126.704  0.00  0.00    +0.082 C 
ATOM     27  O   LIG A   1      -3.505   2.826 129.071  0.00  0.00    -0.275 OA
ATOM     28  H   LIG A   1      -3.622   2.204 126.565  0.00  0.00    +0.149 HD
ENDROOT
BRANCH   3  29
ATOM     29  O   LIG A   1      -6.869  -0.624 131.893  0.00  0.00    -0.387 OA
ATOM     30  H   LIG A   1      -7.354  -0.174 132.606  0.00  0.00    +0.210 HD
ENDBRANCH   3  29
BRANCH  13  31
ATOM     31  O   LIG A   1      -9.217   6.296 133.292  0.00  0.00    -0.380 OA
ATOM     32  H   LIG A   1      -8.718   6.545 134.094  0.00  0.00    +0.211 HD
ENDBRANCH  13  31
BRANCH  26  33
ATOM     33  C   LIG A   1      -5.303   0.067 125.664  0.00  0.00    +0.059 C 
BRANCH  33  34
ATOM     34  C   LIG A   1      -6.476  -0.209 124.774  0.00  0.00    -0.021 A 
ATOM     35  C   LIG A   1      -7.015   0.668 123.852  0.00  0.00    +0.087 A 
ATOM     36  N   LIG A   1      -8.044   0.039 123.208  0.00  0.00    -0.360 N 
ATOM     37  C   LIG A   1      -8.183  -1.246 123.678  0.00  0.00    +0.047 A 
ATOM     38  C   LIG A   1      -9.080  -2.250 123.295  0.00  0.00    +0.026 A 
ATOM     39  C   LIG A   1      -8.989  -3.483 123.947  0.00  0.00    +0.002 A 
ATOM     40  C   LIG A   1      -8.040  -3.698 124.943  0.00  0.00    +0.001 A 
ATOM     41  C   LIG A   1      -7.150  -2.681 125.314  0.00  0.00    +0.010 A 
ATOM     42  C   LIG A   1      -7.218  -1.428 124.670  0.00  0.00    +0.003 A 
ATOM     43  H   LIG A   1      -8.612   0.446 122.478  0.00  0.00    +0.165 HD
ENDBRANCH  33  34
ENDBRANCH  26  33
TORSDOF 4
ENDMDL
MODEL 7
REMARK VINA RESULT:     -10.0      3.525      8.193
REMARK  Name = NuBBE_470
REMARK  7 active torsions:
REMARK  status: ('A' for Active; 'I' for Inactive)
REMARK    1  A    between atoms: C_3  and  O_5
REMARK    2  A    between atoms: C_11  and  C_13
REMARK    3  A    between atoms: C_15  and  C_16
REMARK    4  A    between atoms: C_17  and  O_19
REMARK    5  A    between atoms: C_25  and  C_27
REMARK    6  A    between atoms: C_34  and  C_35
REMARK    7  A    between atoms: C_35  and  C_36
REMARK                            x       y       z     vdW  Elec       q    Type
REMARK                         _______ _______ _______ _____ _____    ______ ____
ROOT
ATOM      1  C   LIG A   1      -6.481   4.412 124.809  0.00  0.00    +0.010 C 
ATOM      2  C   LIG A   1      -6.308   3.765 125.979  0.00  0.00    -0.045 C 
ATOM      3  C   LIG A   1      -7.156   4.027 127.230  0.00  0.00    +0.149 C 
ATOM      4  C   LIG A   1      -7.735   2.712 127.887  0.00  0.00    +0.067 C 
ATOM      5  C   LIG A   1      -8.907   2.979 128.823  0.00  0.00    -0.023 C 
ATOM      6  C   LIG A   1      -9.249   2.817 130.109  0.00  0.00    -0.030 C 
ATOM      7  C   LIG A   1      -8.517   2.351 131.331  0.00  0.00    +0.034 C 
ATOM      8  C   LIG A   1      -8.523   3.437 132.448  0.00  0.00    +0.012 C 
ATOM      9  C   LIG A   1      -7.863   2.892 133.714  0.00  0.00    +0.012 C 
ATOM     10  C   LIG A   1      -8.055   4.796 131.938  0.00  0.00    -0.022 C 
ATOM     11  C   LIG A   1      -6.898   5.490 132.019  0.00  0.00    -0.041 C 
ATOM     12  C   LIG A   1      -6.802   6.829 131.312  0.00  0.00    +0.042 C 
ATOM     13  C   LIG A   1      -5.633   5.068 132.721  0.00  0.00    +0.210 C 
ATOM     14  C   LIG A   1      -4.452   4.759 131.772  0.00  0.00    +0.189 C 
ATOM     15  O   LIG A   1      -3.382   5.367 131.886  0.00  0.00    -0.289 OA
ATOM     16  C   LIG A   1      -6.572   1.717 128.158  0.00  0.00    +0.122 C 
ATOM     17  C   LIG A   1      -5.974   1.443 126.724  0.00  0.00    +0.040 C 
ATOM     18  C   LIG A   1      -5.281   2.631 126.054  0.00  0.00    +0.020 C 
ATOM     19  C   LIG A   1      -3.959   3.105 126.650  0.00  0.00    +0.013 C 
ATOM     20  C   LIG A   1      -5.450   2.103 129.157  0.00  0.00    +0.172 C 
ATOM     21  C   LIG A   1      -5.553   3.293 130.047  0.00  0.00    +0.051 C 
ATOM     22  C   LIG A   1      -4.507   3.617 130.822  0.00  0.00    +0.052 C 
ATOM     23  O   LIG A   1      -4.418   1.430 129.238  0.00  0.00    -0.291 OA
ATOM     24  C   LIG A   1      -6.989   0.284 128.487  0.00  0.00    +0.228 C 
ATOM     25  N   LIG A   1      -6.288  -0.593 127.670  0.00  0.00    -0.311 N 
ATOM     26  C   LIG A   1      -5.322   0.064 126.807  0.00  0.00    +0.082 C 
ATOM     27  O   LIG A   1      -7.741  -0.075 129.380  0.00  0.00    -0.275 OA
ATOM     28  H   LIG A   1      -6.271  -1.584 127.884  0.00  0.00    +0.149 HD
ENDROOT
BRANCH   3  29
ATOM     29  O   LIG A   1      -8.234   4.905 126.900  0.00  0.00    -0.387 OA
ATOM     30  H   LIG A   1      -7.876   5.808 126.914  0.00  0.00    +0.210 HD
ENDBRANCH   3  29
BRANCH  13  31
ATOM     31  O   LIG A   1      -5.273   6.127 133.615  0.00  0.00    -0.380 OA
ATOM     32  H   LIG A   1      -5.329   5.748 134.515  0.00  0.00    +0.211 HD
ENDBRANCH  13  31
BRANCH  26  33
ATOM     33  C   LIG A   1      -5.186  -0.597 125.424  0.00  0.00    +0.059 C 
BRANCH  33  34
ATOM     34  C   LIG A   1      -6.457  -0.636 124.633  0.00  0.00    -0.021 A 
ATOM     35  C   LIG A   1      -6.956   0.390 123.853  0.00  0.00    +0.087 A 
ATOM     36  N   LIG A   1      -8.110  -0.041 123.260  0.00  0.00    -0.360 N 
ATOM     37  C   LIG A   1      -8.373  -1.341 123.622  0.00  0.00    +0.047 A 
ATOM     38  C   LIG A   1      -9.423  -2.185 123.239  0.00  0.00    +0.026 A 
ATOM     39  C   LIG A   1      -9.436  -3.480 123.763  0.00  0.00    +0.002 A 
ATOM     40  C   LIG A   1      -8.441  -3.910 124.638  0.00  0.00    +0.001 A 
ATOM     41  C   LIG A   1      -7.397  -3.051 125.010  0.00  0.00    +0.010 A 
ATOM     42  C   LIG A   1      -7.357  -1.740 124.492  0.00  0.00    +0.003 A 
ATOM     43  H   LIG A   1      -8.682   0.504 122.630  0.00  0.00    +0.165 HD
ENDBRANCH  33  34
ENDBRANCH  26  33
TORSDOF 4
ENDMDL
MODEL 8
REMARK VINA RESULT:      -9.9      5.670      8.230
REMARK  Name = NuBBE_470
REMARK  7 active torsions:
REMARK  status: ('A' for Active; 'I' for Inactive)
REMARK    1  A    between atoms: C_3  and  O_5
REMARK    2  A    between atoms: C_11  and  C_13
REMARK    3  A    between atoms: C_15  and  C_16
REMARK    4  A    between atoms: C_17  and  O_19
REMARK    5  A    between atoms: C_25  and  C_27
REMARK    6  A    between atoms: C_34  and  C_35
REMARK    7  A    between atoms: C_35  and  C_36
REMARK                            x       y       z     vdW  Elec       q    Type
REMARK                         _______ _______ _______ _____ _____    ______ ____
ROOT
ATOM      1  C   LIG A   1      -2.308   6.783 128.158  0.00  0.00    +0.010 C 
ATOM      2  C   LIG A   1      -2.916   6.353 129.281  0.00  0.00    -0.045 C 
ATOM      3  C   LIG A   1      -3.815   5.111 129.341  0.00  0.00    +0.149 C 
ATOM      4  C   LIG A   1      -3.445   4.120 130.513  0.00  0.00    +0.067 C 
ATOM      5  C   LIG A   1      -4.011   2.720 130.311  0.00  0.00    -0.023 C 
ATOM      6  C   LIG A   1      -4.839   1.853 130.911  0.00  0.00    -0.030 C 
ATOM      7  C   LIG A   1      -5.741   1.929 132.106  0.00  0.00    +0.034 C 
ATOM      8  C   LIG A   1      -7.221   1.624 131.725  0.00  0.00    +0.012 C 
ATOM      9  C   LIG A   1      -8.092   1.605 132.979  0.00  0.00    +0.012 C 
ATOM     10  C   LIG A   1      -7.700   2.462 130.545  0.00  0.00    -0.022 C 
ATOM     11  C   LIG A   1      -8.463   3.571 130.420  0.00  0.00    -0.041 C 
ATOM     12  C   LIG A   1      -8.676   4.153 129.036  0.00  0.00    +0.042 C 
ATOM     13  C   LIG A   1      -9.124   4.348 131.528  0.00  0.00    +0.210 C 
ATOM     14  C   LIG A   1      -8.527   5.755 131.761  0.00  0.00    +0.189 C 
ATOM     15  O   LIG A   1      -9.245   6.759 131.692  0.00  0.00    -0.289 OA
ATOM     16  C   LIG A   1      -3.421   4.898 131.859  0.00  0.00    +0.122 C 
ATOM     17  C   LIG A   1      -2.304   5.990 131.638  0.00  0.00    +0.040 C 
ATOM     18  C   LIG A   1      -2.625   7.070 130.603  0.00  0.00    +0.020 C 
ATOM     19  C   LIG A   1      -3.715   8.079 130.950  0.00  0.00    +0.013 C 
ATOM     20  C   LIG A   1      -4.726   5.547 132.391  0.00  0.00    +0.172 C 
ATOM     21  C   LIG A   1      -6.058   5.264 131.788  0.00  0.00    +0.051 C 
ATOM     22  C   LIG A   1      -7.131   5.928 132.243  0.00  0.00    +0.052 C 
ATOM     23  O   LIG A   1      -4.696   6.336 133.340  0.00  0.00    -0.291 OA
ATOM     24  C   LIG A   1      -2.772   4.169 133.034  0.00  0.00    +0.228 C 
ATOM     25  N   LIG A   1      -1.833   5.006 133.625  0.00  0.00    -0.311 N 
ATOM     26  C   LIG A   1      -1.782   6.331 133.032  0.00  0.00    +0.082 C 
ATOM     27  O   LIG A   1      -3.071   3.069 133.471  0.00  0.00    -0.275 OA
ATOM     28  H   LIG A   1      -1.456   4.782 134.539  0.00  0.00    +0.149 HD
ENDROOT
BRANCH   3  29
ATOM     29  O   LIG A   1      -3.751   4.415 128.094  0.00  0.00    -0.387 OA
ATOM     30  H   LIG A   1      -2.907   3.933 128.085  0.00  0.00    +0.210 HD
ENDBRANCH   3  29
BRANCH  13  31
ATOM     31  O   LIG A   1     -10.513   4.459 131.196  0.00  0.00    -0.380 OA
ATOM     32  H   LIG A   1     -10.568   4.333 130.228  0.00  0.00    +0.211 HD
ENDBRANCH  13  31
BRANCH  26  33
ATOM     33  C   LIG A   1      -0.364   6.928 132.989  0.00  0.00    +0.059 C 
BRANCH  33  34
ATOM     34  C   LIG A   1      -0.148   8.066 133.939  0.00  0.00    -0.021 A 
ATOM     35  C   LIG A   1       0.714   8.064 135.020  0.00  0.00    +0.087 A 
ATOM     36  N   LIG A   1       0.663   9.294 135.615  0.00  0.00    -0.360 N 
ATOM     37  C   LIG A   1      -0.207  10.114 134.936  0.00  0.00    +0.047 A 
ATOM     38  C   LIG A   1      -0.550  11.451 135.172  0.00  0.00    +0.026 A 
ATOM     39  C   LIG A   1      -1.469  12.046 134.304  0.00  0.00    +0.002 A 
ATOM     40  C   LIG A   1      -2.022  11.330 133.245  0.00  0.00    +0.001 A 
ATOM     41  C   LIG A   1      -1.667   9.993 133.024  0.00  0.00    +0.010 A 
ATOM     42  C   LIG A   1      -0.739   9.368 133.883  0.00  0.00    +0.003 A 
ATOM     43  H   LIG A   1       1.198   9.573 136.426  0.00  0.00    +0.165 HD
ENDBRANCH  33  34
ENDBRANCH  26  33
TORSDOF 4
ENDMDL
MODEL 9
REMARK VINA RESULT:      -9.9      2.637      3.995
REMARK  Name = NuBBE_470
REMARK  7 active torsions:
REMARK  status: ('A' for Active; 'I' for Inactive)
REMARK    1  A    between atoms: C_3  and  O_5
REMARK    2  A    between atoms: C_11  and  C_13
REMARK    3  A    between atoms: C_15  and  C_16
REMARK    4  A    between atoms: C_17  and  O_19
REMARK    5  A    between atoms: C_25  and  C_27
REMARK    6  A    between atoms: C_34  and  C_35
REMARK    7  A    between atoms: C_35  and  C_36
REMARK                            x       y       z     vdW  Elec       q    Type
REMARK                         _______ _______ _______ _____ _____    ______ ____
ROOT
ATOM      1  C   LIG A   1      -4.050   4.331 126.527  0.00  0.00    +0.010 C 
ATOM      2  C   LIG A   1      -5.077   3.598 127.001  0.00  0.00    -0.045 C 
ATOM      3  C   LIG A   1      -5.081   2.064 127.039  0.00  0.00    +0.149 C 
ATOM      4  C   LIG A   1      -5.485   1.469 128.446  0.00  0.00    +0.067 C 
ATOM      5  C   LIG A   1      -5.066   0.014 128.620  0.00  0.00    -0.023 C 
ATOM      6  C   LIG A   1      -5.611  -1.189 128.848  0.00  0.00    -0.030 C 
ATOM      7  C   LIG A   1      -7.018  -1.696 128.934  0.00  0.00    +0.034 C 
ATOM      8  C   LIG A   1      -7.284  -2.821 127.890  0.00  0.00    +0.012 C 
ATOM      9  C   LIG A   1      -8.691  -3.388 128.075  0.00  0.00    +0.012 C 
ATOM     10  C   LIG A   1      -6.868  -2.414 126.481  0.00  0.00    -0.022 C 
ATOM     11  C   LIG A   1      -7.532  -1.984 125.385  0.00  0.00    -0.041 C 
ATOM     12  C   LIG A   1      -6.734  -1.617 124.148  0.00  0.00    +0.042 C 
ATOM     13  C   LIG A   1      -9.019  -1.786 125.244  0.00  0.00    +0.210 C 
ATOM     14  C   LIG A   1      -9.452  -0.308 125.104  0.00  0.00    +0.189 C 
ATOM     15  O   LIG A   1     -10.101   0.064 124.120  0.00  0.00    -0.289 OA
ATOM     16  C   LIG A   1      -6.845   2.075 128.891  0.00  0.00    +0.122 C 
ATOM     17  C   LIG A   1      -6.555   3.624 128.970  0.00  0.00    +0.040 C 
ATOM     18  C   LIG A   1      -6.271   4.316 127.635  0.00  0.00    +0.020 C 
ATOM     19  C   LIG A   1      -7.430   4.460 126.654  0.00  0.00    +0.013 C 
ATOM     20  C   LIG A   1      -8.119   1.798 128.050  0.00  0.00    +0.172 C 
ATOM     21  C   LIG A   1      -8.147   0.784 126.959  0.00  0.00    +0.051 C 
ATOM     22  C   LIG A   1      -9.256   0.659 126.216  0.00  0.00    +0.052 C 
ATOM     23  O   LIG A   1      -9.162   2.425 128.260  0.00  0.00    -0.291 OA
ATOM     24  C   LIG A   1      -7.220   1.858 130.356  0.00  0.00    +0.228 C 
ATOM     25  N   LIG A   1      -7.570   3.078 130.922  0.00  0.00    -0.311 N 
ATOM     26  C   LIG A   1      -7.560   4.180 129.976  0.00  0.00    +0.082 C 
ATOM     27  O   LIG A   1      -7.302   0.790 130.942  0.00  0.00    -0.275 OA
ATOM     28  H   LIG A   1      -8.047   3.105 131.815  0.00  0.00    +0.149 HD
ENDROOT
BRANCH   3  29
ATOM     29  O   LIG A   1      -3.790   1.574 126.672  0.00  0.00    -0.387 OA
ATOM     30  H   LIG A   1      -3.911   1.033 125.874  0.00  0.00    +0.210 HD
ENDBRANCH   3  29
BRANCH  13  31
ATOM     31  O   LIG A   1      -9.437  -2.524 124.091  0.00  0.00    -0.380 OA
ATOM     32  H   LIG A   1      -8.634  -2.650 123.547  0.00  0.00    +0.211 HD
ENDBRANCH  13  31
BRANCH  26  33
ATOM     33  C   LIG A   1      -7.090   5.510 130.590  0.00  0.00    +0.059 C 
BRANCH  33  34
ATOM     34  C   LIG A   1      -5.735   5.451 131.223  0.00  0.00    -0.021 A 
ATOM     35  C   LIG A   1      -5.444   4.907 132.461  0.00  0.00    +0.087 A 
ATOM     36  N   LIG A   1      -4.096   5.004 132.668  0.00  0.00    -0.360 N 
ATOM     37  C   LIG A   1      -3.489   5.588 131.582  0.00  0.00    +0.047 A 
ATOM     38  C   LIG A   1      -2.135   5.861 131.348  0.00  0.00    +0.026 A 
ATOM     39  C   LIG A   1      -1.796   6.463 130.134  0.00  0.00    +0.002 A 
ATOM     40  C   LIG A   1      -2.775   6.781 129.194  0.00  0.00    +0.001 A 
ATOM     41  C   LIG A   1      -4.124   6.500 129.445  0.00  0.00    +0.010 A 
ATOM     42  C   LIG A   1      -4.494   5.889 130.661  0.00  0.00    +0.003 A 
ATOM     43  H   LIG A   1      -3.607   4.678 133.490  0.00  0.00    +0.165 HD
ENDBRANCH  33  34
ENDBRANCH  26  33
TORSDOF 4
ENDMDL
