MODEL 1
REMARK VINA RESULT:      -7.1      0.000      0.000
REMARK  Name = NuBBE_373
REMARK  3 active torsions:
REMARK  status: ('A' for Active; 'I' for Inactive)
REMARK    1  A    between atoms: C_2  and  C_8
REMARK    2  A    between atoms: C_9  and  C_10
REMARK    3  A    between atoms: C_11  and  C_12
REMARK                            x       y       z     vdW  Elec       q    Type
REMARK                         _______ _______ _______ _____ _____    ______ ____
ROOT
ATOM      1  C   LIG A   1      -8.263   5.488 134.009  0.00  0.00    +0.001 C 
ATOM      2  C   LIG A   1      -8.330   4.214 134.426  0.00  0.00    +0.008 C 
ENDROOT
BRANCH   2   3
ATOM      3  C   LIG A   1      -8.450   3.041 133.558  0.00  0.00    -0.021 A 
ATOM      4  C   LIG A   1      -9.680   2.771 132.920  0.00  0.00    +0.012 A 
ATOM      5  C   LIG A   1      -9.813   1.675 132.061  0.00  0.00    +0.050 A 
ATOM      6  C   LIG A   1      -8.704   0.883 131.861  0.00  0.00    +0.166 A 
ATOM      7  C   LIG A   1      -7.506   1.138 132.487  0.00  0.00    +0.167 A 
ATOM      8  O   LIG A   1      -6.542   0.240 132.150  0.00  0.00    -0.453 OA
ATOM      9  C   LIG A   1      -7.258  -0.584 131.207  0.00  0.00    +0.466 C 
ATOM     10  O   LIG A   1      -8.641  -0.207 131.048  0.00  0.00    -0.453 OA
ATOM     11  C   LIG A   1      -7.346   2.207 133.345  0.00  0.00    +0.057 A 
ENDBRANCH   2   3
BRANCH   1  13
ATOM     12  C   LIG A   1      -9.379   6.341 132.015  0.00  0.00    +0.067 C 
ATOM     13  C   LIG A   1      -8.257   5.946 132.635  0.00  0.00    +0.005 C 
BRANCH  12  15
ATOM     14  O   LIG A   1      -8.266   6.996 130.026  0.00  0.00    -0.271 OA
ATOM     15  C   LIG A   1      -9.331   6.889 130.634  0.00  0.00    +0.239 C 
ATOM     16  N   LIG A   1     -10.536   7.289 130.109  0.00  0.00    -0.298 N 
ATOM     17  C   LIG A   1     -11.856   7.151 130.706  0.00  0.00    +0.108 C 
ATOM     18  C   LIG A   1     -12.821   7.508 129.587  0.00  0.00    +0.020 C 
ATOM     19  C   LIG A   1     -12.024   8.507 128.759  0.00  0.00    +0.020 C 
ATOM     20  C   LIG A   1     -10.611   7.942 128.814  0.00  0.00    +0.108 C 
ENDBRANCH  12  15
ENDBRANCH   1  13
TORSDOF 3
ENDMDL
MODEL 2
REMARK VINA RESULT:      -7.0      7.282      9.110
REMARK  Name = NuBBE_373
REMARK  3 active torsions:
REMARK  status: ('A' for Active; 'I' for Inactive)
REMARK    1  A    between atoms: C_2  and  C_8
REMARK    2  A    between atoms: C_9  and  C_10
REMARK    3  A    between atoms: C_11  and  C_12
REMARK                            x       y       z     vdW  Elec       q    Type
REMARK                         _______ _______ _______ _____ _____    ______ ____
ROOT
ATOM      1  C   LIG A   1      -8.991  -3.450 123.935  0.00  0.00    +0.001 C 
ATOM      2  C   LIG A   1      -8.378  -4.054 124.965  0.00  0.00    +0.008 C 
ENDROOT
BRANCH   2   3
ATOM      3  C   LIG A   1      -7.989  -3.407 126.220  0.00  0.00    -0.021 A 
ATOM      4  C   LIG A   1      -8.733  -3.662 127.393  0.00  0.00    +0.012 A 
ATOM      5  C   LIG A   1      -8.364  -3.082 128.611  0.00  0.00    +0.050 A 
ATOM      6  C   LIG A   1      -7.253  -2.267 128.620  0.00  0.00    +0.166 A 
ATOM      7  C   LIG A   1      -6.531  -2.011 127.478  0.00  0.00    +0.167 A 
ATOM      8  O   LIG A   1      -5.474  -1.187 127.706  0.00  0.00    -0.453 OA
ATOM      9  C   LIG A   1      -5.588  -0.989 129.130  0.00  0.00    +0.466 C 
ATOM     10  O   LIG A   1      -6.737  -1.639 129.711  0.00  0.00    -0.453 OA
ATOM     11  C   LIG A   1      -6.874  -2.562 126.260  0.00  0.00    +0.057 A 
ENDBRANCH   2   3
BRANCH   1  13
ATOM     12  C   LIG A   1      -9.061  -1.258 122.869  0.00  0.00    +0.067 C 
ATOM     13  C   LIG A   1      -9.419  -2.067 123.876  0.00  0.00    +0.005 C 
BRANCH  12  15
ATOM     14  O   LIG A   1     -10.761   0.354 122.503  0.00  0.00    -0.271 OA
ATOM     15  C   LIG A   1      -9.584   0.131 122.787  0.00  0.00    +0.239 C 
ATOM     16  N   LIG A   1      -8.668   1.129 123.016  0.00  0.00    -0.298 N 
ATOM     17  C   LIG A   1      -7.277   0.984 123.420  0.00  0.00    +0.108 C 
ATOM     18  C   LIG A   1      -6.835   2.392 123.783  0.00  0.00    +0.020 C 
ATOM     19  C   LIG A   1      -7.691   3.260 122.870  0.00  0.00    +0.020 C 
ATOM     20  C   LIG A   1      -9.026   2.528 122.857  0.00  0.00    +0.108 C 
ENDBRANCH  12  15
ENDBRANCH   1  13
TORSDOF 3
ENDMDL
MODEL 3
REMARK VINA RESULT:      -6.9      7.896     10.914
REMARK  Name = NuBBE_373
REMARK  3 active torsions:
REMARK  status: ('A' for Active; 'I' for Inactive)
REMARK    1  A    between atoms: C_2  and  C_8
REMARK    2  A    between atoms: C_9  and  C_10
REMARK    3  A    between atoms: C_11  and  C_12
REMARK                            x       y       z     vdW  Elec       q    Type
REMARK                         _______ _______ _______ _____ _____    ______ ____
ROOT
ATOM      1  C   LIG A   1      -4.993  -2.886 123.450  0.00  0.00    +0.001 C 
ATOM      2  C   LIG A   1      -5.666  -2.179 122.529  0.00  0.00    +0.008 C 
ENDROOT
BRANCH   2   3
ATOM      3  C   LIG A   1      -6.923  -1.464 122.758  0.00  0.00    -0.021 A 
ATOM      4  C   LIG A   1      -8.150  -2.140 122.583  0.00  0.00    +0.012 A 
ATOM      5  C   LIG A   1      -9.364  -1.490 122.825  0.00  0.00    +0.050 A 
ATOM      6  C   LIG A   1      -9.314  -0.179 123.244  0.00  0.00    +0.166 A 
ATOM      7  C   LIG A   1      -8.121   0.485 123.410  0.00  0.00    +0.167 A 
ATOM      8  O   LIG A   1      -8.295   1.766 123.832  0.00  0.00    -0.453 OA
ATOM      9  C   LIG A   1      -9.731   1.818 123.955  0.00  0.00    +0.466 C 
ATOM     10  O   LIG A   1     -10.387   0.600 123.547  0.00  0.00    -0.453 OA
ATOM     11  C   LIG A   1      -6.908  -0.126 123.171  0.00  0.00    +0.057 A 
ENDBRANCH   2   3
BRANCH   1  13
ATOM     12  C   LIG A   1      -5.453  -2.001 125.675  0.00  0.00    +0.067 C 
ATOM     13  C   LIG A   1      -5.351  -3.048 124.843  0.00  0.00    +0.005 C 
BRANCH  12  15
ATOM     14  O   LIG A   1      -5.183  -1.882 128.028  0.00  0.00    -0.271 OA
ATOM     15  C   LIG A   1      -5.906  -2.185 127.079  0.00  0.00    +0.239 C 
ATOM     16  N   LIG A   1      -7.155  -2.736 127.235  0.00  0.00    -0.298 N 
ATOM     17  C   LIG A   1      -8.116  -3.071 126.195  0.00  0.00    +0.108 C 
ATOM     18  C   LIG A   1      -9.399  -3.385 126.946  0.00  0.00    +0.020 C 
ATOM     19  C   LIG A   1      -8.888  -3.936 128.270  0.00  0.00    +0.020 C 
ATOM     20  C   LIG A   1      -7.669  -3.070 128.552  0.00  0.00    +0.108 C 
ENDBRANCH  12  15
ENDBRANCH   1  13
TORSDOF 3
ENDMDL
MODEL 4
REMARK VINA RESULT:      -6.9      4.189      6.822
REMARK  Name = NuBBE_373
REMARK  3 active torsions:
REMARK  status: ('A' for Active; 'I' for Inactive)
REMARK    1  A    between atoms: C_2  and  C_8
REMARK    2  A    between atoms: C_9  and  C_10
REMARK    3  A    between atoms: C_11  and  C_12
REMARK                            x       y       z     vdW  Elec       q    Type
REMARK                         _______ _______ _______ _____ _____    ______ ____
ROOT
ATOM      1  C   LIG A   1      -7.855   6.002 132.578  0.00  0.00    +0.001 C 
ATOM      2  C   LIG A   1      -9.193   5.898 132.579  0.00  0.00    +0.008 C 
ENDROOT
BRANCH   2   3
ATOM      3  C   LIG A   1     -10.089   6.434 131.553  0.00  0.00    -0.021 A 
ATOM      4  C   LIG A   1     -11.476   6.497 131.804  0.00  0.00    +0.012 A 
ATOM      5  C   LIG A   1     -12.350   7.034 130.853  0.00  0.00    +0.050 A 
ATOM      6  C   LIG A   1     -11.806   7.501 129.677  0.00  0.00    +0.166 A 
ATOM      7  C   LIG A   1     -10.455   7.435 129.426  0.00  0.00    +0.167 A 
ATOM      8  O   LIG A   1     -10.127   7.952 128.212  0.00  0.00    -0.453 OA
ATOM      9  C   LIG A   1     -11.420   8.391 127.747  0.00  0.00    +0.466 C 
ATOM     10  O   LIG A   1     -12.495   8.072 128.653  0.00  0.00    -0.453 OA
ATOM     11  C   LIG A   1      -9.569   6.904 130.341  0.00  0.00    +0.057 A 
ENDBRANCH   2   3
BRANCH   1  13
ATOM     12  C   LIG A   1      -5.737   6.337 131.417  0.00  0.00    +0.067 C 
ATOM     13  C   LIG A   1      -7.040   6.623 131.555  0.00  0.00    +0.005 C 
BRANCH  12  15
ATOM     14  O   LIG A   1      -4.954   8.134 130.083  0.00  0.00    -0.271 OA
ATOM     15  C   LIG A   1      -4.943   6.923 130.306  0.00  0.00    +0.239 C 
ATOM     16  N   LIG A   1      -4.236   6.028 129.541  0.00  0.00    -0.298 N 
ATOM     17  C   LIG A   1      -4.098   4.594 129.749  0.00  0.00    +0.108 C 
ATOM     18  C   LIG A   1      -3.005   4.170 128.781  0.00  0.00    +0.020 C 
ATOM     19  C   LIG A   1      -3.162   5.164 127.638  0.00  0.00    +0.020 C 
ATOM     20  C   LIG A   1      -3.510   6.460 128.359  0.00  0.00    +0.108 C 
ENDBRANCH  12  15
ENDBRANCH   1  13
TORSDOF 3
ENDMDL
MODEL 5
REMARK VINA RESULT:      -6.9      4.050      6.887
REMARK  Name = NuBBE_373
REMARK  3 active torsions:
REMARK  status: ('A' for Active; 'I' for Inactive)
REMARK    1  A    between atoms: C_2  and  C_8
REMARK    2  A    between atoms: C_9  and  C_10
REMARK    3  A    between atoms: C_11  and  C_12
REMARK                            x       y       z     vdW  Elec       q    Type
REMARK                         _______ _______ _______ _____ _____    ______ ____
ROOT
ATOM      1  C   LIG A   1      -7.931   4.690 135.137  0.00  0.00    +0.001 C 
ATOM      2  C   LIG A   1      -8.367   4.369 133.909  0.00  0.00    +0.008 C 
ENDROOT
BRANCH   2   3
ATOM      3  C   LIG A   1      -8.574   5.310 132.808  0.00  0.00    -0.021 A 
ATOM      4  C   LIG A   1      -7.458   5.926 132.200  0.00  0.00    +0.012 A 
ATOM      5  C   LIG A   1      -7.625   6.805 131.125  0.00  0.00    +0.050 A 
ATOM      6  C   LIG A   1      -8.909   7.038 130.685  0.00  0.00    +0.166 A 
ATOM      7  C   LIG A   1      -9.999   6.446 131.279  0.00  0.00    +0.167 A 
ATOM      8  O   LIG A   1     -11.171   6.807 130.691  0.00  0.00    -0.453 OA
ATOM      9  C   LIG A   1     -10.690   7.658 129.631  0.00  0.00    +0.466 C 
ATOM     10  O   LIG A   1      -9.259   7.841 129.645  0.00  0.00    -0.453 OA
ATOM     11  C   LIG A   1      -9.867   5.581 132.346  0.00  0.00    +0.057 A 
ENDBRANCH   2   3
BRANCH   1  13
ATOM     12  C   LIG A   1      -7.619   6.355 136.892  0.00  0.00    +0.067 C 
ATOM     13  C   LIG A   1      -7.547   6.008 135.599  0.00  0.00    +0.005 C 
BRANCH  12  15
ATOM     14  O   LIG A   1      -5.942   7.978 137.309  0.00  0.00    -0.271 OA
ATOM     15  C   LIG A   1      -7.136   7.683 137.352  0.00  0.00    +0.239 C 
ATOM     16  N   LIG A   1      -8.099   8.530 137.846  0.00  0.00    -0.298 N 
ATOM     17  C   LIG A   1      -9.538   8.315 137.884  0.00  0.00    +0.108 C 
ATOM     18  C   LIG A   1     -10.116   9.665 138.276  0.00  0.00    +0.020 C 
ATOM     19  C   LIG A   1      -9.012  10.269 139.134  0.00  0.00    +0.020 C 
ATOM     20  C   LIG A   1      -7.743   9.813 138.427  0.00  0.00    +0.108 C 
ENDBRANCH  12  15
ENDBRANCH   1  13
TORSDOF 3
ENDMDL
MODEL 6
REMARK VINA RESULT:      -6.8      7.155      9.432
REMARK  Name = NuBBE_373
REMARK  3 active torsions:
REMARK  status: ('A' for Active; 'I' for Inactive)
REMARK    1  A    between atoms: C_2  and  C_8
REMARK    2  A    between atoms: C_9  and  C_10
REMARK    3  A    between atoms: C_11  and  C_12
REMARK                            x       y       z     vdW  Elec       q    Type
REMARK                         _______ _______ _______ _____ _____    ______ ____
ROOT
ATOM      1  C   LIG A   1      -9.082  -3.830 127.864  0.00  0.00    +0.001 C 
ATOM      2  C   LIG A   1      -8.624  -3.855 129.125  0.00  0.00    +0.008 C 
ENDROOT
BRANCH   2   3
ATOM      3  C   LIG A   1      -7.565  -2.999 129.662  0.00  0.00    -0.021 A 
ATOM      4  C   LIG A   1      -7.892  -1.721 130.164  0.00  0.00    +0.012 A 
ATOM      5  C   LIG A   1      -6.904  -0.895 130.712  0.00  0.00    +0.050 A 
ATOM      6  C   LIG A   1      -5.616  -1.379 130.747  0.00  0.00    +0.166 A 
ATOM      7  C   LIG A   1      -5.292  -2.622 130.253  0.00  0.00    +0.167 A 
ATOM      8  O   LIG A   1      -3.970  -2.906 130.389  0.00  0.00    -0.453 OA
ATOM      9  C   LIG A   1      -3.506  -1.719 131.065  0.00  0.00    +0.466 C 
ATOM     10  O   LIG A   1      -4.536  -0.729 131.260  0.00  0.00    -0.453 OA
ATOM     11  C   LIG A   1      -6.242  -3.455 129.700  0.00  0.00    +0.057 A 
ENDBRANCH   2   3
BRANCH   1  13
ATOM     12  C   LIG A   1      -9.076  -3.076 125.544  0.00  0.00    +0.067 C 
ATOM     13  C   LIG A   1      -8.652  -2.935 126.809  0.00  0.00    +0.005 C 
BRANCH  12  15
ATOM     14  O   LIG A   1      -9.444  -1.175 124.176  0.00  0.00    -0.271 OA
ATOM     15  C   LIG A   1      -8.690  -2.094 124.498  0.00  0.00    +0.239 C 
ATOM     16  N   LIG A   1      -7.466  -2.300 123.908  0.00  0.00    -0.298 N 
ATOM     17  C   LIG A   1      -6.472  -3.305 124.250  0.00  0.00    +0.108 C 
ATOM     18  C   LIG A   1      -5.233  -2.899 123.469  0.00  0.00    +0.020 C 
ATOM     19  C   LIG A   1      -5.817  -2.222 122.237  0.00  0.00    +0.020 C 
ATOM     20  C   LIG A   1      -7.021  -1.477 122.797  0.00  0.00    +0.108 C 
ENDBRANCH  12  15
ENDBRANCH   1  13
TORSDOF 3
ENDMDL
MODEL 7
REMARK VINA RESULT:      -6.8      7.653      9.587
REMARK  Name = NuBBE_373
REMARK  3 active torsions:
REMARK  status: ('A' for Active; 'I' for Inactive)
REMARK    1  A    between atoms: C_2  and  C_8
REMARK    2  A    between atoms: C_9  and  C_10
REMARK    3  A    between atoms: C_11  and  C_12
REMARK                            x       y       z     vdW  Elec       q    Type
REMARK                         _______ _______ _______ _____ _____    ______ ____
ROOT
ATOM      1  C   LIG A   1     -10.248   0.673 122.708  0.00  0.00    +0.001 C 
ATOM      2  C   LIG A   1      -9.976  -0.575 122.297  0.00  0.00    +0.008 C 
ENDROOT
BRANCH   2   3
ATOM      3  C   LIG A   1      -9.003  -1.480 122.912  0.00  0.00    -0.021 A 
ATOM      4  C   LIG A   1      -9.458  -2.588 123.658  0.00  0.00    +0.012 A 
ATOM      5  C   LIG A   1      -8.550  -3.485 124.230  0.00  0.00    +0.050 A 
ATOM      6  C   LIG A   1      -7.208  -3.249 124.031  0.00  0.00    +0.166 A 
ATOM      7  C   LIG A   1      -6.760  -2.166 123.310  0.00  0.00    +0.167 A 
ATOM      8  O   LIG A   1      -5.404  -2.121 123.231  0.00  0.00    -0.453 OA
ATOM      9  C   LIG A   1      -5.050  -3.322 123.946  0.00  0.00    +0.466 C 
ATOM     10  O   LIG A   1      -6.188  -4.022 124.491  0.00  0.00    -0.453 OA
ATOM     11  C   LIG A   1      -7.631  -1.260 122.741  0.00  0.00    +0.057 A 
ENDBRANCH   2   3
BRANCH   1  13
ATOM     12  C   LIG A   1      -8.766   2.331 123.709  0.00  0.00    +0.067 C 
ATOM     13  C   LIG A   1      -9.669   1.350 123.850  0.00  0.00    +0.005 C 
BRANCH  12  15
ATOM     14  O   LIG A   1      -8.833   4.066 125.324  0.00  0.00    -0.271 OA
ATOM     15  C   LIG A   1      -8.252   3.069 124.893  0.00  0.00    +0.239 C 
ATOM     16  N   LIG A   1      -7.090   2.584 125.441  0.00  0.00    -0.298 N 
ATOM     17  C   LIG A   1      -6.359   1.385 125.059  0.00  0.00    +0.108 C 
ATOM     18  C   LIG A   1      -5.327   1.199 126.159  0.00  0.00    +0.020 C 
ATOM     19  C   LIG A   1      -5.053   2.627 126.610  0.00  0.00    +0.020 C 
ATOM     20  C   LIG A   1      -6.427   3.278 126.531  0.00  0.00    +0.108 C 
ENDBRANCH  12  15
ENDBRANCH   1  13
TORSDOF 3
ENDMDL
MODEL 8
REMARK VINA RESULT:      -6.7      2.061      3.272
REMARK  Name = NuBBE_373
REMARK  3 active torsions:
REMARK  status: ('A' for Active; 'I' for Inactive)
REMARK    1  A    between atoms: C_2  and  C_8
REMARK    2  A    between atoms: C_9  and  C_10
REMARK    3  A    between atoms: C_11  and  C_12
REMARK                            x       y       z     vdW  Elec       q    Type
REMARK                         _______ _______ _______ _____ _____    ______ ____
ROOT
ATOM      1  C   LIG A   1     -10.162   2.457 131.231  0.00  0.00    +0.001 C 
ATOM      2  C   LIG A   1      -9.715   2.077 132.438  0.00  0.00    +0.008 C 
ENDROOT
BRANCH   2   3
ATOM      3  C   LIG A   1      -8.704   2.780 133.230  0.00  0.00    -0.021 A 
ATOM      4  C   LIG A   1      -9.080   3.902 134.000  0.00  0.00    +0.012 A 
ATOM      5  C   LIG A   1      -8.140   4.573 134.790  0.00  0.00    +0.050 A 
ATOM      6  C   LIG A   1      -6.849   4.094 134.790  0.00  0.00    +0.166 A 
ATOM      7  C   LIG A   1      -6.477   3.006 134.035  0.00  0.00    +0.167 A 
ATOM      8  O   LIG A   1      -5.161   2.698 134.182  0.00  0.00    -0.453 OA
ATOM      9  C   LIG A   1      -4.757   3.689 135.149  0.00  0.00    +0.466 C 
ATOM     10  O   LIG A   1      -5.813   4.604 135.509  0.00  0.00    -0.453 OA
ATOM     11  C   LIG A   1      -7.379   2.328 133.241  0.00  0.00    +0.057 A 
ENDBRANCH   2   3
BRANCH   1  13
ATOM     12  C   LIG A   1     -10.553   4.728 130.431  0.00  0.00    +0.067 C 
ATOM     13  C   LIG A   1      -9.768   3.643 130.499  0.00  0.00    +0.005 C 
BRANCH  12  15
ATOM     14  O   LIG A   1      -8.893   6.260 129.713  0.00  0.00    -0.271 OA
ATOM     15  C   LIG A   1     -10.088   5.962 129.748  0.00  0.00    +0.239 C 
ATOM     16  N   LIG A   1     -11.071   6.746 129.195  0.00  0.00    -0.298 N 
ATOM     17  C   LIG A   1     -12.496   6.463 129.119  0.00  0.00    +0.108 C 
ATOM     18  C   LIG A   1     -13.048   7.526 128.183  0.00  0.00    +0.020 C 
ATOM     19  C   LIG A   1     -12.113   8.704 128.420  0.00  0.00    +0.020 C 
ATOM     20  C   LIG A   1     -10.758   8.032 128.596  0.00  0.00    +0.108 C 
ENDBRANCH  12  15
ENDBRANCH   1  13
TORSDOF 3
ENDMDL
MODEL 9
REMARK VINA RESULT:      -6.6      3.925      6.992
REMARK  Name = NuBBE_373
REMARK  3 active torsions:
REMARK  status: ('A' for Active; 'I' for Inactive)
REMARK    1  A    between atoms: C_2  and  C_8
REMARK    2  A    between atoms: C_9  and  C_10
REMARK    3  A    between atoms: C_11  and  C_12
REMARK                            x       y       z     vdW  Elec       q    Type
REMARK                         _______ _______ _______ _____ _____    ______ ____
ROOT
ATOM      1  C   LIG A   1      -8.593   5.400 132.396  0.00  0.00    +0.001 C 
ATOM      2  C   LIG A   1      -9.821   5.247 131.877  0.00  0.00    +0.008 C 
ENDROOT
BRANCH   2   3
ATOM      3  C   LIG A   1     -10.390   6.045 130.790  0.00  0.00    -0.021 A 
ATOM      4  C   LIG A   1     -11.438   6.949 131.065  0.00  0.00    +0.012 A 
ATOM      5  C   LIG A   1     -11.978   7.746 130.050  0.00  0.00    +0.050 A 
ATOM      6  C   LIG A   1     -11.445   7.618 128.786  0.00  0.00    +0.166 A 
ATOM      7  C   LIG A   1     -10.429   6.733 128.513  0.00  0.00    +0.167 A 
ATOM      8  O   LIG A   1     -10.048   6.767 127.208  0.00  0.00    -0.453 OA
ATOM      9  C   LIG A   1     -10.911   7.806 126.702  0.00  0.00    +0.466 C 
ATOM     10  O   LIG A   1     -11.828   8.323 127.687  0.00  0.00    -0.453 OA
ATOM     11  C   LIG A   1      -9.881   5.929 129.491  0.00  0.00    +0.057 A 
ENDBRANCH   2   3
BRANCH   1  13
ATOM     12  C   LIG A   1      -6.332   5.962 131.674  0.00  0.00    +0.067 C 
ATOM     13  C   LIG A   1      -7.585   6.345 131.962  0.00  0.00    +0.005 C 
BRANCH  12  15
ATOM     14  O   LIG A   1      -5.520   7.510 130.073  0.00  0.00    -0.271 OA
ATOM     15  C   LIG A   1      -5.341   6.937 131.148  0.00  0.00    +0.239 C 
ATOM     16  N   LIG A   1      -4.219   7.124 131.918  0.00  0.00    -0.298 N 
ATOM     17  C   LIG A   1      -3.934   6.555 133.227  0.00  0.00    +0.108 C 
ATOM     18  C   LIG A   1      -2.704   7.306 133.711  0.00  0.00    +0.020 C 
ATOM     19  C   LIG A   1      -1.983   7.644 132.413  0.00  0.00    +0.020 C 
ATOM     20  C   LIG A   1      -3.127   7.965 131.461  0.00  0.00    +0.108 C 
ENDBRANCH  12  15
ENDBRANCH   1  13
TORSDOF 3
ENDMDL
