MODEL 1
REMARK VINA RESULT:      -4.8      0.000      0.000
REMARK  Name = NuBBE_2121
REMARK  7 active torsions:
REMARK  status: ('A' for Active; 'I' for Inactive)
REMARK    1  A    between atoms: C_1  and  C_2
REMARK    2  A    between atoms: C_2  and  C_3
REMARK    3  A    between atoms: C_3  and  C_4
REMARK    4  A    between atoms: C_4  and  C_5
REMARK    5  A    between atoms: C_5  and  C_6
REMARK    6  A    between atoms: C_6  and  C_7
REMARK    7  A    between atoms: C_7  and  C_8
REMARK                            x       y       z     vdW  Elec       q    Type
REMARK                         _______ _______ _______ _____ _____    ______ ____
ROOT
ATOM      1  C   LIG A   1      -6.022  -1.491 124.305  0.00  0.00    -0.000 C 
ENDROOT
BRANCH   1   2
ATOM      2  C   LIG A   1      -5.354  -2.915 124.569  0.00  0.00    -0.000 C 
BRANCH   2   4
ATOM      3  C   LIG A   1      -4.409  -4.786 123.663  0.00  0.00    +0.004 C 
ATOM      4  C   LIG A   1      -4.600  -3.391 123.297  0.00  0.00    -0.003 C 
ENDBRANCH   2   4
ENDBRANCH   1   2
BRANCH   1   5
ATOM      5  C   LIG A   1      -6.880  -1.268 122.971  0.00  0.00    -0.000 C 
BRANCH   5   6
ATOM      6  C   LIG A   1      -8.314  -2.092 122.565  0.00  0.00    -0.000 C 
BRANCH   6   7
ATOM      7  C   LIG A   1      -9.251  -3.184 123.797  0.00  0.00    -0.003 C 
ATOM      8  C   LIG A   1      -9.334  -3.032 125.633  0.00  0.00    +0.004 C 
ENDBRANCH   6   7
ENDBRANCH   5   6
ENDBRANCH   1   5
TORSDOF 5
ENDMDL
MODEL 2
REMARK VINA RESULT:      -4.8      1.878      2.815
REMARK  Name = NuBBE_2121
REMARK  7 active torsions:
REMARK  status: ('A' for Active; 'I' for Inactive)
REMARK    1  A    between atoms: C_1  and  C_2
REMARK    2  A    between atoms: C_2  and  C_3
REMARK    3  A    between atoms: C_3  and  C_4
REMARK    4  A    between atoms: C_4  and  C_5
REMARK    5  A    between atoms: C_5  and  C_6
REMARK    6  A    between atoms: C_6  and  C_7
REMARK    7  A    between atoms: C_7  and  C_8
REMARK                            x       y       z     vdW  Elec       q    Type
REMARK                         _______ _______ _______ _____ _____    ______ ____
ROOT
ATOM      1  C   LIG A   1      -7.083  -3.024 123.997  0.00  0.00    -0.000 C 
ENDROOT
BRANCH   1   2
ATOM      2  C   LIG A   1      -5.592  -2.966 124.559  0.00  0.00    -0.000 C 
BRANCH   2   4
ATOM      3  C   LIG A   1      -4.473  -4.729 123.635  0.00  0.00    +0.004 C 
ATOM      4  C   LIG A   1      -4.584  -3.295 123.423  0.00  0.00    -0.003 C 
ENDBRANCH   2   4
ENDBRANCH   1   2
BRANCH   1   5
ATOM      5  C   LIG A   1      -8.200  -3.811 124.834  0.00  0.00    -0.000 C 
BRANCH   5   6
ATOM      6  C   LIG A   1      -9.059  -3.193 126.168  0.00  0.00    -0.000 C 
BRANCH   6   7
ATOM      7  C   LIG A   1      -8.917  -3.930 127.908  0.00  0.00    -0.003 C 
ATOM      8  C   LIG A   1      -8.107  -3.207 129.398  0.00  0.00    +0.004 C 
ENDBRANCH   6   7
ENDBRANCH   5   6
ENDBRANCH   1   5
TORSDOF 5
ENDMDL
MODEL 3
REMARK VINA RESULT:      -4.7      1.436      4.456
REMARK  Name = NuBBE_2121
REMARK  7 active torsions:
REMARK  status: ('A' for Active; 'I' for Inactive)
REMARK    1  A    between atoms: C_1  and  C_2
REMARK    2  A    between atoms: C_2  and  C_3
REMARK    3  A    between atoms: C_3  and  C_4
REMARK    4  A    between atoms: C_4  and  C_5
REMARK    5  A    between atoms: C_5  and  C_6
REMARK    6  A    between atoms: C_6  and  C_7
REMARK    7  A    between atoms: C_7  and  C_8
REMARK                            x       y       z     vdW  Elec       q    Type
REMARK                         _______ _______ _______ _____ _____    ______ ____
ROOT
ATOM      1  C   LIG A   1      -8.380  -3.735 124.948  0.00  0.00    -0.000 C 
ENDROOT
BRANCH   1   2
ATOM      2  C   LIG A   1      -9.117  -2.885 126.079  0.00  0.00    -0.000 C 
BRANCH   2   4
ATOM      3  C   LIG A   1      -8.940  -4.051 128.035  0.00  0.00    +0.004 C 
ATOM      4  C   LIG A   1      -8.288  -2.920 127.392  0.00  0.00    -0.003 C 
ENDBRANCH   2   4
ENDBRANCH   1   2
BRANCH   1   5
ATOM      5  C   LIG A   1      -7.949  -3.010 123.586  0.00  0.00    -0.000 C 
BRANCH   5   6
ATOM      6  C   LIG A   1      -6.468  -2.215 123.311  0.00  0.00    -0.000 C 
BRANCH   6   7
ATOM      7  C   LIG A   1      -4.791  -3.056 123.575  0.00  0.00    -0.003 C 
ATOM      8  C   LIG A   1      -4.391  -4.856 123.537  0.00  0.00    +0.004 C 
ENDBRANCH   6   7
ENDBRANCH   5   6
ENDBRANCH   1   5
TORSDOF 5
ENDMDL
MODEL 4
REMARK VINA RESULT:      -4.6     11.800     13.235
REMARK  Name = NuBBE_2121
REMARK  7 active torsions:
REMARK  status: ('A' for Active; 'I' for Inactive)
REMARK    1  A    between atoms: C_1  and  C_2
REMARK    2  A    between atoms: C_2  and  C_3
REMARK    3  A    between atoms: C_3  and  C_4
REMARK    4  A    between atoms: C_4  and  C_5
REMARK    5  A    between atoms: C_5  and  C_6
REMARK    6  A    between atoms: C_6  and  C_7
REMARK    7  A    between atoms: C_7  and  C_8
REMARK                            x       y       z     vdW  Elec       q    Type
REMARK                         _______ _______ _______ _____ _____    ______ ____
ROOT
ATOM      1  C   LIG A   1     -12.691   8.792 129.926  0.00  0.00    -0.000 C 
ENDROOT
BRANCH   1   2
ATOM      2  C   LIG A   1     -12.365   8.636 128.373  0.00  0.00    -0.000 C 
BRANCH   2   4
ATOM      3  C   LIG A   1     -10.843   7.720 126.937  0.00  0.00    +0.004 C 
ATOM      4  C   LIG A   1     -10.832   8.502 128.164  0.00  0.00    -0.003 C 
ENDBRANCH   2   4
ENDBRANCH   1   2
BRANCH   1   5
ATOM      5  C   LIG A   1     -12.950   7.477 130.804  0.00  0.00    -0.000 C 
BRANCH   5   6
ATOM      6  C   LIG A   1     -11.773   6.639 131.705  0.00  0.00    -0.000 C 
BRANCH   6   7
ATOM      7  C   LIG A   1     -10.145   6.033 130.950  0.00  0.00    -0.003 C 
ATOM      8  C   LIG A   1      -8.545   6.937 130.793  0.00  0.00    +0.004 C 
ENDBRANCH   6   7
ENDBRANCH   5   6
ENDBRANCH   1   5
TORSDOF 5
ENDMDL
MODEL 5
REMARK VINA RESULT:      -4.6      0.775      4.140
REMARK  Name = NuBBE_2121
REMARK  7 active torsions:
REMARK  status: ('A' for Active; 'I' for Inactive)
REMARK    1  A    between atoms: C_1  and  C_2
REMARK    2  A    between atoms: C_2  and  C_3
REMARK    3  A    between atoms: C_3  and  C_4
REMARK    4  A    between atoms: C_4  and  C_5
REMARK    5  A    between atoms: C_5  and  C_6
REMARK    6  A    between atoms: C_6  and  C_7
REMARK    7  A    between atoms: C_7  and  C_8
REMARK                            x       y       z     vdW  Elec       q    Type
REMARK                         _______ _______ _______ _____ _____    ______ ____
ROOT
ATOM      1  C   LIG A   1      -9.089  -2.547 123.265  0.00  0.00    -0.000 C 
ENDROOT
BRANCH   1   2
ATOM      2  C   LIG A   1      -9.033  -3.582 124.477  0.00  0.00    -0.000 C 
BRANCH   2   4
ATOM      3  C   LIG A   1      -8.460  -3.349 126.676  0.00  0.00    +0.004 C 
ATOM      4  C   LIG A   1      -9.516  -2.895 125.784  0.00  0.00    -0.003 C 
ENDBRANCH   2   4
ENDBRANCH   1   2
BRANCH   1   5
ATOM      5  C   LIG A   1      -7.726  -2.132 122.532  0.00  0.00    -0.000 C 
BRANCH   5   6
ATOM      6  C   LIG A   1      -6.235  -1.840 123.302  0.00  0.00    -0.000 C 
BRANCH   6   7
ATOM      7  C   LIG A   1      -5.297  -3.180 124.258  0.00  0.00    -0.003 C 
ATOM      8  C   LIG A   1      -4.419  -4.660 123.596  0.00  0.00    +0.004 C 
ENDBRANCH   6   7
ENDBRANCH   5   6
ENDBRANCH   1   5
TORSDOF 5
ENDMDL
MODEL 6
REMARK VINA RESULT:      -4.5      1.034      4.191
REMARK  Name = NuBBE_2121
REMARK  7 active torsions:
REMARK  status: ('A' for Active; 'I' for Inactive)
REMARK    1  A    between atoms: C_1  and  C_2
REMARK    2  A    between atoms: C_2  and  C_3
REMARK    3  A    between atoms: C_3  and  C_4
REMARK    4  A    between atoms: C_4  and  C_5
REMARK    5  A    between atoms: C_5  and  C_6
REMARK    6  A    between atoms: C_6  and  C_7
REMARK    7  A    between atoms: C_7  and  C_8
REMARK                            x       y       z     vdW  Elec       q    Type
REMARK                         _______ _______ _______ _____ _____    ______ ____
ROOT
ATOM      1  C   LIG A   1      -7.965  -1.917 126.201  0.00  0.00    -0.000 C 
ENDROOT
BRANCH   1   2
ATOM      2  C   LIG A   1      -9.124  -2.896 125.709  0.00  0.00    -0.000 C 
BRANCH   2   4
ATOM      3  C   LIG A   1      -9.278  -3.080 123.438  0.00  0.00    +0.004 C 
ATOM      4  C   LIG A   1      -8.615  -3.772 124.532  0.00  0.00    -0.003 C 
ENDBRANCH   2   4
ENDBRANCH   1   2
BRANCH   1   5
ATOM      5  C   LIG A   1      -6.443  -2.274 125.850  0.00  0.00    -0.000 C 
BRANCH   5   6
ATOM      6  C   LIG A   1      -5.626  -1.836 124.421  0.00  0.00    -0.000 C 
BRANCH   6   7
ATOM      7  C   LIG A   1      -4.614  -3.071 123.402  0.00  0.00    -0.003 C 
ATOM      8  C   LIG A   1      -4.478  -4.897 123.616  0.00  0.00    +0.004 C 
ENDBRANCH   6   7
ENDBRANCH   5   6
ENDBRANCH   1   5
TORSDOF 5
ENDMDL
MODEL 7
REMARK VINA RESULT:      -4.3      1.475      2.578
REMARK  Name = NuBBE_2121
REMARK  7 active torsions:
REMARK  status: ('A' for Active; 'I' for Inactive)
REMARK    1  A    between atoms: C_1  and  C_2
REMARK    2  A    between atoms: C_2  and  C_3
REMARK    3  A    between atoms: C_3  and  C_4
REMARK    4  A    between atoms: C_4  and  C_5
REMARK    5  A    between atoms: C_5  and  C_6
REMARK    6  A    between atoms: C_6  and  C_7
REMARK    7  A    between atoms: C_7  and  C_8
REMARK                            x       y       z     vdW  Elec       q    Type
REMARK                         _______ _______ _______ _____ _____    ______ ____
ROOT
ATOM      1  C   LIG A   1      -7.140  -3.448 124.033  0.00  0.00    -0.000 C 
ENDROOT
BRANCH   1   2
ATOM      2  C   LIG A   1      -5.686  -3.076 124.574  0.00  0.00    -0.000 C 
BRANCH   2   4
ATOM      3  C   LIG A   1      -4.363  -4.684 123.637  0.00  0.00    +0.004 C 
ATOM      4  C   LIG A   1      -4.635  -3.267 123.447  0.00  0.00    -0.003 C 
ENDBRANCH   2   4
ENDBRANCH   1   2
BRANCH   1   5
ATOM      5  C   LIG A   1      -8.283  -3.846 125.081  0.00  0.00    -0.000 C 
BRANCH   5   6
ATOM      6  C   LIG A   1      -9.253  -2.752 125.954  0.00  0.00    -0.000 C 
BRANCH   6   7
ATOM      7  C   LIG A   1      -9.111  -0.874 125.755  0.00  0.00    -0.003 C 
ATOM      8  C   LIG A   1      -7.741   0.100 124.997  0.00  0.00    +0.004 C 
ENDBRANCH   6   7
ENDBRANCH   5   6
ENDBRANCH   1   5
TORSDOF 5
ENDMDL
MODEL 8
REMARK VINA RESULT:      -4.2      2.562      3.725
REMARK  Name = NuBBE_2121
REMARK  7 active torsions:
REMARK  status: ('A' for Active; 'I' for Inactive)
REMARK    1  A    between atoms: C_1  and  C_2
REMARK    2  A    between atoms: C_2  and  C_3
REMARK    3  A    between atoms: C_3  and  C_4
REMARK    4  A    between atoms: C_4  and  C_5
REMARK    5  A    between atoms: C_5  and  C_6
REMARK    6  A    between atoms: C_6  and  C_7
REMARK    7  A    between atoms: C_7  and  C_8
REMARK                            x       y       z     vdW  Elec       q    Type
REMARK                         _______ _______ _______ _____ _____    ______ ____
ROOT
ATOM      1  C   LIG A   1      -7.582  -2.597 125.308  0.00  0.00    -0.000 C 
ENDROOT
BRANCH   1   2
ATOM      2  C   LIG A   1      -6.842  -3.603 124.317  0.00  0.00    -0.000 C 
BRANCH   2   4
ATOM      3  C   LIG A   1      -4.682  -4.144 123.811  0.00  0.00    +0.004 C 
ATOM      4  C   LIG A   1      -5.528  -2.961 123.793  0.00  0.00    -0.003 C 
ENDBRANCH   2   4
ENDBRANCH   1   2
BRANCH   1   5
ATOM      5  C   LIG A   1      -8.908  -3.083 126.064  0.00  0.00    -0.000 C 
BRANCH   5   6
ATOM      6  C   LIG A   1      -8.955  -3.910 127.552  0.00  0.00    -0.000 C 
BRANCH   6   7
ATOM      7  C   LIG A   1      -8.141  -3.234 129.124  0.00  0.00    -0.003 C 
ATOM      8  C   LIG A   1      -6.574  -3.777 129.930  0.00  0.00    +0.004 C 
ENDBRANCH   6   7
ENDBRANCH   5   6
ENDBRANCH   1   5
TORSDOF 5
ENDMDL
MODEL 9
REMARK VINA RESULT:      -4.2      3.597      5.619
REMARK  Name = NuBBE_2121
REMARK  7 active torsions:
REMARK  status: ('A' for Active; 'I' for Inactive)
REMARK    1  A    between atoms: C_1  and  C_2
REMARK    2  A    between atoms: C_2  and  C_3
REMARK    3  A    between atoms: C_3  and  C_4
REMARK    4  A    between atoms: C_4  and  C_5
REMARK    5  A    between atoms: C_5  and  C_6
REMARK    6  A    between atoms: C_6  and  C_7
REMARK    7  A    between atoms: C_7  and  C_8
REMARK                            x       y       z     vdW  Elec       q    Type
REMARK                         _______ _______ _______ _____ _____    ______ ____
ROOT
ATOM      1  C   LIG A   1      -8.342  -3.287 126.694  0.00  0.00    -0.000 C 
ENDROOT
BRANCH   1   2
ATOM      2  C   LIG A   1      -9.554  -2.872 125.744  0.00  0.00    -0.000 C 
BRANCH   2   4
ATOM      3  C   LIG A   1      -7.867  -3.703 124.448  0.00  0.00    +0.004 C 
ATOM      4  C   LIG A   1      -9.259  -3.314 124.284  0.00  0.00    -0.003 C 
ENDBRANCH   2   4
ENDBRANCH   1   2
BRANCH   1   5
ATOM      5  C   LIG A   1      -8.639  -3.625 128.232  0.00  0.00    -0.000 C 
BRANCH   5   6
ATOM      6  C   LIG A   1      -8.088  -2.726 129.569  0.00  0.00    -0.000 C 
BRANCH   6   7
ATOM      7  C   LIG A   1      -6.872  -3.426 130.842  0.00  0.00    -0.003 C 
ATOM      8  C   LIG A   1      -5.643  -4.784 130.629  0.00  0.00    +0.004 C 
ENDBRANCH   6   7
ENDBRANCH   5   6
ENDBRANCH   1   5
TORSDOF 5
ENDMDL
