MODEL 1
REMARK VINA RESULT:      -7.3      0.000      0.000
REMARK  Name = NuBBE_2389
REMARK  10 active torsions:
REMARK  status: ('A' for Active; 'I' for Inactive)
REMARK    1  A    between atoms: C_1  and  C_2
REMARK    2  A    between atoms: C_5  and  C_6
REMARK    3  A    between atoms: C_5  and  C_8
REMARK    4  A    between atoms: C_6  and  O_7
REMARK    5  A    between atoms: C_16  and  C_18
REMARK    6  A    between atoms: C_18  and  C_19
REMARK    7  A    between atoms: C_19  and  C_20
REMARK    8  A    between atoms: C_20  and  C_25
REMARK    9  A    between atoms: C_21  and  C_22
REMARK   10  A    between atoms: C_22  and  O_24
REMARK                            x       y       z     vdW  Elec       q    Type
REMARK                         _______ _______ _______ _____ _____    ______ ____
ROOT
ATOM      1  C   LIG A   1      -7.327  -0.509 126.655  0.00  0.00    +0.012 C 
ATOM      2  C   LIG A   1      -6.917  -1.954 126.281  0.00  0.00    -0.022 C 
ATOM      3  C   LIG A   1      -8.057  -2.771 125.532  0.00  0.00    +0.004 C 
ATOM      4  C   LIG A   1      -8.412  -2.316 124.067  0.00  0.00    -0.006 C 
ATOM      5  C   LIG A   1      -9.287  -3.402 123.378  0.00  0.00    +0.014 C 
ATOM      6  C   LIG A   1      -7.096  -2.236 123.252  0.00  0.00    +0.009 C 
ATOM      7  C   LIG A   1      -6.008  -1.405 123.919  0.00  0.00    +0.001 C 
ATOM      8  C   LIG A   1      -5.685  -1.890 125.335  0.00  0.00    +0.007 C 
ATOM      9  C   LIG A   1      -9.290  -3.002 126.433  0.00  0.00    +0.009 C 
ATOM     10  C   LIG A   1      -8.905  -3.716 127.729  0.00  0.00    +0.031 C 
ATOM     11  C   LIG A   1      -7.835  -2.939 128.450  0.00  0.00    -0.073 C 
ATOM     12  C   LIG A   1      -8.080  -2.454 129.680  0.00  0.00    +0.008 C 
ATOM     13  C   LIG A   1      -6.559  -2.751 127.621  0.00  0.00    +0.021 C 
ENDROOT
BRANCH   4  14
ATOM     14  C   LIG A   1      -9.202  -0.986 123.991  0.00  0.00    +0.162 C 
BRANCH  14  15
ATOM     15  O   LIG A   1     -10.057  -0.966 122.848  0.00  0.00    -0.395 OA
ATOM     16  H   LIG A   1     -10.737  -1.646 122.988  0.00  0.00    +0.209 HD
ENDBRANCH  14  15
ENDBRANCH   4  14
BRANCH  13  17
ATOM     17  C   LIG A   1      -5.337  -2.197 128.410  0.00  0.00    +0.013 C 
BRANCH  17  18
ATOM     18  C   LIG A   1      -4.312  -3.254 128.874  0.00  0.00    +0.031 C 
BRANCH  18  19
ATOM     19  C   LIG A   1      -4.450  -3.675 130.319  0.00  0.00    -0.066 C 
ATOM     20  C   LIG A   1      -3.751  -3.048 131.282  0.00  0.00    +0.090 C 
ATOM     21  C   LIG A   1      -5.405  -4.809 130.572  0.00  0.00    +0.039 C 
BRANCH  20  22
ATOM     22  C   LIG A   1      -3.831  -3.335 132.733  0.00  0.00    +0.330 C 
ATOM     23  O   LIG A   1      -4.688  -2.920 133.487  0.00  0.00    -0.246 OA
BRANCH  22  24
ATOM     24  O   LIG A   1      -2.814  -4.102 133.158  0.00  0.00    -0.477 OA
ATOM     25  H   LIG A   1      -3.057  -5.009 133.437  0.00  0.00    +0.295 HD
ENDBRANCH  22  24
ENDBRANCH  20  22
ENDBRANCH  18  19
ENDBRANCH  17  18
ENDBRANCH  13  17
TORSDOF 7
ENDMDL
MODEL 2
REMARK VINA RESULT:      -6.7      4.198      6.015
REMARK  Name = NuBBE_2389
REMARK  10 active torsions:
REMARK  status: ('A' for Active; 'I' for Inactive)
REMARK    1  A    between atoms: C_1  and  C_2
REMARK    2  A    between atoms: C_5  and  C_6
REMARK    3  A    between atoms: C_5  and  C_8
REMARK    4  A    between atoms: C_6  and  O_7
REMARK    5  A    between atoms: C_16  and  C_18
REMARK    6  A    between atoms: C_18  and  C_19
REMARK    7  A    between atoms: C_19  and  C_20
REMARK    8  A    between atoms: C_20  and  C_25
REMARK    9  A    between atoms: C_21  and  C_22
REMARK   10  A    between atoms: C_22  and  O_24
REMARK                            x       y       z     vdW  Elec       q    Type
REMARK                         _______ _______ _______ _____ _____    ______ ____
ROOT
ATOM      1  C   LIG A   1      -8.837   0.204 125.941  0.00  0.00    +0.012 C 
ATOM      2  C   LIG A   1      -7.444  -0.471 125.900  0.00  0.00    -0.022 C 
ATOM      3  C   LIG A   1      -7.501  -2.059 125.890  0.00  0.00    +0.004 C 
ATOM      4  C   LIG A   1      -8.054  -2.743 124.583  0.00  0.00    -0.006 C 
ATOM      5  C   LIG A   1      -7.736  -4.265 124.612  0.00  0.00    +0.014 C 
ATOM      6  C   LIG A   1      -7.284  -2.161 123.369  0.00  0.00    +0.009 C 
ATOM      7  C   LIG A   1      -7.269  -0.638 123.322  0.00  0.00    +0.001 C 
ATOM      8  C   LIG A   1      -6.712  -0.017 124.605  0.00  0.00    +0.007 C 
ATOM      9  C   LIG A   1      -8.102  -2.625 127.195  0.00  0.00    +0.009 C 
ATOM     10  C   LIG A   1      -7.326  -2.141 128.419  0.00  0.00    +0.031 C 
ATOM     11  C   LIG A   1      -7.281  -0.635 128.443  0.00  0.00    -0.073 C 
ATOM     12  C   LIG A   1      -7.833   0.031 129.471  0.00  0.00    +0.008 C 
ATOM     13  C   LIG A   1      -6.620  -0.030 127.198  0.00  0.00    +0.021 C 
ENDROOT
BRANCH   4  14
ATOM     14  C   LIG A   1      -9.584  -2.605 124.396  0.00  0.00    +0.162 C 
BRANCH  14  15
ATOM     15  O   LIG A   1     -10.068  -3.549 123.440  0.00  0.00    -0.395 OA
ATOM     16  H   LIG A   1     -11.020  -3.384 123.332  0.00  0.00    +0.209 HD
ENDBRANCH  14  15
ENDBRANCH   4  14
BRANCH  13  17
ATOM     17  C   LIG A   1      -6.307   1.492 127.294  0.00  0.00    +0.013 C 
BRANCH  17  18
ATOM     18  C   LIG A   1      -4.877   1.903 126.883  0.00  0.00    +0.031 C 
BRANCH  18  19
ATOM     19  C   LIG A   1      -4.800   3.139 126.018  0.00  0.00    -0.066 C 
ATOM     20  C   LIG A   1      -5.827   3.475 125.216  0.00  0.00    +0.090 C 
ATOM     21  C   LIG A   1      -3.525   3.928 126.132  0.00  0.00    +0.039 C 
BRANCH  20  22
ATOM     22  C   LIG A   1      -5.892   4.680 124.357  0.00  0.00    +0.330 C 
ATOM     23  O   LIG A   1      -5.476   4.756 123.218  0.00  0.00    -0.246 OA
BRANCH  22  24
ATOM     24  O   LIG A   1      -6.449   5.727 124.987  0.00  0.00    -0.477 OA
ATOM     25  H   LIG A   1      -6.919   5.517 125.820  0.00  0.00    +0.295 HD
ENDBRANCH  22  24
ENDBRANCH  20  22
ENDBRANCH  18  19
ENDBRANCH  17  18
ENDBRANCH  13  17
TORSDOF 7
ENDMDL
MODEL 3
REMARK VINA RESULT:      -6.7      9.030     12.092
REMARK  Name = NuBBE_2389
REMARK  10 active torsions:
REMARK  status: ('A' for Active; 'I' for Inactive)
REMARK    1  A    between atoms: C_1  and  C_2
REMARK    2  A    between atoms: C_5  and  C_6
REMARK    3  A    between atoms: C_5  and  C_8
REMARK    4  A    between atoms: C_6  and  O_7
REMARK    5  A    between atoms: C_16  and  C_18
REMARK    6  A    between atoms: C_18  and  C_19
REMARK    7  A    between atoms: C_19  and  C_20
REMARK    8  A    between atoms: C_20  and  C_25
REMARK    9  A    between atoms: C_21  and  C_22
REMARK   10  A    between atoms: C_22  and  O_24
REMARK                            x       y       z     vdW  Elec       q    Type
REMARK                         _______ _______ _______ _____ _____    ______ ____
ROOT
ATOM      1  C   LIG A   1      -6.540   4.306 131.451  0.00  0.00    +0.012 C 
ATOM      2  C   LIG A   1      -6.751   5.680 132.133  0.00  0.00    -0.022 C 
ATOM      3  C   LIG A   1      -5.781   5.942 133.364  0.00  0.00    +0.004 C 
ATOM      4  C   LIG A   1      -4.256   6.153 133.035  0.00  0.00    -0.006 C 
ATOM      5  C   LIG A   1      -3.521   6.714 134.286  0.00  0.00    +0.014 C 
ATOM      6  C   LIG A   1      -4.142   7.244 131.939  0.00  0.00    +0.009 C 
ATOM      7  C   LIG A   1      -5.016   6.984 130.719  0.00  0.00    +0.001 C 
ATOM      8  C   LIG A   1      -6.492   6.798 131.083  0.00  0.00    +0.007 C 
ATOM      9  C   LIG A   1      -6.041   4.956 134.525  0.00  0.00    +0.009 C 
ATOM     10  C   LIG A   1      -7.496   5.016 134.988  0.00  0.00    +0.031 C 
ATOM     11  C   LIG A   1      -8.421   4.755 133.828  0.00  0.00    -0.073 C 
ATOM     12  C   LIG A   1      -9.246   3.694 133.860  0.00  0.00    +0.008 C 
ATOM     13  C   LIG A   1      -8.252   5.758 132.681  0.00  0.00    +0.021 C 
ENDROOT
BRANCH   4  14
ATOM     14  C   LIG A   1      -3.512   4.860 132.619  0.00  0.00    +0.162 C 
BRANCH  14  15
ATOM     15  O   LIG A   1      -2.099   5.028 132.725  0.00  0.00    -0.395 OA
ATOM     16  H   LIG A   1      -1.720   4.820 131.854  0.00  0.00    +0.209 HD
ENDBRANCH  14  15
ENDBRANCH   4  14
BRANCH  13  17
ATOM     17  C   LIG A   1      -9.357   5.698 131.586  0.00  0.00    +0.013 C 
BRANCH  17  18
ATOM     18  C   LIG A   1     -10.675   6.424 131.933  0.00  0.00    +0.031 C 
BRANCH  18  19
ATOM     19  C   LIG A   1     -11.432   6.960 130.741  0.00  0.00    -0.066 C 
ATOM     20  C   LIG A   1     -10.820   7.099 129.550  0.00  0.00    +0.090 C 
ATOM     21  C   LIG A   1     -12.874   7.306 130.994  0.00  0.00    +0.039 C 
BRANCH  20  22
ATOM     22  C   LIG A   1     -11.461   7.569 128.300  0.00  0.00    +0.330 C 
ATOM     23  O   LIG A   1     -11.961   6.855 127.454  0.00  0.00    -0.246 OA
BRANCH  22  24
ATOM     24  O   LIG A   1     -11.411   8.904 128.172  0.00  0.00    -0.477 OA
ATOM     25  H   LIG A   1     -10.537   9.273 127.932  0.00  0.00    +0.295 HD
ENDBRANCH  22  24
ENDBRANCH  20  22
ENDBRANCH  18  19
ENDBRANCH  17  18
ENDBRANCH  13  17
TORSDOF 7
ENDMDL
MODEL 4
REMARK VINA RESULT:      -6.6      2.306      7.253
REMARK  Name = NuBBE_2389
REMARK  10 active torsions:
REMARK  status: ('A' for Active; 'I' for Inactive)
REMARK    1  A    between atoms: C_1  and  C_2
REMARK    2  A    between atoms: C_5  and  C_6
REMARK    3  A    between atoms: C_5  and  C_8
REMARK    4  A    between atoms: C_6  and  O_7
REMARK    5  A    between atoms: C_16  and  C_18
REMARK    6  A    between atoms: C_18  and  C_19
REMARK    7  A    between atoms: C_19  and  C_20
REMARK    8  A    between atoms: C_20  and  C_25
REMARK    9  A    between atoms: C_21  and  C_22
REMARK   10  A    between atoms: C_22  and  O_24
REMARK                            x       y       z     vdW  Elec       q    Type
REMARK                         _______ _______ _______ _____ _____    ______ ____
ROOT
ATOM      1  C   LIG A   1      -5.576  -2.269 126.629  0.00  0.00    +0.012 C 
ATOM      2  C   LIG A   1      -6.864  -1.435 126.839  0.00  0.00    -0.022 C 
ATOM      3  C   LIG A   1      -7.650  -1.792 128.174  0.00  0.00    +0.004 C 
ATOM      4  C   LIG A   1      -6.966  -1.383 129.532  0.00  0.00    -0.006 C 
ATOM      5  C   LIG A   1      -7.993  -1.501 130.693  0.00  0.00    +0.014 C 
ATOM      6  C   LIG A   1      -6.575   0.115 129.447  0.00  0.00    +0.009 C 
ATOM      7  C   LIG A   1      -5.767   0.471 128.206  0.00  0.00    +0.001 C 
ATOM      8  C   LIG A   1      -6.474   0.069 126.910  0.00  0.00    +0.007 C 
ATOM      9  C   LIG A   1      -8.193  -3.238 128.156  0.00  0.00    +0.009 C 
ATOM     10  C   LIG A   1      -9.093  -3.478 126.944  0.00  0.00    +0.031 C 
ATOM     11  C   LIG A   1      -8.349  -3.155 125.674  0.00  0.00    -0.073 C 
ATOM     12  C   LIG A   1      -8.142  -4.119 124.761  0.00  0.00    +0.008 C 
ATOM     13  C   LIG A   1      -7.856  -1.704 125.613  0.00  0.00    +0.021 C 
ENDROOT
BRANCH   4  14
ATOM     14  C   LIG A   1      -5.748  -2.259 129.917  0.00  0.00    +0.162 C 
BRANCH  14  15
ATOM     15  O   LIG A   1      -5.045  -1.696 131.024  0.00  0.00    -0.395 OA
ATOM     16  H   LIG A   1      -4.200  -2.172 131.098  0.00  0.00    +0.209 HD
ENDBRANCH  14  15
ENDBRANCH   4  14
BRANCH  13  17
ATOM     17  C   LIG A   1      -7.325  -1.248 124.223  0.00  0.00    +0.013 C 
BRANCH  17  18
ATOM     18  C   LIG A   1      -8.408  -0.872 123.189  0.00  0.00    +0.031 C 
BRANCH  18  19
ATOM     19  C   LIG A   1      -8.916   0.547 123.294  0.00  0.00    -0.066 C 
ATOM     20  C   LIG A   1      -8.151   1.506 123.848  0.00  0.00    +0.090 C 
ATOM     21  C   LIG A   1     -10.296   0.781 122.743  0.00  0.00    +0.039 C 
BRANCH  20  22
ATOM     22  C   LIG A   1      -8.515   2.937 123.969  0.00  0.00    +0.330 C 
ATOM     23  O   LIG A   1      -8.982   3.463 124.959  0.00  0.00    -0.246 OA
BRANCH  22  24
ATOM     24  O   LIG A   1      -8.298   3.616 122.832  0.00  0.00    -0.477 OA
ATOM     25  H   LIG A   1      -7.833   3.121 122.126  0.00  0.00    +0.295 HD
ENDBRANCH  22  24
ENDBRANCH  20  22
ENDBRANCH  18  19
ENDBRANCH  17  18
ENDBRANCH  13  17
TORSDOF 7
ENDMDL
MODEL 5
REMARK VINA RESULT:      -6.5      2.903      7.194
REMARK  Name = NuBBE_2389
REMARK  10 active torsions:
REMARK  status: ('A' for Active; 'I' for Inactive)
REMARK    1  A    between atoms: C_1  and  C_2
REMARK    2  A    between atoms: C_5  and  C_6
REMARK    3  A    between atoms: C_5  and  C_8
REMARK    4  A    between atoms: C_6  and  O_7
REMARK    5  A    between atoms: C_16  and  C_18
REMARK    6  A    between atoms: C_18  and  C_19
REMARK    7  A    between atoms: C_19  and  C_20
REMARK    8  A    between atoms: C_20  and  C_25
REMARK    9  A    between atoms: C_21  and  C_22
REMARK   10  A    between atoms: C_22  and  O_24
REMARK                            x       y       z     vdW  Elec       q    Type
REMARK                         _______ _______ _______ _____ _____    ______ ____
ROOT
ATOM      1  C   LIG A   1      -6.136  -1.876 125.327  0.00  0.00    +0.012 C 
ATOM      2  C   LIG A   1      -7.312  -1.102 125.969  0.00  0.00    -0.022 C 
ATOM      3  C   LIG A   1      -7.858  -1.759 127.310  0.00  0.00    +0.004 C 
ATOM      4  C   LIG A   1      -6.912  -1.698 128.568  0.00  0.00    -0.006 C 
ATOM      5  C   LIG A   1      -7.713  -2.078 129.845  0.00  0.00    +0.014 C 
ATOM      6  C   LIG A   1      -6.457  -0.228 128.761  0.00  0.00    +0.009 C 
ATOM      7  C   LIG A   1      -5.872   0.406 127.506  0.00  0.00    +0.001 C 
ATOM      8  C   LIG A   1      -6.829   0.336 126.313  0.00  0.00    +0.007 C 
ATOM      9  C   LIG A   1      -8.479  -3.151 127.060  0.00  0.00    +0.009 C 
ATOM     10  C   LIG A   1      -9.599  -3.081 126.023  0.00  0.00    +0.031 C 
ATOM     11  C   LIG A   1      -9.085  -2.471 124.745  0.00  0.00    -0.073 C 
ATOM     12  C   LIG A   1      -9.107  -3.190 123.609  0.00  0.00    +0.008 C 
ATOM     13  C   LIG A   1      -8.527  -1.055 124.930  0.00  0.00    +0.021 C 
ENDROOT
BRANCH   4  14
ATOM     14  C   LIG A   1      -5.698  -2.656 128.495  0.00  0.00    +0.162 C 
BRANCH  14  15
ATOM     15  O   LIG A   1      -4.721  -2.317 129.478  0.00  0.00    -0.395 OA
ATOM     16  H   LIG A   1      -4.311  -1.481 129.198  0.00  0.00    +0.209 HD
ENDBRANCH  14  15
ENDBRANCH   4  14
BRANCH  13  17
ATOM     17  C   LIG A   1      -8.236  -0.285 123.610  0.00  0.00    +0.013 C 
BRANCH  17  18
ATOM     18  C   LIG A   1      -9.260   0.810 123.240  0.00  0.00    +0.031 C 
BRANCH  18  19
ATOM     19  C   LIG A   1      -8.795   2.223 123.505  0.00  0.00    -0.066 C 
ATOM     20  C   LIG A   1      -8.665   2.673 124.767  0.00  0.00    +0.090 C 
ATOM     21  C   LIG A   1      -8.499   3.045 122.281  0.00  0.00    +0.039 C 
BRANCH  20  22
ATOM     22  C   LIG A   1      -8.178   4.017 125.158  0.00  0.00    +0.330 C 
ATOM     23  O   LIG A   1      -8.873   4.925 125.568  0.00  0.00    -0.246 OA
BRANCH  22  24
ATOM     24  O   LIG A   1      -6.854   4.150 124.983  0.00  0.00    -0.477 OA
ATOM     25  H   LIG A   1      -6.335   4.311 125.798  0.00  0.00    +0.295 HD
ENDBRANCH  22  24
ENDBRANCH  20  22
ENDBRANCH  18  19
ENDBRANCH  17  18
ENDBRANCH  13  17
TORSDOF 7
ENDMDL
MODEL 6
REMARK VINA RESULT:      -6.2      3.973      4.913
REMARK  Name = NuBBE_2389
REMARK  10 active torsions:
REMARK  status: ('A' for Active; 'I' for Inactive)
REMARK    1  A    between atoms: C_1  and  C_2
REMARK    2  A    between atoms: C_5  and  C_6
REMARK    3  A    between atoms: C_5  and  C_8
REMARK    4  A    between atoms: C_6  and  O_7
REMARK    5  A    between atoms: C_16  and  C_18
REMARK    6  A    between atoms: C_18  and  C_19
REMARK    7  A    between atoms: C_19  and  C_20
REMARK    8  A    between atoms: C_20  and  C_25
REMARK    9  A    between atoms: C_21  and  C_22
REMARK   10  A    between atoms: C_22  and  O_24
REMARK                            x       y       z     vdW  Elec       q    Type
REMARK                         _______ _______ _______ _____ _____    ______ ____
ROOT
ATOM      1  C   LIG A   1      -8.949  -0.115 126.401  0.00  0.00    +0.012 C 
ATOM      2  C   LIG A   1      -7.544  -0.765 126.359  0.00  0.00    -0.022 C 
ATOM      3  C   LIG A   1      -7.573  -2.350 126.244  0.00  0.00    +0.004 C 
ATOM      4  C   LIG A   1      -8.075  -2.955 124.880  0.00  0.00    -0.006 C 
ATOM      5  C   LIG A   1      -7.732  -4.471 124.821  0.00  0.00    +0.014 C 
ATOM      6  C   LIG A   1      -7.281  -2.284 123.730  0.00  0.00    +0.009 C 
ATOM      7  C   LIG A   1      -7.291  -0.762 123.781  0.00  0.00    +0.001 C 
ATOM      8  C   LIG A   1      -6.783  -0.216 125.119  0.00  0.00    +0.007 C 
ATOM      9  C   LIG A   1      -8.202  -3.009 127.492  0.00  0.00    +0.009 C 
ATOM     10  C   LIG A   1      -7.471  -2.593 128.768  0.00  0.00    +0.031 C 
ATOM     11  C   LIG A   1      -7.452  -1.091 128.889  0.00  0.00    -0.073 C 
ATOM     12  C   LIG A   1      -8.046  -0.502 129.941  0.00  0.00    +0.008 C 
ATOM     13  C   LIG A   1      -6.767  -0.396 127.707  0.00  0.00    +0.021 C 
ENDROOT
BRANCH   4  14
ATOM     14  C   LIG A   1      -9.602  -2.829 124.656  0.00  0.00    +0.162 C 
BRANCH  14  15
ATOM     15  O   LIG A   1      -9.976  -3.363 123.386  0.00  0.00    -0.395 OA
ATOM     16  H   LIG A   1     -10.483  -2.674 122.924  0.00  0.00    +0.209 HD
ENDBRANCH  14  15
ENDBRANCH   4  14
BRANCH  13  17
ATOM     17  C   LIG A   1      -6.483   1.121 127.911  0.00  0.00    +0.013 C 
BRANCH  17  18
ATOM     18  C   LIG A   1      -5.066   1.469 128.415  0.00  0.00    +0.031 C 
BRANCH  18  19
ATOM     19  C   LIG A   1      -4.288   2.402 127.516  0.00  0.00    -0.066 C 
ATOM     20  C   LIG A   1      -3.061   2.825 127.869  0.00  0.00    +0.090 C 
ATOM     21  C   LIG A   1      -4.982   2.796 126.240  0.00  0.00    +0.039 C 
BRANCH  20  22
ATOM     22  C   LIG A   1      -2.182   3.700 127.059  0.00  0.00    +0.330 C 
ATOM     23  O   LIG A   1      -1.545   3.351 126.086  0.00  0.00    -0.246 OA
BRANCH  22  24
ATOM     24  O   LIG A   1      -2.133   4.954 127.535  0.00  0.00    -0.477 OA
ATOM     25  H   LIG A   1      -2.818   5.183 128.196  0.00  0.00    +0.295 HD
ENDBRANCH  22  24
ENDBRANCH  20  22
ENDBRANCH  18  19
ENDBRANCH  17  18
ENDBRANCH  13  17
TORSDOF 7
ENDMDL
MODEL 7
REMARK VINA RESULT:      -6.2      1.636      2.697
REMARK  Name = NuBBE_2389
REMARK  10 active torsions:
REMARK  status: ('A' for Active; 'I' for Inactive)
REMARK    1  A    between atoms: C_1  and  C_2
REMARK    2  A    between atoms: C_5  and  C_6
REMARK    3  A    between atoms: C_5  and  C_8
REMARK    4  A    between atoms: C_6  and  O_7
REMARK    5  A    between atoms: C_16  and  C_18
REMARK    6  A    between atoms: C_18  and  C_19
REMARK    7  A    between atoms: C_19  and  C_20
REMARK    8  A    between atoms: C_20  and  C_25
REMARK    9  A    between atoms: C_21  and  C_22
REMARK   10  A    between atoms: C_22  and  O_24
REMARK                            x       y       z     vdW  Elec       q    Type
REMARK                         _______ _______ _______ _____ _____    ______ ____
ROOT
ATOM      1  C   LIG A   1      -6.072  -2.314 126.058  0.00  0.00    +0.012 C 
ATOM      2  C   LIG A   1      -7.597  -2.194 126.298  0.00  0.00    -0.022 C 
ATOM      3  C   LIG A   1      -8.275  -0.980 125.529  0.00  0.00    +0.004 C 
ATOM      4  C   LIG A   1      -8.363  -1.092 123.961  0.00  0.00    -0.006 C 
ATOM      5  C   LIG A   1      -9.327  -0.003 123.410  0.00  0.00    +0.014 C 
ATOM      6  C   LIG A   1      -9.004  -2.459 123.608  0.00  0.00    +0.009 C 
ATOM      7  C   LIG A   1      -8.332  -3.647 124.284  0.00  0.00    +0.001 C 
ATOM      8  C   LIG A   1      -8.280  -3.503 125.807  0.00  0.00    +0.007 C 
ATOM      9  C   LIG A   1      -7.755   0.385 126.031  0.00  0.00    +0.009 C 
ATOM     10  C   LIG A   1      -7.967   0.540 127.536  0.00  0.00    +0.031 C 
ATOM     11  C   LIG A   1      -7.315  -0.601 128.273  0.00  0.00    -0.073 C 
ATOM     12  C   LIG A   1      -6.330  -0.349 129.151  0.00  0.00    +0.008 C 
ATOM     13  C   LIG A   1      -7.856  -1.975 127.861  0.00  0.00    +0.021 C 
ENDROOT
BRANCH   4  14
ATOM     14  C   LIG A   1      -7.008  -0.903 123.235  0.00  0.00    +0.162 C 
BRANCH  14  15
ATOM     15  O   LIG A   1      -6.844  -1.874 122.201  0.00  0.00    -0.395 OA
ATOM     16  H   LIG A   1      -6.475  -2.672 122.615  0.00  0.00    +0.209 HD
ENDBRANCH  14  15
ENDBRANCH   4  14
BRANCH  13  17
ATOM     17  C   LIG A   1      -7.415  -3.156 128.774  0.00  0.00    +0.013 C 
BRANCH  17  18
ATOM     18  C   LIG A   1      -7.887  -3.073 130.242  0.00  0.00    +0.031 C 
BRANCH  18  19
ATOM     19  C   LIG A   1      -6.811  -3.348 131.267  0.00  0.00    -0.066 C 
ATOM     20  C   LIG A   1      -5.704  -4.033 130.927  0.00  0.00    +0.090 C 
ATOM     21  C   LIG A   1      -7.078  -2.804 132.644  0.00  0.00    +0.039 C 
BRANCH  20  22
ATOM     22  C   LIG A   1      -4.562  -4.327 131.824  0.00  0.00    +0.330 C 
ATOM     23  O   LIG A   1      -3.517  -3.710 131.859  0.00  0.00    -0.246 OA
BRANCH  22  24
ATOM     24  O   LIG A   1      -4.788  -5.398 132.602  0.00  0.00    -0.477 OA
ATOM     25  H   LIG A   1      -3.996  -5.785 133.029  0.00  0.00    +0.295 HD
ENDBRANCH  22  24
ENDBRANCH  20  22
ENDBRANCH  18  19
ENDBRANCH  17  18
ENDBRANCH  13  17
TORSDOF 7
ENDMDL
MODEL 8
REMARK VINA RESULT:      -6.1      7.887      9.769
REMARK  Name = NuBBE_2389
REMARK  10 active torsions:
REMARK  status: ('A' for Active; 'I' for Inactive)
REMARK    1  A    between atoms: C_1  and  C_2
REMARK    2  A    between atoms: C_5  and  C_6
REMARK    3  A    between atoms: C_5  and  C_8
REMARK    4  A    between atoms: C_6  and  O_7
REMARK    5  A    between atoms: C_16  and  C_18
REMARK    6  A    between atoms: C_18  and  C_19
REMARK    7  A    between atoms: C_19  and  C_20
REMARK    8  A    between atoms: C_20  and  C_25
REMARK    9  A    between atoms: C_21  and  C_22
REMARK   10  A    between atoms: C_22  and  O_24
REMARK                            x       y       z     vdW  Elec       q    Type
REMARK                         _______ _______ _______ _____ _____    ______ ____
ROOT
ATOM      1  C   LIG A   1      -5.819   5.712 133.242  0.00  0.00    +0.012 C 
ATOM      2  C   LIG A   1      -5.865   5.402 131.726  0.00  0.00    -0.022 C 
ATOM      3  C   LIG A   1      -6.768   4.148 131.354  0.00  0.00    +0.004 C 
ATOM      4  C   LIG A   1      -8.323   4.312 131.536  0.00  0.00    -0.006 C 
ATOM      5  C   LIG A   1      -9.061   3.140 130.830  0.00  0.00    +0.014 C 
ATOM      6  C   LIG A   1      -8.763   5.607 130.805  0.00  0.00    +0.009 C 
ATOM      7  C   LIG A   1      -7.953   6.838 131.191  0.00  0.00    +0.001 C 
ATOM      8  C   LIG A   1      -6.449   6.639 130.985  0.00  0.00    +0.007 C 
ATOM      9  C   LIG A   1      -6.203   2.835 131.940  0.00  0.00    +0.009 C 
ATOM     10  C   LIG A   1      -4.766   2.594 131.481  0.00  0.00    +0.031 C 
ATOM     11  C   LIG A   1      -3.901   3.774 131.843  0.00  0.00    -0.073 C 
ATOM     12  C   LIG A   1      -2.861   3.606 132.678  0.00  0.00    +0.008 C 
ATOM     13  C   LIG A   1      -4.380   5.090 131.219  0.00  0.00    +0.021 C 
ENDROOT
BRANCH   4  14
ATOM     14  C   LIG A   1      -8.791   4.315 133.012  0.00  0.00    +0.162 C 
BRANCH  14  15
ATOM     15  O   LIG A   1     -10.138   4.775 133.119  0.00  0.00    -0.395 OA
ATOM     16  H   LIG A   1     -10.101   5.735 133.268  0.00  0.00    +0.209 HD
ENDBRANCH  14  15
ENDBRANCH   4  14
BRANCH  13  17
ATOM     17  C   LIG A   1      -3.380   6.277 131.338  0.00  0.00    +0.013 C 
BRANCH  17  18
ATOM     18  C   LIG A   1      -2.237   6.289 130.300  0.00  0.00    +0.031 C 
BRANCH  18  19
ATOM     19  C   LIG A   1      -2.636   5.830 128.917  0.00  0.00    -0.066 C 
ATOM     20  C   LIG A   1      -2.320   4.593 128.491  0.00  0.00    +0.090 C 
ATOM     21  C   LIG A   1      -3.391   6.839 128.096  0.00  0.00    +0.039 C 
BRANCH  20  22
ATOM     22  C   LIG A   1      -2.691   4.011 127.180  0.00  0.00    +0.330 C 
ATOM     23  O   LIG A   1      -3.822   3.761 126.816  0.00  0.00    -0.246 OA
BRANCH  22  24
ATOM     24  O   LIG A   1      -1.618   3.750 126.416  0.00  0.00    -0.477 OA
ATOM     25  H   LIG A   1      -0.753   3.806 126.870  0.00  0.00    +0.295 HD
ENDBRANCH  22  24
ENDBRANCH  20  22
ENDBRANCH  18  19
ENDBRANCH  17  18
ENDBRANCH  13  17
TORSDOF 7
ENDMDL
MODEL 9
REMARK VINA RESULT:      -6.1      8.246     11.545
REMARK  Name = NuBBE_2389
REMARK  10 active torsions:
REMARK  status: ('A' for Active; 'I' for Inactive)
REMARK    1  A    between atoms: C_1  and  C_2
REMARK    2  A    between atoms: C_5  and  C_6
REMARK    3  A    between atoms: C_5  and  C_8
REMARK    4  A    between atoms: C_6  and  O_7
REMARK    5  A    between atoms: C_16  and  C_18
REMARK    6  A    between atoms: C_18  and  C_19
REMARK    7  A    between atoms: C_19  and  C_20
REMARK    8  A    between atoms: C_20  and  C_25
REMARK    9  A    between atoms: C_21  and  C_22
REMARK   10  A    between atoms: C_22  and  O_24
REMARK                            x       y       z     vdW  Elec       q    Type
REMARK                         _______ _______ _______ _____ _____    ______ ____
ROOT
ATOM      1  C   LIG A   1      -6.897   4.137 130.536  0.00  0.00    +0.012 C 
ATOM      2  C   LIG A   1      -7.291   5.134 131.653  0.00  0.00    -0.022 C 
ATOM      3  C   LIG A   1      -6.461   4.955 132.996  0.00  0.00    +0.004 C 
ATOM      4  C   LIG A   1      -4.938   5.351 132.949  0.00  0.00    -0.006 C 
ATOM      5  C   LIG A   1      -4.371   5.428 134.395  0.00  0.00    +0.014 C 
ATOM      6  C   LIG A   1      -4.827   6.782 132.362  0.00  0.00    +0.009 C 
ATOM      7  C   LIG A   1      -5.563   6.964 131.040  0.00  0.00    +0.001 C 
ATOM      8  C   LIG A   1      -7.042   6.580 131.135  0.00  0.00    +0.007 C 
ATOM      9  C   LIG A   1      -6.732   3.589 133.665  0.00  0.00    +0.009 C 
ATOM     10  C   LIG A   1      -8.222   3.394 133.945  0.00  0.00    +0.031 C 
ATOM     11  C   LIG A   1      -9.013   3.550 132.672  0.00  0.00    -0.073 C 
ATOM     12  C   LIG A   1      -9.739   2.517 132.209  0.00  0.00    +0.008 C 
ATOM     13  C   LIG A   1      -8.835   4.922 132.012  0.00  0.00    +0.021 C 
ENDROOT
BRANCH   4  14
ATOM     14  C   LIG A   1      -4.047   4.354 132.169  0.00  0.00    +0.162 C 
BRANCH  14  15
ATOM     15  O   LIG A   1      -2.955   3.909 132.973  0.00  0.00    -0.395 OA
ATOM     16  H   LIG A   1      -3.261   3.129 133.466  0.00  0.00    +0.209 HD
ENDBRANCH  14  15
ENDBRANCH   4  14
BRANCH  13  17
ATOM     17  C   LIG A   1      -9.829   5.229 130.854  0.00  0.00    +0.013 C 
BRANCH  17  18
ATOM     18  C   LIG A   1     -10.719   6.474 131.056  0.00  0.00    +0.031 C 
BRANCH  18  19
ATOM     19  C   LIG A   1     -11.201   7.120 129.778  0.00  0.00    -0.066 C 
ATOM     20  C   LIG A   1     -10.548   6.910 128.620  0.00  0.00    +0.090 C 
ATOM     21  C   LIG A   1     -12.428   7.979 129.911  0.00  0.00    +0.039 C 
BRANCH  20  22
ATOM     22  C   LIG A   1     -10.943   7.446 127.296  0.00  0.00    +0.330 C 
ATOM     23  O   LIG A   1     -10.813   8.599 126.937  0.00  0.00    -0.246 OA
BRANCH  22  24
ATOM     24  O   LIG A   1     -11.506   6.512 126.514  0.00  0.00    -0.477 OA
ATOM     25  H   LIG A   1     -11.109   6.411 125.625  0.00  0.00    +0.295 HD
ENDBRANCH  22  24
ENDBRANCH  20  22
ENDBRANCH  18  19
ENDBRANCH  17  18
ENDBRANCH  13  17
TORSDOF 7
ENDMDL
