MODEL 1
REMARK VINA RESULT:      -6.7      0.000      0.000
REMARK  Name = NuBBE_1094
REMARK  4 active torsions:
REMARK  status: ('A' for Active; 'I' for Inactive)
REMARK    1  A    between atoms: C_4  and  O_5
REMARK    2  A    between atoms: C_7  and  O_8
REMARK    3  A    between atoms: O_8  and  C_9
REMARK    4  A    between atoms: N_12  and  C_13
REMARK                            x       y       z     vdW  Elec       q    Type
REMARK                         _______ _______ _______ _____ _____    ______ ____
ROOT
ATOM      1  O   LIG A   1      -8.813   5.280 127.690  0.00  0.00    -0.286 OA
ATOM      2  C   LIG A   1      -9.313   5.670 128.743  0.00  0.00    +0.201 A 
ATOM      3  C   LIG A   1     -10.424   6.645 128.712  0.00  0.00    +0.087 A 
ATOM      4  C   LIG A   1     -10.835   7.203 127.493  0.00  0.00    +0.133 A 
ATOM      5  C   LIG A   1     -11.852   8.147 127.463  0.00  0.00    +0.091 A 
ATOM      6  C   LIG A   1     -12.465   8.550 128.647  0.00  0.00    +0.126 A 
ATOM      7  C   LIG A   1     -12.057   7.987 129.863  0.00  0.00    +0.072 A 
ATOM      8  C   LIG A   1     -11.044   7.007 129.924  0.00  0.00    +0.060 A 
ATOM      9  N   LIG A   1     -10.621   6.403 131.134  0.00  0.00    -0.343 N 
ATOM     10  C   LIG A   1     -11.443   6.577 132.334  0.00  0.00    +0.149 C 
ATOM     11  C   LIG A   1      -9.459   5.605 131.222  0.00  0.00    +0.053 A 
ATOM     12  C   LIG A   1      -8.795   5.210 130.047  0.00  0.00    +0.046 A 
ATOM     13  C   LIG A   1      -7.649   4.401 130.076  0.00  0.00    +0.014 A 
ATOM     14  C   LIG A   1      -7.128   3.984 131.295  0.00  0.00    +0.001 A 
ATOM     15  C   LIG A   1      -7.744   4.382 132.475  0.00  0.00    +0.002 A 
ATOM     16  C   LIG A   1      -8.892   5.186 132.438  0.00  0.00    +0.026 A 
ENDROOT
BRANCH   4  17
ATOM     17  O   LIG A   1     -10.273   6.872 126.288  0.00  0.00    -0.506 OA
ATOM     18  H   LIG A   1      -9.830   7.677 125.936  0.00  0.00    +0.292 HD
ENDBRANCH   4  17
BRANCH   6  19
ATOM     19  O   LIG A   1     -13.439   9.498 128.486  0.00  0.00    -0.495 OA
ATOM     20  C   LIG A   1     -13.463  10.575 129.415  0.00  0.00    +0.277 C 
ENDBRANCH   6  19
TORSDOF 2
ENDMDL
MODEL 2
REMARK VINA RESULT:      -6.6      7.684      9.285
REMARK  Name = NuBBE_1094
REMARK  4 active torsions:
REMARK  status: ('A' for Active; 'I' for Inactive)
REMARK    1  A    between atoms: C_4  and  O_5
REMARK    2  A    between atoms: C_7  and  O_8
REMARK    3  A    between atoms: O_8  and  C_9
REMARK    4  A    between atoms: N_12  and  C_13
REMARK                            x       y       z     vdW  Elec       q    Type
REMARK                         _______ _______ _______ _____ _____    ______ ____
ROOT
ATOM      1  O   LIG A   1      -9.450   1.120 122.735  0.00  0.00    -0.286 OA
ATOM      2  C   LIG A   1      -8.571   0.680 123.474  0.00  0.00    +0.201 A 
ATOM      3  C   LIG A   1      -7.578   1.602 124.064  0.00  0.00    +0.087 A 
ATOM      4  C   LIG A   1      -7.572   2.956 123.699  0.00  0.00    +0.133 A 
ATOM      5  C   LIG A   1      -6.618   3.818 124.222  0.00  0.00    +0.091 A 
ATOM      6  C   LIG A   1      -5.655   3.339 125.107  0.00  0.00    +0.126 A 
ATOM      7  C   LIG A   1      -5.666   1.987 125.474  0.00  0.00    +0.072 A 
ATOM      8  C   LIG A   1      -6.638   1.091 124.981  0.00  0.00    +0.060 A 
ATOM      9  N   LIG A   1      -6.689  -0.276 125.347  0.00  0.00    -0.343 N 
ATOM     10  C   LIG A   1      -5.896  -0.731 126.492  0.00  0.00    +0.149 C 
ATOM     11  C   LIG A   1      -7.507  -1.214 124.678  0.00  0.00    +0.053 A 
ATOM     12  C   LIG A   1      -8.466  -0.766 123.753  0.00  0.00    +0.046 A 
ATOM     13  C   LIG A   1      -9.317  -1.653 123.076  0.00  0.00    +0.014 A 
ATOM     14  C   LIG A   1      -9.212  -3.021 123.300  0.00  0.00    +0.001 A 
ATOM     15  C   LIG A   1      -8.254  -3.496 124.188  0.00  0.00    +0.002 A 
ATOM     16  C   LIG A   1      -7.411  -2.604 124.864  0.00  0.00    +0.026 A 
ENDROOT
BRANCH   4  17
ATOM     17  O   LIG A   1      -8.474   3.502 122.824  0.00  0.00    -0.506 OA
ATOM     18  H   LIG A   1      -8.114   3.384 121.916  0.00  0.00    +0.292 HD
ENDBRANCH   4  17
BRANCH   6  19
ATOM     19  O   LIG A   1      -4.761   4.282 125.536  0.00  0.00    -0.495 OA
ATOM     20  C   LIG A   1      -3.650   3.830 126.300  0.00  0.00    +0.277 C 
ENDBRANCH   6  19
TORSDOF 2
ENDMDL
MODEL 3
REMARK VINA RESULT:      -6.5      7.273      8.782
REMARK  Name = NuBBE_1094
REMARK  4 active torsions:
REMARK  status: ('A' for Active; 'I' for Inactive)
REMARK    1  A    between atoms: C_4  and  O_5
REMARK    2  A    between atoms: C_7  and  O_8
REMARK    3  A    between atoms: O_8  and  C_9
REMARK    4  A    between atoms: N_12  and  C_13
REMARK                            x       y       z     vdW  Elec       q    Type
REMARK                         _______ _______ _______ _____ _____    ______ ____
ROOT
ATOM      1  O   LIG A   1      -9.799  -2.456 124.729  0.00  0.00    -0.286 OA
ATOM      2  C   LIG A   1      -9.080  -1.776 125.459  0.00  0.00    +0.201 A 
ATOM      3  C   LIG A   1      -8.615  -0.449 125.003  0.00  0.00    +0.087 A 
ATOM      4  C   LIG A   1      -8.902  -0.013 123.702  0.00  0.00    +0.133 A 
ATOM      5  C   LIG A   1      -8.435   1.216 123.256  0.00  0.00    +0.091 A 
ATOM      6  C   LIG A   1      -7.671   2.019 124.099  0.00  0.00    +0.126 A 
ATOM      7  C   LIG A   1      -7.389   1.583 125.401  0.00  0.00    +0.072 A 
ATOM      8  C   LIG A   1      -7.871   0.351 125.891  0.00  0.00    +0.060 A 
ATOM      9  N   LIG A   1      -7.622  -0.109 127.208  0.00  0.00    -0.343 N 
ATOM     10  C   LIG A   1      -7.093   0.833 128.197  0.00  0.00    +0.149 C 
ATOM     11  C   LIG A   1      -7.900  -1.432 127.618  0.00  0.00    +0.053 A 
ATOM     12  C   LIG A   1      -8.640  -2.281 126.775  0.00  0.00    +0.046 A 
ATOM     13  C   LIG A   1      -8.962  -3.597 127.142  0.00  0.00    +0.014 A 
ATOM     14  C   LIG A   1      -8.529  -4.100 128.362  0.00  0.00    +0.001 A 
ATOM     15  C   LIG A   1      -7.771  -3.295 129.205  0.00  0.00    +0.002 A 
ATOM     16  C   LIG A   1      -7.458  -1.980 128.834  0.00  0.00    +0.026 A 
ENDROOT
BRANCH   4  17
ATOM     17  O   LIG A   1      -9.634  -0.749 122.807  0.00  0.00    -0.506 OA
ATOM     18  H   LIG A   1      -9.062  -1.486 122.491  0.00  0.00    +0.292 HD
ENDBRANCH   4  17
BRANCH   6  19
ATOM     19  O   LIG A   1      -7.255   3.196 123.537  0.00  0.00    -0.495 OA
ATOM     20  C   LIG A   1      -7.072   3.218 122.127  0.00  0.00    +0.277 C 
ENDBRANCH   6  19
TORSDOF 2
ENDMDL
MODEL 4
REMARK VINA RESULT:      -6.4      7.295      8.725
REMARK  Name = NuBBE_1094
REMARK  4 active torsions:
REMARK  status: ('A' for Active; 'I' for Inactive)
REMARK    1  A    between atoms: C_4  and  O_5
REMARK    2  A    between atoms: C_7  and  O_8
REMARK    3  A    between atoms: O_8  and  C_9
REMARK    4  A    between atoms: N_12  and  C_13
REMARK                            x       y       z     vdW  Elec       q    Type
REMARK                         _______ _______ _______ _____ _____    ______ ____
ROOT
ATOM      1  O   LIG A   1      -7.239   0.752 127.927  0.00  0.00    -0.286 OA
ATOM      2  C   LIG A   1      -7.787   0.030 127.096  0.00  0.00    +0.201 A 
ATOM      3  C   LIG A   1      -8.190   0.590 125.788  0.00  0.00    +0.087 A 
ATOM      4  C   LIG A   1      -8.045   1.962 125.536  0.00  0.00    +0.133 A 
ATOM      5  C   LIG A   1      -8.456   2.499 124.324  0.00  0.00    +0.091 A 
ATOM      6  C   LIG A   1      -9.023   1.676 123.353  0.00  0.00    +0.126 A 
ATOM      7  C   LIG A   1      -9.162   0.305 123.605  0.00  0.00    +0.072 A 
ATOM      8  C   LIG A   1      -8.730  -0.275 124.817  0.00  0.00    +0.060 A 
ATOM      9  N   LIG A   1      -8.837  -1.660 125.095  0.00  0.00    -0.343 N 
ATOM     10  C   LIG A   1      -9.139  -2.579 123.996  0.00  0.00    +0.149 C 
ATOM     11  C   LIG A   1      -8.626  -2.197 126.385  0.00  0.00    +0.053 A 
ATOM     12  C   LIG A   1      -8.087  -1.383 127.397  0.00  0.00    +0.046 A 
ATOM     13  C   LIG A   1      -7.837  -1.871 128.689  0.00  0.00    +0.014 A 
ATOM     14  C   LIG A   1      -8.143  -3.191 129.002  0.00  0.00    +0.001 A 
ATOM     15  C   LIG A   1      -8.703  -4.011 128.030  0.00  0.00    +0.002 A 
ATOM     16  C   LIG A   1      -8.945  -3.519 126.740  0.00  0.00    +0.026 A 
ENDROOT
BRANCH   4  17
ATOM     17  O   LIG A   1      -7.511   2.840 126.443  0.00  0.00    -0.506 OA
ATOM     18  H   LIG A   1      -7.028   2.311 127.119  0.00  0.00    +0.292 HD
ENDBRANCH   4  17
BRANCH   6  19
ATOM     19  O   LIG A   1      -9.404   2.327 122.211  0.00  0.00    -0.495 OA
ATOM     20  C   LIG A   1      -8.516   3.306 121.689  0.00  0.00    +0.277 C 
ENDBRANCH   6  19
TORSDOF 2
ENDMDL
MODEL 5
REMARK VINA RESULT:      -6.4      7.704      9.894
REMARK  Name = NuBBE_1094
REMARK  4 active torsions:
REMARK  status: ('A' for Active; 'I' for Inactive)
REMARK    1  A    between atoms: C_4  and  O_5
REMARK    2  A    between atoms: C_7  and  O_8
REMARK    3  A    between atoms: O_8  and  C_9
REMARK    4  A    between atoms: N_12  and  C_13
REMARK                            x       y       z     vdW  Elec       q    Type
REMARK                         _______ _______ _______ _____ _____    ______ ____
ROOT
ATOM      1  O   LIG A   1      -9.575  -1.149 123.292  0.00  0.00    -0.286 OA
ATOM      2  C   LIG A   1      -8.958  -0.636 124.224  0.00  0.00    +0.201 A 
ATOM      3  C   LIG A   1      -8.686  -1.423 125.446  0.00  0.00    +0.087 A 
ATOM      4  C   LIG A   1      -9.220  -2.712 125.585  0.00  0.00    +0.133 A 
ATOM      5  C   LIG A   1      -8.999  -3.440 126.746  0.00  0.00    +0.091 A 
ATOM      6  C   LIG A   1      -8.250  -2.889 127.783  0.00  0.00    +0.126 A 
ATOM      7  C   LIG A   1      -7.712  -1.603 127.639  0.00  0.00    +0.072 A 
ATOM      8  C   LIG A   1      -7.898  -0.848 126.462  0.00  0.00    +0.060 A 
ATOM      9  N   LIG A   1      -7.352   0.446 126.276  0.00  0.00    -0.343 N 
ATOM     10  C   LIG A   1      -6.322   0.917 127.206  0.00  0.00    +0.149 C 
ATOM     11  C   LIG A   1      -7.730   1.287 125.207  0.00  0.00    +0.053 A 
ATOM     12  C   LIG A   1      -8.516   0.771 124.161  0.00  0.00    +0.046 A 
ATOM     13  C   LIG A   1      -8.903   1.557 123.064  0.00  0.00    +0.014 A 
ATOM     14  C   LIG A   1      -8.524   2.892 123.002  0.00  0.00    +0.001 A 
ATOM     15  C   LIG A   1      -7.772   3.439 124.035  0.00  0.00    +0.002 A 
ATOM     16  C   LIG A   1      -7.384   2.647 125.124  0.00  0.00    +0.026 A 
ENDROOT
BRANCH   4  17
ATOM     17  O   LIG A   1      -9.979  -3.319 124.619  0.00  0.00    -0.506 OA
ATOM     18  H   LIG A   1     -10.393  -2.608 124.078  0.00  0.00    +0.292 HD
ENDBRANCH   4  17
BRANCH   6  19
ATOM     19  O   LIG A   1      -8.119  -3.698 128.879  0.00  0.00    -0.495 OA
ATOM     20  C   LIG A   1      -7.595  -3.113 130.064  0.00  0.00    +0.277 C 
ENDBRANCH   6  19
TORSDOF 2
ENDMDL
MODEL 6
REMARK VINA RESULT:      -6.4      2.881      3.954
REMARK  Name = NuBBE_1094
REMARK  4 active torsions:
REMARK  status: ('A' for Active; 'I' for Inactive)
REMARK    1  A    between atoms: C_4  and  O_5
REMARK    2  A    between atoms: C_7  and  O_8
REMARK    3  A    between atoms: O_8  and  C_9
REMARK    4  A    between atoms: N_12  and  C_13
REMARK                            x       y       z     vdW  Elec       q    Type
REMARK                         _______ _______ _______ _____ _____    ______ ____
ROOT
ATOM      1  O   LIG A   1      -6.364   7.342 130.365  0.00  0.00    -0.286 OA
ATOM      2  C   LIG A   1      -6.824   6.745 131.337  0.00  0.00    +0.201 A 
ATOM      3  C   LIG A   1      -8.287   6.589 131.477  0.00  0.00    +0.087 A 
ATOM      4  C   LIG A   1      -9.151   7.210 130.564  0.00  0.00    +0.133 A 
ATOM      5  C   LIG A   1     -10.527   7.098 130.713  0.00  0.00    +0.091 A 
ATOM      6  C   LIG A   1     -11.055   6.372 131.778  0.00  0.00    +0.126 A 
ATOM      7  C   LIG A   1     -10.190   5.748 132.686  0.00  0.00    +0.072 A 
ATOM      8  C   LIG A   1      -8.788   5.822 132.547  0.00  0.00    +0.060 A 
ATOM      9  N   LIG A   1      -7.887   5.186 133.435  0.00  0.00    -0.343 N 
ATOM     10  C   LIG A   1      -8.404   4.180 134.366  0.00  0.00    +0.149 C 
ATOM     11  C   LIG A   1      -6.499   5.453 133.433  0.00  0.00    +0.053 A 
ATOM     12  C   LIG A   1      -5.938   6.212 132.391  0.00  0.00    +0.046 A 
ATOM     13  C   LIG A   1      -4.564   6.489 132.329  0.00  0.00    +0.014 A 
ATOM     14  C   LIG A   1      -3.719   6.024 133.329  0.00  0.00    +0.001 A 
ATOM     15  C   LIG A   1      -4.248   5.295 134.388  0.00  0.00    +0.002 A 
ATOM     16  C   LIG A   1      -5.621   5.018 134.440  0.00  0.00    +0.026 A 
ENDROOT
BRANCH   4  17
ATOM     17  O   LIG A   1      -8.711   7.953 129.500  0.00  0.00    -0.506 OA
ATOM     18  H   LIG A   1      -7.745   8.101 129.621  0.00  0.00    +0.292 HD
ENDBRANCH   4  17
BRANCH   6  19
ATOM     19  O   LIG A   1     -12.423   6.352 131.826  0.00  0.00    -0.495 OA
ATOM     20  C   LIG A   1     -13.117   7.390 131.144  0.00  0.00    +0.277 C 
ENDBRANCH   6  19
TORSDOF 2
ENDMDL
MODEL 7
REMARK VINA RESULT:      -6.1      6.912      8.928
REMARK  Name = NuBBE_1094
REMARK  4 active torsions:
REMARK  status: ('A' for Active; 'I' for Inactive)
REMARK    1  A    between atoms: C_4  and  O_5
REMARK    2  A    between atoms: C_7  and  O_8
REMARK    3  A    between atoms: O_8  and  C_9
REMARK    4  A    between atoms: N_12  and  C_13
REMARK                            x       y       z     vdW  Elec       q    Type
REMARK                         _______ _______ _______ _____ _____    ______ ____
ROOT
ATOM      1  O   LIG A   1      -8.527   4.013 124.609  0.00  0.00    -0.286 OA
ATOM      2  C   LIG A   1      -7.894   2.963 124.707  0.00  0.00    +0.201 A 
ATOM      3  C   LIG A   1      -6.586   2.955 125.395  0.00  0.00    +0.087 A 
ATOM      4  C   LIG A   1      -6.019   4.157 125.841  0.00  0.00    +0.133 A 
ATOM      5  C   LIG A   1      -4.774   4.159 126.455  0.00  0.00    +0.091 A 
ATOM      6  C   LIG A   1      -4.077   2.965 126.623  0.00  0.00    +0.126 A 
ATOM      7  C   LIG A   1      -4.648   1.764 126.181  0.00  0.00    +0.072 A 
ATOM      8  C   LIG A   1      -5.923   1.726 125.578  0.00  0.00    +0.060 A 
ATOM      9  N   LIG A   1      -6.536   0.527 125.138  0.00  0.00    -0.343 N 
ATOM     10  C   LIG A   1      -5.974  -0.754 125.572  0.00  0.00    +0.149 C 
ATOM     11  C   LIG A   1      -7.695   0.516 124.329  0.00  0.00    +0.053 A 
ATOM     12  C   LIG A   1      -8.402   1.711 124.111  0.00  0.00    +0.046 A 
ATOM     13  C   LIG A   1      -9.570   1.753 123.333  0.00  0.00    +0.014 A 
ATOM     14  C   LIG A   1     -10.046   0.591 122.738  0.00  0.00    +0.001 A 
ATOM     15  C   LIG A   1      -9.352  -0.601 122.911  0.00  0.00    +0.002 A 
ATOM     16  C   LIG A   1      -8.189  -0.636 123.694  0.00  0.00    +0.026 A 
ENDROOT
BRANCH   4  17
ATOM     17  O   LIG A   1      -6.633   5.374 125.700  0.00  0.00    -0.506 OA
ATOM     18  H   LIG A   1      -6.430   5.705 124.796  0.00  0.00    +0.292 HD
ENDBRANCH   4  17
BRANCH   6  19
ATOM     19  O   LIG A   1      -2.855   3.102 127.223  0.00  0.00    -0.495 OA
ATOM     20  C   LIG A   1      -2.559   4.356 127.826  0.00  0.00    +0.277 C 
ENDBRANCH   6  19
TORSDOF 2
ENDMDL
MODEL 8
REMARK VINA RESULT:      -6.0      9.189     10.888
REMARK  Name = NuBBE_1094
REMARK  4 active torsions:
REMARK  status: ('A' for Active; 'I' for Inactive)
REMARK    1  A    between atoms: C_4  and  O_5
REMARK    2  A    between atoms: C_7  and  O_8
REMARK    3  A    between atoms: O_8  and  C_9
REMARK    4  A    between atoms: N_12  and  C_13
REMARK                            x       y       z     vdW  Elec       q    Type
REMARK                         _______ _______ _______ _____ _____    ______ ____
ROOT
ATOM      1  O   LIG A   1      -6.303   0.205 125.417  0.00  0.00    -0.286 OA
ATOM      2  C   LIG A   1      -6.817  -0.819 125.864  0.00  0.00    +0.201 A 
ATOM      3  C   LIG A   1      -6.478  -1.276 127.228  0.00  0.00    +0.087 A 
ATOM      4  C   LIG A   1      -5.496  -0.604 127.971  0.00  0.00    +0.133 A 
ATOM      5  C   LIG A   1      -5.148  -1.051 129.238  0.00  0.00    +0.091 A 
ATOM      6  C   LIG A   1      -5.769  -2.176 129.775  0.00  0.00    +0.126 A 
ATOM      7  C   LIG A   1      -6.753  -2.843 129.034  0.00  0.00    +0.072 A 
ATOM      8  C   LIG A   1      -7.147  -2.398 127.754  0.00  0.00    +0.060 A 
ATOM      9  N   LIG A   1      -8.153  -3.036 126.987  0.00  0.00    -0.343 N 
ATOM     10  C   LIG A   1      -9.023  -4.017 127.641  0.00  0.00    +0.149 C 
ATOM     11  C   LIG A   1      -8.378  -2.736 125.625  0.00  0.00    +0.053 A 
ATOM     12  C   LIG A   1      -7.740  -1.627 125.042  0.00  0.00    +0.046 A 
ATOM     13  C   LIG A   1      -7.944  -1.272 123.700  0.00  0.00    +0.014 A 
ATOM     14  C   LIG A   1      -8.784  -2.039 122.902  0.00  0.00    +0.001 A 
ATOM     15  C   LIG A   1      -9.407  -3.159 123.442  0.00  0.00    +0.002 A 
ATOM     16  C   LIG A   1      -9.202  -3.504 124.785  0.00  0.00    +0.026 A 
ENDROOT
BRANCH   4  17
ATOM     17  O   LIG A   1      -4.829   0.500 127.508  0.00  0.00    -0.506 OA
ATOM     18  H   LIG A   1      -5.254   1.292 127.909  0.00  0.00    +0.292 HD
ENDBRANCH   4  17
BRANCH   6  19
ATOM     19  O   LIG A   1      -5.325  -2.527 131.022  0.00  0.00    -0.495 OA
ATOM     20  C   LIG A   1      -5.871  -3.704 131.603  0.00  0.00    +0.277 C 
ENDBRANCH   6  19
TORSDOF 2
ENDMDL
MODEL 9
REMARK VINA RESULT:      -6.0      7.410      9.942
REMARK  Name = NuBBE_1094
REMARK  4 active torsions:
REMARK  status: ('A' for Active; 'I' for Inactive)
REMARK    1  A    between atoms: C_4  and  O_5
REMARK    2  A    between atoms: C_7  and  O_8
REMARK    3  A    between atoms: O_8  and  C_9
REMARK    4  A    between atoms: N_12  and  C_13
REMARK                            x       y       z     vdW  Elec       q    Type
REMARK                         _______ _______ _______ _____ _____    ______ ____
ROOT
ATOM      1  O   LIG A   1      -8.634  -4.018 127.317  0.00  0.00    -0.286 OA
ATOM      2  C   LIG A   1      -8.430  -2.863 126.945  0.00  0.00    +0.201 A 
ATOM      3  C   LIG A   1      -8.017  -1.837 127.925  0.00  0.00    +0.087 A 
ATOM      4  C   LIG A   1      -7.961  -2.152 129.290  0.00  0.00    +0.133 A 
ATOM      5  C   LIG A   1      -7.610  -1.181 130.218  0.00  0.00    +0.091 A 
ATOM      6  C   LIG A   1      -7.319   0.114 129.797  0.00  0.00    +0.126 A 
ATOM      7  C   LIG A   1      -7.371   0.425 128.432  0.00  0.00    +0.072 A 
ATOM      8  C   LIG A   1      -7.699  -0.546 127.462  0.00  0.00    +0.060 A 
ATOM      9  N   LIG A   1      -7.740  -0.270 126.073  0.00  0.00    -0.343 N 
ATOM     10  C   LIG A   1      -7.150   0.978 125.583  0.00  0.00    +0.149 C 
ATOM     11  C   LIG A   1      -8.293  -1.169 125.133  0.00  0.00    +0.053 A 
ATOM     12  C   LIG A   1      -8.630  -2.474 125.534  0.00  0.00    +0.046 A 
ATOM     13  C   LIG A   1      -9.163  -3.413 124.638  0.00  0.00    +0.014 A 
ATOM     14  C   LIG A   1      -9.388  -3.056 123.314  0.00  0.00    +0.001 A 
ATOM     15  C   LIG A   1      -9.091  -1.764 122.894  0.00  0.00    +0.002 A 
ATOM     16  C   LIG A   1      -8.555  -0.833 123.794  0.00  0.00    +0.026 A 
ENDROOT
BRANCH   4  17
ATOM     17  O   LIG A   1      -8.247  -3.396 129.786  0.00  0.00    -0.506 OA
ATOM     18  H   LIG A   1      -8.543  -3.283 130.718  0.00  0.00    +0.292 HD
ENDBRANCH   4  17
BRANCH   6  19
ATOM     19  O   LIG A   1      -7.006   0.982 130.808  0.00  0.00    -0.495 OA
ATOM     20  C   LIG A   1      -7.611   0.756 132.075  0.00  0.00    +0.277 C 
ENDBRANCH   6  19
TORSDOF 2
ENDMDL
