MODEL 1
REMARK VINA RESULT:      -7.3      0.000      0.000
REMARK  Name = NuBBE_225
REMARK  19 active torsions:
REMARK  status: ('A' for Active; 'I' for Inactive)
REMARK    1  A    between atoms: C_1  and  C_2
REMARK    2  A    between atoms: C_4  and  O_6
REMARK    3  A    between atoms: O_6  and  C_7
REMARK    4  A    between atoms: C_7  and  C_8
REMARK    5  A    between atoms: C_8  and  C_9
REMARK    6  A    between atoms: C_9  and  C_10
REMARK    7  A    between atoms: C_12  and  O_14
REMARK    8  A    between atoms: C_17  and  O_19
REMARK    9  A    between atoms: O_19  and  C_20
REMARK   10  A    between atoms: C_20  and  C_21
REMARK   11  A    between atoms: C_23  and  O_25
REMARK   12  A    between atoms: O_25  and  C_26
REMARK   13  A    between atoms: C_26  and  C_27
REMARK   14  A    between atoms: C_30  and  O_32
REMARK   15  A    between atoms: C_36  and  C_37
REMARK   16  A    between atoms: C_36  and  C_38
REMARK   17  A    between atoms: C_38  and  C_39
REMARK   18  A    between atoms: C_40  and  C_41
REMARK   19  A    between atoms: C_40  and  C_43
REMARK                            x       y       z     vdW  Elec       q    Type
REMARK                         _______ _______ _______ _____ _____    ______ ____
ROOT
ATOM      1  C   LIG A   1      -8.920  -0.486 126.408  0.00  0.00    +0.012 C 
ATOM      2  C   LIG A   1      -8.033   0.271 127.405  0.00  0.00    +0.036 C 
ATOM      3  C   LIG A   1      -8.464   1.746 127.440  0.00  0.00    +0.209 C 
ATOM      4  C   LIG A   1      -7.971   2.567 126.218  0.00  0.00    +0.172 C 
ATOM      5  C   LIG A   1      -6.835   1.954 125.285  0.00  0.00    +0.091 C 
ATOM      6  C   LIG A   1      -6.011   3.167 124.849  0.00  0.00    -0.001 C 
ATOM      7  C   LIG A   1      -6.610   3.736 123.607  0.00  0.00    +0.282 C 
ATOM      8  O   LIG A   1      -7.094   2.608 122.901  0.00  0.00    -0.308 OA
ATOM      9  C   LIG A   1      -7.387   1.556 123.841  0.00  0.00    +0.326 C 
ATOM     10  C   LIG A   1      -4.866   3.568 125.426  0.00  0.00    +0.009 C 
ATOM     11  C   LIG A   1      -4.183   2.714 126.430  0.00  0.00    +0.138 C 
ATOM     12  C   LIG A   1      -4.427   1.254 126.053  0.00  0.00    +0.040 C 
ATOM     13  C   LIG A   1      -5.929   0.833 125.959  0.00  0.00    +0.017 C 
ATOM     14  C   LIG A   1      -6.477   0.085 127.237  0.00  0.00    -0.019 C 
ATOM     15  C   LIG A   1      -5.782   0.590 128.523  0.00  0.00    +0.012 C 
ENDROOT
BRANCH   4  16
ATOM     16  O   LIG A   1      -9.116   2.910 125.407  0.00  0.00    -0.387 OA
ATOM     17  H   LIG A   1      -8.946   2.657 124.482  0.00  0.00    +0.210 HD
ENDBRANCH   4  16
BRANCH  11  18
ATOM     18  O   LIG A   1      -2.783   2.957 126.359  0.00  0.00    -0.388 OA
ATOM     19  H   LIG A   1      -2.544   2.993 125.418  0.00  0.00    +0.210 HD
ENDBRANCH  11  18
BRANCH   3  20
ATOM     20  O   LIG A   1      -8.017   2.368 128.685  0.00  0.00    -0.458 OA
BRANCH  20  21
ATOM     21  C   LIG A   1      -8.963   2.489 129.669  0.00  0.00    +0.307 C 
ATOM     22  O   LIG A   1     -10.014   3.103 129.549  0.00  0.00    -0.251 OA
BRANCH  21  23
ATOM     23  C   LIG A   1      -8.569   1.773 130.943  0.00  0.00    +0.120 C 
BRANCH  23  24
ATOM     24  C   LIG A   1      -8.594   0.244 130.902  0.00  0.00    +0.008 C 
ATOM     25  C   LIG A   1      -7.919  -0.486 132.054  0.00  0.00    +0.004 C 
ENDBRANCH  23  24
ENDBRANCH  21  23
ENDBRANCH  20  21
ENDBRANCH   3  20
BRANCH   7  26
ATOM     26  O   LIG A   1      -5.604   4.436 122.885  0.00  0.00    -0.348 OA
BRANCH  26  27
ATOM     27  C   LIG A   1      -5.261   3.862 121.631  0.00  0.00    +0.160 C 
ATOM     28  C   LIG A   1      -5.309   4.878 120.505  0.00  0.00    +0.034 C 
ENDBRANCH  26  27
ENDBRANCH   7  26
BRANCH   9  29
ATOM     29  O   LIG A   1      -6.820   0.343 123.321  0.00  0.00    -0.434 OA
BRANCH  29  30
ATOM     30  C   LIG A   1      -7.702  -0.690 123.182  0.00  0.00    +0.306 C 
ATOM     31  C   LIG A   1      -7.017  -1.993 123.508  0.00  0.00    +0.136 C 
ATOM     32  O   LIG A   1      -8.869  -0.606 122.919  0.00  0.00    -0.251 OA
ENDBRANCH  29  30
ENDBRANCH   9  29
BRANCH  14  33
ATOM     33  C   LIG A   1      -6.164  -1.476 127.187  0.00  0.00    +0.034 C 
BRANCH  33  34
ATOM     34  C   LIG A   1      -5.968  -2.209 128.500  0.00  0.00    -0.023 C 
ATOM     35  C   LIG A   1      -6.863  -2.878 129.258  0.00  0.00    -0.055 C 
ATOM     36  C   LIG A   1      -6.424  -3.575 130.525  0.00  0.00    +0.043 C 
BRANCH  35  37
ATOM     37  C   LIG A   1      -8.267  -2.997 128.904  0.00  0.00    -0.005 C 
ATOM     38  C   LIG A   1      -8.780  -3.955 128.121  0.00  0.00    +0.008 C 
ENDBRANCH  35  37
ENDBRANCH  33  34
ENDBRANCH  14  33
TORSDOF 13
ENDMDL
MODEL 2
REMARK VINA RESULT:      -6.8      1.711      2.327
REMARK  Name = NuBBE_225
REMARK  19 active torsions:
REMARK  status: ('A' for Active; 'I' for Inactive)
REMARK    1  A    between atoms: C_1  and  C_2
REMARK    2  A    between atoms: C_4  and  O_6
REMARK    3  A    between atoms: O_6  and  C_7
REMARK    4  A    between atoms: C_7  and  C_8
REMARK    5  A    between atoms: C_8  and  C_9
REMARK    6  A    between atoms: C_9  and  C_10
REMARK    7  A    between atoms: C_12  and  O_14
REMARK    8  A    between atoms: C_17  and  O_19
REMARK    9  A    between atoms: O_19  and  C_20
REMARK   10  A    between atoms: C_20  and  C_21
REMARK   11  A    between atoms: C_23  and  O_25
REMARK   12  A    between atoms: O_25  and  C_26
REMARK   13  A    between atoms: C_26  and  C_27
REMARK   14  A    between atoms: C_30  and  O_32
REMARK   15  A    between atoms: C_36  and  C_37
REMARK   16  A    between atoms: C_36  and  C_38
REMARK   17  A    between atoms: C_38  and  C_39
REMARK   18  A    between atoms: C_40  and  C_41
REMARK   19  A    between atoms: C_40  and  C_43
REMARK                            x       y       z     vdW  Elec       q    Type
REMARK                         _______ _______ _______ _____ _____    ______ ____
ROOT
ATOM      1  C   LIG A   1      -8.962   0.913 127.001  0.00  0.00    +0.012 C 
ATOM      2  C   LIG A   1      -7.997   1.800 127.797  0.00  0.00    +0.036 C 
ATOM      3  C   LIG A   1      -8.282   3.274 127.463  0.00  0.00    +0.209 C 
ATOM      4  C   LIG A   1      -7.721   3.719 126.086  0.00  0.00    +0.172 C 
ATOM      5  C   LIG A   1      -6.659   2.789 125.349  0.00  0.00    +0.091 C 
ATOM      6  C   LIG A   1      -5.723   3.772 124.643  0.00  0.00    -0.001 C 
ATOM      7  C   LIG A   1      -6.274   4.075 123.290  0.00  0.00    +0.282 C 
ATOM      8  O   LIG A   1      -6.872   2.862 122.874  0.00  0.00    -0.308 OA
ATOM      9  C   LIG A   1      -7.259   2.105 124.037  0.00  0.00    +0.326 C 
ATOM     10  C   LIG A   1      -4.539   4.189 125.123  0.00  0.00    +0.009 C 
ATOM     11  C   LIG A   1      -3.935   3.545 126.316  0.00  0.00    +0.138 C 
ATOM     12  C   LIG A   1      -4.325   2.068 126.303  0.00  0.00    +0.040 C 
ATOM     13  C   LIG A   1      -5.861   1.784 126.291  0.00  0.00    +0.017 C 
ATOM     14  C   LIG A   1      -6.469   1.428 127.704  0.00  0.00    -0.019 C 
ATOM     15  C   LIG A   1      -5.717   2.163 128.838  0.00  0.00    +0.012 C 
ENDROOT
BRANCH   4  16
ATOM     16  O   LIG A   1      -8.833   3.963 125.197  0.00  0.00    -0.387 OA
ATOM     17  H   LIG A   1      -9.639   4.120 125.722  0.00  0.00    +0.210 HD
ENDBRANCH   4  16
BRANCH  11  18
ATOM     18  O   LIG A   1      -2.519   3.625 126.210  0.00  0.00    -0.388 OA
ATOM     19  H   LIG A   1      -2.201   2.755 125.915  0.00  0.00    +0.210 HD
ENDBRANCH  11  18
BRANCH   3  20
ATOM     20  O   LIG A   1      -7.765   4.134 128.526  0.00  0.00    -0.458 OA
BRANCH  20  21
ATOM     21  C   LIG A   1      -8.665   5.006 129.083  0.00  0.00    +0.307 C 
ATOM     22  O   LIG A   1      -9.352   5.794 128.449  0.00  0.00    -0.251 OA
BRANCH  21  23
ATOM     23  C   LIG A   1      -8.723   4.891 130.592  0.00  0.00    +0.120 C 
BRANCH  23  24
ATOM     24  C   LIG A   1      -8.339   6.141 131.386  0.00  0.00    +0.008 C 
ATOM     25  C   LIG A   1      -7.771   5.921 132.781  0.00  0.00    +0.004 C 
ENDBRANCH  23  24
ENDBRANCH  21  23
ENDBRANCH  20  21
ENDBRANCH   3  20
BRANCH   7  26
ATOM     26  O   LIG A   1      -5.210   4.476 122.436  0.00  0.00    -0.348 OA
BRANCH  26  27
ATOM     27  C   LIG A   1      -5.272   3.948 121.118  0.00  0.00    +0.160 C 
ATOM     28  C   LIG A   1      -5.300   5.041 120.065  0.00  0.00    +0.034 C 
ENDBRANCH  26  27
ENDBRANCH   7  26
BRANCH   9  29
ATOM     29  O   LIG A   1      -6.818   0.753 123.838  0.00  0.00    -0.434 OA
BRANCH  29  30
ATOM     30  C   LIG A   1      -7.775  -0.100 123.367  0.00  0.00    +0.306 C 
ATOM     31  C   LIG A   1      -9.135   0.541 123.491  0.00  0.00    +0.136 C 
ATOM     32  O   LIG A   1      -7.593  -1.168 122.854  0.00  0.00    -0.251 OA
ENDBRANCH  29  30
ENDBRANCH   9  29
BRANCH  14  33
ATOM     33  C   LIG A   1      -6.310  -0.120 128.041  0.00  0.00    +0.034 C 
BRANCH  33  34
ATOM     34  C   LIG A   1      -5.755  -1.034 126.966  0.00  0.00    -0.023 C 
ATOM     35  C   LIG A   1      -6.373  -1.991 126.241  0.00  0.00    -0.055 C 
ATOM     36  C   LIG A   1      -5.616  -2.756 125.180  0.00  0.00    +0.043 C 
BRANCH  35  37
ATOM     37  C   LIG A   1      -7.777  -2.323 126.405  0.00  0.00    -0.005 C 
ATOM     38  C   LIG A   1      -8.267  -3.123 127.361  0.00  0.00    +0.008 C 
ENDBRANCH  35  37
ENDBRANCH  33  34
ENDBRANCH  14  33
TORSDOF 13
ENDMDL
MODEL 3
REMARK VINA RESULT:      -6.5      2.390      4.981
REMARK  Name = NuBBE_225
REMARK  19 active torsions:
REMARK  status: ('A' for Active; 'I' for Inactive)
REMARK    1  A    between atoms: C_1  and  C_2
REMARK    2  A    between atoms: C_4  and  O_6
REMARK    3  A    between atoms: O_6  and  C_7
REMARK    4  A    between atoms: C_7  and  C_8
REMARK    5  A    between atoms: C_8  and  C_9
REMARK    6  A    between atoms: C_9  and  C_10
REMARK    7  A    between atoms: C_12  and  O_14
REMARK    8  A    between atoms: C_17  and  O_19
REMARK    9  A    between atoms: O_19  and  C_20
REMARK   10  A    between atoms: C_20  and  C_21
REMARK   11  A    between atoms: C_23  and  O_25
REMARK   12  A    between atoms: O_25  and  C_26
REMARK   13  A    between atoms: C_26  and  C_27
REMARK   14  A    between atoms: C_30  and  O_32
REMARK   15  A    between atoms: C_36  and  C_37
REMARK   16  A    between atoms: C_36  and  C_38
REMARK   17  A    between atoms: C_38  and  C_39
REMARK   18  A    between atoms: C_40  and  C_41
REMARK   19  A    between atoms: C_40  and  C_43
REMARK                            x       y       z     vdW  Elec       q    Type
REMARK                         _______ _______ _______ _____ _____    ______ ____
ROOT
ATOM      1  C   LIG A   1      -9.051  -0.155 126.535  0.00  0.00    +0.012 C 
ATOM      2  C   LIG A   1      -7.695  -0.601 127.097  0.00  0.00    +0.036 C 
ATOM      3  C   LIG A   1      -7.677  -0.356 128.615  0.00  0.00    +0.209 C 
ATOM      4  C   LIG A   1      -7.466   1.132 129.002  0.00  0.00    +0.172 C 
ATOM      5  C   LIG A   1      -6.955   2.153 127.892  0.00  0.00    +0.091 C 
ATOM      6  C   LIG A   1      -6.058   3.126 128.659  0.00  0.00    -0.001 C 
ATOM      7  C   LIG A   1      -6.896   4.243 129.183  0.00  0.00    +0.282 C 
ATOM      8  O   LIG A   1      -7.883   4.439 128.189  0.00  0.00    -0.308 OA
ATOM      9  C   LIG A   1      -8.081   3.205 127.473  0.00  0.00    +0.326 C 
ATOM     10  C   LIG A   1      -4.718   3.043 128.733  0.00  0.00    +0.009 C 
ATOM     11  C   LIG A   1      -3.969   2.091 127.877  0.00  0.00    +0.138 C 
ATOM     12  C   LIG A   1      -4.711   1.965 126.548  0.00  0.00    +0.040 C 
ATOM     13  C   LIG A   1      -6.197   1.495 126.656  0.00  0.00    +0.017 C 
ATOM     14  C   LIG A   1      -6.418  -0.041 126.364  0.00  0.00    -0.019 C 
ATOM     15  C   LIG A   1      -5.194  -0.876 126.807  0.00  0.00    +0.012 C 
ENDROOT
BRANCH   4  16
ATOM     16  O   LIG A   1      -8.693   1.633 129.577  0.00  0.00    -0.387 OA
ATOM     17  H   LIG A   1      -9.249   0.884 129.857  0.00  0.00    +0.210 HD
ENDBRANCH   4  16
BRANCH  11  18
ATOM     18  O   LIG A   1      -2.681   2.633 127.610  0.00  0.00    -0.388 OA
ATOM     19  H   LIG A   1      -2.037   1.913 127.713  0.00  0.00    +0.210 HD
ENDBRANCH  11  18
BRANCH   3  20
ATOM     20  O   LIG A   1      -6.659  -1.195 129.243  0.00  0.00    -0.458 OA
BRANCH  20  21
ATOM     21  C   LIG A   1      -7.062  -2.451 129.617  0.00  0.00    +0.307 C 
ATOM     22  O   LIG A   1      -8.229  -2.810 129.696  0.00  0.00    -0.251 OA
BRANCH  21  23
ATOM     23  C   LIG A   1      -5.896  -3.366 129.926  0.00  0.00    +0.120 C 
BRANCH  23  24
ATOM     24  C   LIG A   1      -4.499  -2.758 129.796  0.00  0.00    +0.008 C 
ATOM     25  C   LIG A   1      -3.424  -3.635 129.168  0.00  0.00    +0.004 C 
ENDBRANCH  23  24
ENDBRANCH  21  23
ENDBRANCH  20  21
ENDBRANCH   3  20
BRANCH   7  26
ATOM     26  O   LIG A   1      -6.076   5.391 129.367  0.00  0.00    -0.348 OA
BRANCH  26  27
ATOM     27  C   LIG A   1      -5.955   5.829 130.713  0.00  0.00    +0.160 C 
ATOM     28  C   LIG A   1      -7.021   6.845 131.082  0.00  0.00    +0.034 C 
ENDBRANCH  26  27
ENDBRANCH   7  26
BRANCH   9  29
ATOM     29  O   LIG A   1      -8.085   3.516 126.071  0.00  0.00    -0.434 OA
BRANCH  29  30
ATOM     30  C   LIG A   1      -7.970   4.845 125.778  0.00  0.00    +0.306 C 
ATOM     31  C   LIG A   1      -6.580   5.137 125.271  0.00  0.00    +0.136 C 
ATOM     32  O   LIG A   1      -8.840   5.669 125.829  0.00  0.00    -0.251 OA
ENDBRANCH  29  30
ENDBRANCH   9  29
BRANCH  14  33
ATOM     33  C   LIG A   1      -6.569  -0.329 124.806  0.00  0.00    +0.034 C 
BRANCH  33  34
ATOM     34  C   LIG A   1      -5.747  -1.452 124.202  0.00  0.00    -0.023 C 
ATOM     35  C   LIG A   1      -6.027  -2.768 124.097  0.00  0.00    -0.055 C 
ATOM     36  C   LIG A   1      -5.059  -3.704 123.410  0.00  0.00    +0.043 C 
BRANCH  35  37
ATOM     37  C   LIG A   1      -7.256  -3.357 124.598  0.00  0.00    -0.005 C 
ATOM     38  C   LIG A   1      -8.442  -3.299 123.975  0.00  0.00    +0.008 C 
ENDBRANCH  35  37
ENDBRANCH  33  34
ENDBRANCH  14  33
TORSDOF 13
ENDMDL
MODEL 4
REMARK VINA RESULT:      -6.5      2.982      6.064
REMARK  Name = NuBBE_225
REMARK  19 active torsions:
REMARK  status: ('A' for Active; 'I' for Inactive)
REMARK    1  A    between atoms: C_1  and  C_2
REMARK    2  A    between atoms: C_4  and  O_6
REMARK    3  A    between atoms: O_6  and  C_7
REMARK    4  A    between atoms: C_7  and  C_8
REMARK    5  A    between atoms: C_8  and  C_9
REMARK    6  A    between atoms: C_9  and  C_10
REMARK    7  A    between atoms: C_12  and  O_14
REMARK    8  A    between atoms: C_17  and  O_19
REMARK    9  A    between atoms: O_19  and  C_20
REMARK   10  A    between atoms: C_20  and  C_21
REMARK   11  A    between atoms: C_23  and  O_25
REMARK   12  A    between atoms: O_25  and  C_26
REMARK   13  A    between atoms: C_26  and  C_27
REMARK   14  A    between atoms: C_30  and  O_32
REMARK   15  A    between atoms: C_36  and  C_37
REMARK   16  A    between atoms: C_36  and  C_38
REMARK   17  A    between atoms: C_38  and  C_39
REMARK   18  A    between atoms: C_40  and  C_41
REMARK   19  A    between atoms: C_40  and  C_43
REMARK                            x       y       z     vdW  Elec       q    Type
REMARK                         _______ _______ _______ _____ _____    ______ ____
ROOT
ATOM      1  C   LIG A   1      -5.583   1.149 127.870  0.00  0.00    +0.012 C 
ATOM      2  C   LIG A   1      -6.017   1.255 129.338  0.00  0.00    +0.036 C 
ATOM      3  C   LIG A   1      -7.540   1.066 129.425  0.00  0.00    +0.209 C 
ATOM      4  C   LIG A   1      -8.347   2.317 128.987  0.00  0.00    +0.172 C 
ATOM      5  C   LIG A   1      -7.592   3.712 128.846  0.00  0.00    +0.091 C 
ATOM      6  C   LIG A   1      -8.625   4.747 129.294  0.00  0.00    -0.001 C 
ATOM      7  C   LIG A   1      -9.437   5.160 128.112  0.00  0.00    +0.282 C 
ATOM      8  O   LIG A   1      -8.524   5.130 127.031  0.00  0.00    -0.308 OA
ATOM      9  C   LIG A   1      -7.476   4.187 127.327  0.00  0.00    +0.326 C 
ATOM     10  C   LIG A   1      -8.698   5.282 130.525  0.00  0.00    +0.009 C 
ATOM     11  C   LIG A   1      -7.616   5.055 131.515  0.00  0.00    +0.138 C 
ATOM     12  C   LIG A   1      -6.294   4.957 130.756  0.00  0.00    +0.040 C 
ATOM     13  C   LIG A   1      -6.233   3.839 129.666  0.00  0.00    +0.017 C 
ATOM     14  C   LIG A   1      -5.502   2.517 130.128  0.00  0.00    -0.019 C 
ATOM     15  C   LIG A   1      -5.706   2.265 131.640  0.00  0.00    +0.012 C 
ENDROOT
BRANCH   4  16
ATOM     16  O   LIG A   1      -9.019   2.015 127.746  0.00  0.00    -0.387 OA
ATOM     17  H   LIG A   1      -9.276   2.846 127.305  0.00  0.00    +0.210 HD
ENDBRANCH   4  16
BRANCH  11  18
ATOM     18  O   LIG A   1      -7.542   6.184 132.377  0.00  0.00    -0.388 OA
ATOM     19  H   LIG A   1      -7.362   5.852 133.273  0.00  0.00    +0.210 HD
ENDBRANCH  11  18
BRANCH   3  20
ATOM     20  O   LIG A   1      -7.916   0.665 130.780  0.00  0.00    -0.458 OA
BRANCH  20  21
ATOM     21  C   LIG A   1      -7.988  -0.685 131.008  0.00  0.00    +0.307 C 
ATOM     22  O   LIG A   1      -8.266  -1.192 132.086  0.00  0.00    -0.251 OA
BRANCH  21  23
ATOM     23  C   LIG A   1      -7.684  -1.499 129.768  0.00  0.00    +0.120 C 
BRANCH  23  24
ATOM     24  C   LIG A   1      -8.035  -2.987 129.827  0.00  0.00    +0.008 C 
ATOM     25  C   LIG A   1      -8.651  -3.597 128.575  0.00  0.00    +0.004 C 
ENDBRANCH  23  24
ENDBRANCH  21  23
ENDBRANCH  20  21
ENDBRANCH   3  20
BRANCH   7  26
ATOM     26  O   LIG A   1      -9.961   6.462 128.342  0.00  0.00    -0.348 OA
BRANCH  26  27
ATOM     27  C   LIG A   1     -10.435   7.128 127.180  0.00  0.00    +0.160 C 
ATOM     28  C   LIG A   1     -11.643   8.000 127.472  0.00  0.00    +0.034 C 
ENDBRANCH  26  27
ENDBRANCH   7  26
BRANCH   9  29
ATOM     29  O   LIG A   1      -6.225   4.821 127.014  0.00  0.00    -0.434 OA
BRANCH  29  30
ATOM     30  C   LIG A   1      -5.986   4.993 125.681  0.00  0.00    +0.306 C 
ATOM     31  C   LIG A   1      -5.637   3.669 125.050  0.00  0.00    +0.136 C 
ATOM     32  O   LIG A   1      -6.102   6.011 125.058  0.00  0.00    -0.251 OA
ENDBRANCH  29  30
ENDBRANCH   9  29
BRANCH  14  33
ATOM     33  C   LIG A   1      -3.925   2.618 129.937  0.00  0.00    +0.034 C 
BRANCH  33  34
ATOM     34  C   LIG A   1      -3.340   3.949 129.504  0.00  0.00    -0.023 C 
ATOM     35  C   LIG A   1      -2.830   4.321 128.310  0.00  0.00    -0.055 C 
ATOM     36  C   LIG A   1      -2.336   5.733 128.096  0.00  0.00    +0.043 C 
BRANCH  35  37
ATOM     37  C   LIG A   1      -2.750   3.425 127.170  0.00  0.00    -0.005 C 
ATOM     38  C   LIG A   1      -1.613   3.062 126.561  0.00  0.00    +0.008 C 
ENDBRANCH  35  37
ENDBRANCH  33  34
ENDBRANCH  14  33
TORSDOF 13
ENDMDL
MODEL 5
REMARK VINA RESULT:      -6.4      4.253      8.257
REMARK  Name = NuBBE_225
REMARK  19 active torsions:
REMARK  status: ('A' for Active; 'I' for Inactive)
REMARK    1  A    between atoms: C_1  and  C_2
REMARK    2  A    between atoms: C_4  and  O_6
REMARK    3  A    between atoms: O_6  and  C_7
REMARK    4  A    between atoms: C_7  and  C_8
REMARK    5  A    between atoms: C_8  and  C_9
REMARK    6  A    between atoms: C_9  and  C_10
REMARK    7  A    between atoms: C_12  and  O_14
REMARK    8  A    between atoms: C_17  and  O_19
REMARK    9  A    between atoms: O_19  and  C_20
REMARK   10  A    between atoms: C_20  and  C_21
REMARK   11  A    between atoms: C_23  and  O_25
REMARK   12  A    between atoms: O_25  and  C_26
REMARK   13  A    between atoms: C_26  and  C_27
REMARK   14  A    between atoms: C_30  and  O_32
REMARK   15  A    between atoms: C_36  and  C_37
REMARK   16  A    between atoms: C_36  and  C_38
REMARK   17  A    between atoms: C_38  and  C_39
REMARK   18  A    between atoms: C_40  and  C_41
REMARK   19  A    between atoms: C_40  and  C_43
REMARK                            x       y       z     vdW  Elec       q    Type
REMARK                         _______ _______ _______ _____ _____    ______ ____
ROOT
ATOM      1  C   LIG A   1      -7.930   4.700 134.505  0.00  0.00    +0.012 C 
ATOM      2  C   LIG A   1      -8.122   5.572 133.257  0.00  0.00    +0.036 C 
ATOM      3  C   LIG A   1      -9.421   5.154 132.550  0.00  0.00    +0.209 C 
ATOM      4  C   LIG A   1      -9.292   3.838 131.738  0.00  0.00    +0.172 C 
ATOM      5  C   LIG A   1      -7.839   3.265 131.424  0.00  0.00    +0.091 C 
ATOM      6  C   LIG A   1      -7.973   2.639 130.035  0.00  0.00    -0.001 C 
ATOM      7  C   LIG A   1      -8.410   1.221 130.185  0.00  0.00    +0.282 C 
ATOM      8  O   LIG A   1      -7.777   0.781 131.372  0.00  0.00    -0.308 OA
ATOM      9  C   LIG A   1      -7.534   1.917 132.224  0.00  0.00    +0.326 C 
ATOM     10  C   LIG A   1      -7.629   3.240 128.883  0.00  0.00    +0.009 C 
ATOM     11  C   LIG A   1      -6.874   4.518 128.890  0.00  0.00    +0.138 C 
ATOM     12  C   LIG A   1      -5.947   4.512 130.104  0.00  0.00    +0.040 C 
ATOM     13  C   LIG A   1      -6.657   4.329 131.484  0.00  0.00    +0.017 C 
ATOM     14  C   LIG A   1      -6.890   5.673 132.281  0.00  0.00    -0.019 C 
ATOM     15  C   LIG A   1      -7.125   6.861 131.318  0.00  0.00    +0.012 C 
ENDROOT
BRANCH   4  16
ATOM     16  O   LIG A   1     -10.071   2.816 132.398  0.00  0.00    -0.387 OA
ATOM     17  H   LIG A   1     -10.987   2.844 132.068  0.00  0.00    +0.210 HD
ENDBRANCH   4  16
BRANCH  11  18
ATOM     18  O   LIG A   1      -6.065   4.577 127.722  0.00  0.00    -0.388 OA
ATOM     19  H   LIG A   1      -6.635   4.360 126.965  0.00  0.00    +0.210 HD
ENDBRANCH  11  18
BRANCH   3  20
ATOM     20  O   LIG A   1      -9.891   6.239 131.690  0.00  0.00    -0.458 OA
BRANCH  20  21
ATOM     21  C   LIG A   1     -10.644   5.863 130.607  0.00  0.00    +0.307 C 
ATOM     22  O   LIG A   1     -11.654   5.176 130.669  0.00  0.00    -0.251 OA
BRANCH  21  23
ATOM     23  C   LIG A   1     -10.089   6.396 129.303  0.00  0.00    +0.120 C 
BRANCH  23  24
ATOM     24  C   LIG A   1     -10.212   7.903 129.074  0.00  0.00    +0.008 C 
ATOM     25  C   LIG A   1     -10.805   8.350 127.746  0.00  0.00    +0.004 C 
ENDBRANCH  23  24
ENDBRANCH  21  23
ENDBRANCH  20  21
ENDBRANCH   3  20
BRANCH   7  26
ATOM     26  O   LIG A   1      -7.993   0.484 129.043  0.00  0.00    -0.348 OA
BRANCH  26  27
ATOM     27  C   LIG A   1      -6.931  -0.431 129.278  0.00  0.00    +0.160 C 
ATOM     28  C   LIG A   1      -5.627   0.035 128.655  0.00  0.00    +0.034 C 
ENDBRANCH  26  27
ENDBRANCH   7  26
BRANCH   9  29
ATOM     29  O   LIG A   1      -6.181   1.820 132.696  0.00  0.00    -0.434 OA
BRANCH  29  30
ATOM     30  C   LIG A   1      -6.052   1.387 133.985  0.00  0.00    +0.306 C 
ATOM     31  C   LIG A   1      -5.213   2.364 134.769  0.00  0.00    +0.136 C 
ATOM     32  O   LIG A   1      -6.575   0.425 134.473  0.00  0.00    -0.251 OA
ENDBRANCH  29  30
ENDBRANCH   9  29
BRANCH  14  33
ATOM     33  C   LIG A   1      -5.609   6.082 133.133  0.00  0.00    +0.034 C 
BRANCH  33  34
ATOM     34  C   LIG A   1      -4.251   5.598 132.662  0.00  0.00    -0.023 C 
ATOM     35  C   LIG A   1      -3.292   6.250 131.971  0.00  0.00    -0.055 C 
ATOM     36  C   LIG A   1      -1.984   5.567 131.644  0.00  0.00    +0.043 C 
BRANCH  35  37
ATOM     37  C   LIG A   1      -3.435   7.627 131.528  0.00  0.00    -0.005 C 
ATOM     38  C   LIG A   1      -3.833   7.999 130.305  0.00  0.00    +0.008 C 
ENDBRANCH  35  37
ENDBRANCH  33  34
ENDBRANCH  14  33
TORSDOF 13
ENDMDL
MODEL 6
REMARK VINA RESULT:      -6.4      2.193      2.979
REMARK  Name = NuBBE_225
REMARK  19 active torsions:
REMARK  status: ('A' for Active; 'I' for Inactive)
REMARK    1  A    between atoms: C_1  and  C_2
REMARK    2  A    between atoms: C_4  and  O_6
REMARK    3  A    between atoms: O_6  and  C_7
REMARK    4  A    between atoms: C_7  and  C_8
REMARK    5  A    between atoms: C_8  and  C_9
REMARK    6  A    between atoms: C_9  and  C_10
REMARK    7  A    between atoms: C_12  and  O_14
REMARK    8  A    between atoms: C_17  and  O_19
REMARK    9  A    between atoms: O_19  and  C_20
REMARK   10  A    between atoms: C_20  and  C_21
REMARK   11  A    between atoms: C_23  and  O_25
REMARK   12  A    between atoms: O_25  and  C_26
REMARK   13  A    between atoms: C_26  and  C_27
REMARK   14  A    between atoms: C_30  and  O_32
REMARK   15  A    between atoms: C_36  and  C_37
REMARK   16  A    between atoms: C_36  and  C_38
REMARK   17  A    between atoms: C_38  and  C_39
REMARK   18  A    between atoms: C_40  and  C_41
REMARK   19  A    between atoms: C_40  and  C_43
REMARK                            x       y       z     vdW  Elec       q    Type
REMARK                         _______ _______ _______ _____ _____    ______ ____
ROOT
ATOM      1  C   LIG A   1      -8.806   1.866 128.962  0.00  0.00    +0.012 C 
ATOM      2  C   LIG A   1      -7.434   2.352 129.444  0.00  0.00    +0.036 C 
ATOM      3  C   LIG A   1      -7.337   3.871 129.232  0.00  0.00    +0.209 C 
ATOM      4  C   LIG A   1      -7.079   4.277 127.756  0.00  0.00    +0.172 C 
ATOM      5  C   LIG A   1      -6.603   3.164 126.721  0.00  0.00    +0.091 C 
ATOM      6  C   LIG A   1      -5.651   3.905 125.782  0.00  0.00    -0.001 C 
ATOM      7  C   LIG A   1      -6.441   4.493 124.660  0.00  0.00    +0.282 C 
ATOM      8  O   LIG A   1      -7.472   3.552 124.426  0.00  0.00    -0.308 OA
ATOM      9  C   LIG A   1      -7.728   2.822 125.641  0.00  0.00    +0.326 C 
ATOM     10  C   LIG A   1      -4.312   3.913 125.890  0.00  0.00    +0.009 C 
ATOM     11  C   LIG A   1      -3.623   3.002 126.838  0.00  0.00    +0.138 C 
ATOM     12  C   LIG A   1      -4.431   1.708 126.922  0.00  0.00    +0.040 C 
ATOM     13  C   LIG A   1      -5.919   1.880 127.367  0.00  0.00    +0.017 C 
ATOM     14  C   LIG A   1      -6.183   1.568 128.892  0.00  0.00    -0.019 C 
ATOM     15  C   LIG A   1      -4.955   1.935 129.759  0.00  0.00    +0.012 C 
ENDROOT
BRANCH   4  16
ATOM     16  O   LIG A   1      -8.267   4.921 127.245  0.00  0.00    -0.387 OA
ATOM     17  H   LIG A   1      -8.375   4.702 126.302  0.00  0.00    +0.210 HD
ENDBRANCH   4  16
BRANCH  11  18
ATOM     18  O   LIG A   1      -2.340   2.683 126.313  0.00  0.00    -0.388 OA
ATOM     19  H   LIG A   1      -1.857   3.519 126.202  0.00  0.00    +0.210 HD
ENDBRANCH  11  18
BRANCH   3  20
ATOM     20  O   LIG A   1      -6.306   4.432 130.102  0.00  0.00    -0.458 OA
BRANCH  20  21
ATOM     21  C   LIG A   1      -6.738   4.923 131.307  0.00  0.00    +0.307 C 
ATOM     22  O   LIG A   1      -6.758   4.283 132.350  0.00  0.00    -0.251 OA
BRANCH  21  23
ATOM     23  C   LIG A   1      -7.197   6.363 131.216  0.00  0.00    +0.120 C 
BRANCH  23  24
ATOM     24  C   LIG A   1      -8.697   6.612 131.375  0.00  0.00    +0.008 C 
ATOM     25  C   LIG A   1      -9.438   7.147 130.157  0.00  0.00    +0.004 C 
ENDBRANCH  23  24
ENDBRANCH  21  23
ENDBRANCH  20  21
ENDBRANCH   3  20
BRANCH   7  26
ATOM     26  O   LIG A   1      -5.592   4.658 123.532  0.00  0.00    -0.348 OA
BRANCH  26  27
ATOM     27  C   LIG A   1      -5.925   3.851 122.411  0.00  0.00    +0.160 C 
ATOM     28  C   LIG A   1      -5.147   4.248 121.169  0.00  0.00    +0.034 C 
ENDBRANCH  26  27
ENDBRANCH   7  26
BRANCH   9  29
ATOM     29  O   LIG A   1      -7.794   1.428 125.300  0.00  0.00    -0.434 OA
BRANCH  29  30
ATOM     30  C   LIG A   1      -9.056   0.947 125.094  0.00  0.00    +0.306 C 
ATOM     31  C   LIG A   1      -9.103   0.179 123.797  0.00  0.00    +0.136 C 
ATOM     32  O   LIG A   1      -9.988   1.035 125.843  0.00  0.00    -0.251 OA
ENDBRANCH  29  30
ENDBRANCH   9  29
BRANCH  14  33
ATOM     33  C   LIG A   1      -6.415   0.014 129.145  0.00  0.00    +0.034 C 
BRANCH  33  34
ATOM     34  C   LIG A   1      -7.009  -0.814 128.021  0.00  0.00    -0.023 C 
ATOM     35  C   LIG A   1      -7.710  -1.966 128.073  0.00  0.00    -0.055 C 
ATOM     36  C   LIG A   1      -8.243  -2.595 126.807  0.00  0.00    +0.043 C 
BRANCH  35  37
ATOM     37  C   LIG A   1      -8.018  -2.649 129.318  0.00  0.00    -0.005 C 
ATOM     38  C   LIG A   1      -7.198  -3.504 129.944  0.00  0.00    +0.008 C 
ENDBRANCH  35  37
ENDBRANCH  33  34
ENDBRANCH  14  33
TORSDOF 13
ENDMDL
MODEL 7
REMARK VINA RESULT:      -6.4      2.898      5.650
REMARK  Name = NuBBE_225
REMARK  19 active torsions:
REMARK  status: ('A' for Active; 'I' for Inactive)
REMARK    1  A    between atoms: C_1  and  C_2
REMARK    2  A    between atoms: C_4  and  O_6
REMARK    3  A    between atoms: O_6  and  C_7
REMARK    4  A    between atoms: C_7  and  C_8
REMARK    5  A    between atoms: C_8  and  C_9
REMARK    6  A    between atoms: C_9  and  C_10
REMARK    7  A    between atoms: C_12  and  O_14
REMARK    8  A    between atoms: C_17  and  O_19
REMARK    9  A    between atoms: O_19  and  C_20
REMARK   10  A    between atoms: C_20  and  C_21
REMARK   11  A    between atoms: C_23  and  O_25
REMARK   12  A    between atoms: O_25  and  C_26
REMARK   13  A    between atoms: C_26  and  C_27
REMARK   14  A    between atoms: C_30  and  O_32
REMARK   15  A    between atoms: C_36  and  C_37
REMARK   16  A    between atoms: C_36  and  C_38
REMARK   17  A    between atoms: C_38  and  C_39
REMARK   18  A    between atoms: C_40  and  C_41
REMARK   19  A    between atoms: C_40  and  C_43
REMARK                            x       y       z     vdW  Elec       q    Type
REMARK                         _______ _______ _______ _____ _____    ______ ____
ROOT
ATOM      1  C   LIG A   1      -8.186   2.332 127.923  0.00  0.00    +0.012 C 
ATOM      2  C   LIG A   1      -6.980   1.903 128.769  0.00  0.00    +0.036 C 
ATOM      3  C   LIG A   1      -5.710   1.976 127.905  0.00  0.00    +0.209 C 
ATOM      4  C   LIG A   1      -5.566   0.793 126.911  0.00  0.00    +0.172 C 
ATOM      5  C   LIG A   1      -6.482  -0.496 127.107  0.00  0.00    +0.091 C 
ATOM      6  C   LIG A   1      -5.589  -1.661 126.679  0.00  0.00    -0.001 C 
ATOM      7  C   LIG A   1      -5.745  -1.875 125.211  0.00  0.00    +0.282 C 
ATOM      8  O   LIG A   1      -7.103  -1.569 124.953  0.00  0.00    -0.308 OA
ATOM      9  C   LIG A   1      -7.574  -0.643 125.951  0.00  0.00    +0.326 C 
ATOM     10  C   LIG A   1      -4.882  -2.438 127.517  0.00  0.00    +0.009 C 
ATOM     11  C   LIG A   1      -5.085  -2.352 128.985  0.00  0.00    +0.138 C 
ATOM     12  C   LIG A   1      -6.554  -2.020 129.240  0.00  0.00    +0.040 C 
ATOM     13  C   LIG A   1      -7.065  -0.702 128.573  0.00  0.00    +0.017 C 
ATOM     14  C   LIG A   1      -7.123   0.540 129.546  0.00  0.00    -0.019 C 
ATOM     15  C   LIG A   1      -6.006   0.467 130.614  0.00  0.00    +0.012 C 
ENDROOT
BRANCH   4  16
ATOM     16  O   LIG A   1      -5.741   1.299 125.570  0.00  0.00    -0.387 OA
ATOM     17  H   LIG A   1      -6.133   2.190 125.608  0.00  0.00    +0.210 HD
ENDBRANCH   4  16
BRANCH  11  18
ATOM     18  O   LIG A   1      -4.818  -3.625 129.558  0.00  0.00    -0.388 OA
ATOM     19  H   LIG A   1      -5.321  -4.283 129.049  0.00  0.00    +0.210 HD
ENDBRANCH  11  18
BRANCH   3  20
ATOM     20  O   LIG A   1      -4.530   2.069 128.761  0.00  0.00    -0.458 OA
BRANCH  20  21
ATOM     21  C   LIG A   1      -3.641   3.066 128.452  0.00  0.00    +0.307 C 
ATOM     22  O   LIG A   1      -2.678   2.931 127.709  0.00  0.00    -0.251 OA
BRANCH  21  23
ATOM     23  C   LIG A   1      -3.977   4.375 129.134  0.00  0.00    +0.120 C 
BRANCH  23  24
ATOM     24  C   LIG A   1      -2.800   5.176 129.691  0.00  0.00    +0.008 C 
ATOM     25  C   LIG A   1      -2.253   6.294 128.814  0.00  0.00    +0.004 C 
ENDBRANCH  23  24
ENDBRANCH  21  23
ENDBRANCH  20  21
ENDBRANCH   3  20
BRANCH   7  26
ATOM     26  O   LIG A   1      -5.425  -3.226 124.902  0.00  0.00    -0.348 OA
BRANCH  26  27
ATOM     27  C   LIG A   1      -4.844  -3.423 123.620  0.00  0.00    +0.160 C 
ATOM     28  C   LIG A   1      -4.213  -4.797 123.484  0.00  0.00    +0.034 C 
ENDBRANCH  26  27
ENDBRANCH   7  26
BRANCH   9  29
ATOM     29  O   LIG A   1      -8.845  -1.122 126.417  0.00  0.00    -0.434 OA
BRANCH  29  30
ATOM     30  C   LIG A   1      -9.241  -2.314 125.881  0.00  0.00    +0.306 C 
ATOM     31  C   LIG A   1      -8.934  -3.433 126.844  0.00  0.00    +0.136 C 
ATOM     32  O   LIG A   1      -9.817  -2.477 124.842  0.00  0.00    -0.251 OA
ENDBRANCH  29  30
ENDBRANCH   9  29
BRANCH  14  33
ATOM     33  C   LIG A   1      -8.482   0.577 130.375  0.00  0.00    +0.034 C 
BRANCH  33  34
ATOM     34  C   LIG A   1      -8.518   1.393 131.654  0.00  0.00    -0.023 C 
ATOM     35  C   LIG A   1      -9.348   2.394 132.017  0.00  0.00    -0.055 C 
ATOM     36  C   LIG A   1      -9.219   3.040 133.377  0.00  0.00    +0.043 C 
BRANCH  35  37
ATOM     37  C   LIG A   1     -10.412   2.889 131.160  0.00  0.00    -0.005 C 
ATOM     38  C   LIG A   1     -10.360   4.027 130.456  0.00  0.00    +0.008 C 
ENDBRANCH  35  37
ENDBRANCH  33  34
ENDBRANCH  14  33
TORSDOF 13
ENDMDL
MODEL 8
REMARK VINA RESULT:      -6.4      2.903      4.623
REMARK  Name = NuBBE_225
REMARK  19 active torsions:
REMARK  status: ('A' for Active; 'I' for Inactive)
REMARK    1  A    between atoms: C_1  and  C_2
REMARK    2  A    between atoms: C_4  and  O_6
REMARK    3  A    between atoms: O_6  and  C_7
REMARK    4  A    between atoms: C_7  and  C_8
REMARK    5  A    between atoms: C_8  and  C_9
REMARK    6  A    between atoms: C_9  and  C_10
REMARK    7  A    between atoms: C_12  and  O_14
REMARK    8  A    between atoms: C_17  and  O_19
REMARK    9  A    between atoms: O_19  and  C_20
REMARK   10  A    between atoms: C_20  and  C_21
REMARK   11  A    between atoms: C_23  and  O_25
REMARK   12  A    between atoms: O_25  and  C_26
REMARK   13  A    between atoms: C_26  and  C_27
REMARK   14  A    between atoms: C_30  and  O_32
REMARK   15  A    between atoms: C_36  and  C_37
REMARK   16  A    between atoms: C_36  and  C_38
REMARK   17  A    between atoms: C_38  and  C_39
REMARK   18  A    between atoms: C_40  and  C_41
REMARK   19  A    between atoms: C_40  and  C_43
REMARK                            x       y       z     vdW  Elec       q    Type
REMARK                         _______ _______ _______ _____ _____    ______ ____
ROOT
ATOM      1  C   LIG A   1      -8.651   1.562 127.764  0.00  0.00    +0.012 C 
ATOM      2  C   LIG A   1      -8.690   2.154 129.178  0.00  0.00    +0.036 C 
ATOM      3  C   LIG A   1      -8.590   3.685 129.083  0.00  0.00    +0.209 C 
ATOM      4  C   LIG A   1      -7.155   4.198 128.794  0.00  0.00    +0.172 C 
ATOM      5  C   LIG A   1      -5.927   3.198 128.973  0.00  0.00    +0.091 C 
ATOM      6  C   LIG A   1      -4.793   4.083 129.492  0.00  0.00    -0.001 C 
ATOM      7  C   LIG A   1      -4.054   4.651 128.327  0.00  0.00    +0.282 C 
ATOM      8  O   LIG A   1      -4.095   3.627 127.351  0.00  0.00    -0.308 OA
ATOM      9  C   LIG A   1      -5.257   2.807 127.578  0.00  0.00    +0.326 C 
ATOM     10  C   LIG A   1      -4.450   4.217 130.784  0.00  0.00    +0.009 C 
ATOM     11  C   LIG A   1      -5.031   3.327 131.819  0.00  0.00    +0.138 C 
ATOM     12  C   LIG A   1      -5.266   1.957 131.187  0.00  0.00    +0.040 C 
ATOM     13  C   LIG A   1      -6.194   1.954 129.929  0.00  0.00    +0.017 C 
ATOM     14  C   LIG A   1      -7.687   1.531 130.222  0.00  0.00    -0.019 C 
ATOM     15  C   LIG A   1      -8.124   1.968 131.640  0.00  0.00    +0.012 C 
ENDROOT
BRANCH   4  16
ATOM     16  O   LIG A   1      -7.126   4.748 127.459  0.00  0.00    -0.387 OA
ATOM     17  H   LIG A   1      -7.300   5.706 127.500  0.00  0.00    +0.210 HD
ENDBRANCH   4  16
BRANCH  11  18
ATOM     18  O   LIG A   1      -4.084   3.168 132.869  0.00  0.00    -0.388 OA
ATOM     19  H   LIG A   1      -3.754   2.255 132.824  0.00  0.00    +0.210 HD
ENDBRANCH  11  18
BRANCH   3  20
ATOM     20  O   LIG A   1      -9.114   4.295 130.304  0.00  0.00    -0.458 OA
BRANCH  20  21
ATOM     21  C   LIG A   1      -9.833   5.450 130.137  0.00  0.00    +0.307 C 
ATOM     22  O   LIG A   1     -10.841   5.547 129.451  0.00  0.00    -0.251 OA
BRANCH  21  23
ATOM     23  C   LIG A   1      -9.243   6.616 130.903  0.00  0.00    +0.120 C 
BRANCH  23  24
ATOM     24  C   LIG A   1      -7.946   6.343 131.667  0.00  0.00    +0.008 C 
ATOM     25  C   LIG A   1      -6.683   7.004 131.135  0.00  0.00    +0.004 C 
ENDBRANCH  23  24
ENDBRANCH  21  23
ENDBRANCH  20  21
ENDBRANCH   3  20
BRANCH   7  26
ATOM     26  O   LIG A   1      -2.726   4.965 128.728  0.00  0.00    -0.348 OA
BRANCH  26  27
ATOM     27  C   LIG A   1      -2.292   6.274 128.384  0.00  0.00    +0.160 C 
ATOM     28  C   LIG A   1      -3.359   7.319 128.654  0.00  0.00    +0.034 C 
ENDBRANCH  26  27
ENDBRANCH   7  26
BRANCH   9  29
ATOM     29  O   LIG A   1      -4.838   1.436 127.504  0.00  0.00    -0.434 OA
BRANCH  29  30
ATOM     30  C   LIG A   1      -5.311   0.748 126.423  0.00  0.00    +0.306 C 
ATOM     31  C   LIG A   1      -5.976   1.703 125.463  0.00  0.00    +0.136 C 
ATOM     32  O   LIG A   1      -5.170  -0.421 126.199  0.00  0.00    -0.251 OA
ENDBRANCH  29  30
ENDBRANCH   9  29
BRANCH  14  33
ATOM     33  C   LIG A   1      -7.866  -0.051 130.206  0.00  0.00    +0.034 C 
BRANCH  33  34
ATOM     34  C   LIG A   1      -6.724  -0.895 129.675  0.00  0.00    -0.023 C 
ATOM     35  C   LIG A   1      -6.695  -2.206 129.353  0.00  0.00    -0.055 C 
ATOM     36  C   LIG A   1      -5.436  -2.830 128.795  0.00  0.00    +0.043 C 
BRANCH  35  37
ATOM     37  C   LIG A   1      -7.848  -3.079 129.490  0.00  0.00    -0.005 C 
ATOM     38  C   LIG A   1      -8.591  -3.530 128.470  0.00  0.00    +0.008 C 
ENDBRANCH  35  37
ENDBRANCH  33  34
ENDBRANCH  14  33
TORSDOF 13
ENDMDL
MODEL 9
REMARK VINA RESULT:      -6.4      2.767      6.028
REMARK  Name = NuBBE_225
REMARK  19 active torsions:
REMARK  status: ('A' for Active; 'I' for Inactive)
REMARK    1  A    between atoms: C_1  and  C_2
REMARK    2  A    between atoms: C_4  and  O_6
REMARK    3  A    between atoms: O_6  and  C_7
REMARK    4  A    between atoms: C_7  and  C_8
REMARK    5  A    between atoms: C_8  and  C_9
REMARK    6  A    between atoms: C_9  and  C_10
REMARK    7  A    between atoms: C_12  and  O_14
REMARK    8  A    between atoms: C_17  and  O_19
REMARK    9  A    between atoms: O_19  and  C_20
REMARK   10  A    between atoms: C_20  and  C_21
REMARK   11  A    between atoms: C_23  and  O_25
REMARK   12  A    between atoms: O_25  and  C_26
REMARK   13  A    between atoms: C_26  and  C_27
REMARK   14  A    between atoms: C_30  and  O_32
REMARK   15  A    between atoms: C_36  and  C_37
REMARK   16  A    between atoms: C_36  and  C_38
REMARK   17  A    between atoms: C_38  and  C_39
REMARK   18  A    between atoms: C_40  and  C_41
REMARK   19  A    between atoms: C_40  and  C_43
REMARK                            x       y       z     vdW  Elec       q    Type
REMARK                         _______ _______ _______ _____ _____    ______ ____
ROOT
ATOM      1  C   LIG A   1      -5.109   1.597 126.905  0.00  0.00    +0.012 C 
ATOM      2  C   LIG A   1      -6.090   0.650 127.606  0.00  0.00    +0.036 C 
ATOM      3  C   LIG A   1      -7.513   0.937 127.098  0.00  0.00    +0.209 C 
ATOM      4  C   LIG A   1      -8.145   2.215 127.711  0.00  0.00    +0.172 C 
ATOM      5  C   LIG A   1      -7.469   2.871 128.995  0.00  0.00    +0.091 C 
ATOM      6  C   LIG A   1      -8.647   3.411 129.807  0.00  0.00    -0.001 C 
ATOM      7  C   LIG A   1      -8.947   4.802 129.356  0.00  0.00    +0.282 C 
ATOM      8  O   LIG A   1      -7.681   5.347 129.032  0.00  0.00    -0.308 OA
ATOM      9  C   LIG A   1      -6.788   4.277 128.667  0.00  0.00    +0.326 C 
ATOM     10  C   LIG A   1      -9.226   2.776 130.840  0.00  0.00    +0.009 C 
ATOM     11  C   LIG A   1      -8.612   1.557 131.422  0.00  0.00    +0.138 C 
ATOM     12  C   LIG A   1      -7.095   1.692 131.307  0.00  0.00    +0.040 C 
ATOM     13  C   LIG A   1      -6.551   1.897 129.857  0.00  0.00    +0.017 C 
ATOM     14  C   LIG A   1      -5.995   0.585 129.178  0.00  0.00    -0.019 C 
ATOM     15  C   LIG A   1      -6.765  -0.666 129.663  0.00  0.00    +0.012 C 
ENDROOT
BRANCH   4  16
ATOM     16  O   LIG A   1      -8.257   3.212 126.673  0.00  0.00    -0.387 OA
ATOM     17  H   LIG A   1      -7.367   3.494 126.396  0.00  0.00    +0.210 HD
ENDBRANCH   4  16
BRANCH  11  18
ATOM     18  O   LIG A   1      -8.943   1.494 132.803  0.00  0.00    -0.388 OA
ATOM     19  H   LIG A   1      -8.617   0.643 133.140  0.00  0.00    +0.210 HD
ENDBRANCH  11  18
BRANCH   3  20
ATOM     20  O   LIG A   1      -8.371  -0.222 127.338  0.00  0.00    -0.458 OA
BRANCH  20  21
ATOM     21  C   LIG A   1      -8.697  -0.966 126.233  0.00  0.00    +0.307 C 
ATOM     22  O   LIG A   1      -9.424  -0.581 125.328  0.00  0.00    -0.251 OA
BRANCH  21  23
ATOM     23  C   LIG A   1      -8.054  -2.336 126.247  0.00  0.00    +0.120 C 
BRANCH  23  24
ATOM     24  C   LIG A   1      -8.863  -3.463 126.890  0.00  0.00    +0.008 C 
ATOM     25  C   LIG A   1      -8.653  -3.697 128.380  0.00  0.00    +0.004 C 
ENDBRANCH  23  24
ENDBRANCH  21  23
ENDBRANCH  20  21
ENDBRANCH   3  20
BRANCH   7  26
ATOM     26  O   LIG A   1      -9.586   5.505 130.414  0.00  0.00    -0.348 OA
BRANCH  26  27
ATOM     27  C   LIG A   1      -8.788   6.503 131.034  0.00  0.00    +0.160 C 
ATOM     28  C   LIG A   1      -8.306   6.078 132.409  0.00  0.00    +0.034 C 
ENDBRANCH  26  27
ENDBRANCH   7  26
BRANCH   9  29
ATOM     29  O   LIG A   1      -5.550   4.494 129.363  0.00  0.00    -0.434 OA
BRANCH  29  30
ATOM     30  C   LIG A   1      -4.512   4.903 128.575  0.00  0.00    +0.306 C 
ATOM     31  C   LIG A   1      -3.276   4.105 128.905  0.00  0.00    +0.136 C 
ATOM     32  O   LIG A   1      -4.558   5.714 127.693  0.00  0.00    -0.251 OA
ENDBRANCH  29  30
ENDBRANCH   9  29
BRANCH  14  33
ATOM     33  C   LIG A   1      -4.478   0.312 129.576  0.00  0.00    +0.034 C 
BRANCH  33  34
ATOM     34  C   LIG A   1      -4.201  -0.506 130.823  0.00  0.00    -0.023 C 
ATOM     35  C   LIG A   1      -3.667  -1.740 130.946  0.00  0.00    -0.055 C 
ATOM     36  C   LIG A   1      -3.445  -2.345 132.313  0.00  0.00    +0.043 C 
BRANCH  35  37
ATOM     37  C   LIG A   1      -3.253  -2.540 129.806  0.00  0.00    -0.005 C 
ATOM     38  C   LIG A   1      -4.064  -3.334 129.094  0.00  0.00    +0.008 C 
ENDBRANCH  35  37
ENDBRANCH  33  34
ENDBRANCH  14  33
TORSDOF 13
ENDMDL
