MODEL 1
REMARK VINA RESULT:      -7.1      0.000      0.000
REMARK  Name = NuBBE_1668
REMARK  16 active torsions:
REMARK  status: ('A' for Active; 'I' for Inactive)
REMARK    1  A    between atoms: C_1  and  O_2
REMARK    2  A    between atoms: O_2  and  C_3
REMARK    3  A    between atoms: C_4  and  O_5
REMARK    4  A    between atoms: O_5  and  C_6
REMARK    5  A    between atoms: C_9  and  C_10
REMARK    6  A    between atoms: C_10  and  C_11
REMARK    7  A    between atoms: C_11  and  C_13
REMARK    8  A    between atoms: C_11  and  C_14
REMARK    9  A    between atoms: C_14  and  C_16
REMARK   10  A    between atoms: C_14  and  C_17
REMARK   11  A    between atoms: C_17  and  C_19
REMARK   12  A    between atoms: C_17  and  O_29
REMARK   13  A    between atoms: C_22  and  O_23
REMARK   14  A    between atoms: O_23  and  C_24
REMARK   15  A    between atoms: C_25  and  O_26
REMARK   16  A    between atoms: O_26  and  C_27
REMARK                            x       y       z     vdW  Elec       q    Type
REMARK                         _______ _______ _______ _____ _____    ______ ____
ROOT
ATOM      1  C   LIG A   1      -7.942  -2.954 124.484  0.00  0.00    +0.022 C 
ATOM      2  C   LIG A   1      -8.767  -2.912 123.182  0.00  0.00    +0.010 C 
ENDROOT
BRANCH   1   3
ATOM      3  C   LIG A   1      -6.532  -2.296 124.274  0.00  0.00    -0.004 C 
ATOM      4  C   LIG A   1      -5.419  -3.288 123.896  0.00  0.00    +0.008 C 
BRANCH   3   5
ATOM      5  C   LIG A   1      -6.536  -1.115 123.256  0.00  0.00    +0.039 C 
BRANCH   5  10
ATOM      6  C   LIG A   1      -8.410   2.227 123.376  0.00  0.00    +0.162 A 
ATOM      7  C   LIG A   1      -8.157   2.635 124.699  0.00  0.00    +0.162 A 
ATOM      8  C   LIG A   1      -7.403   1.809 125.537  0.00  0.00    +0.050 A 
ATOM      9  C   LIG A   1      -6.898   0.596 125.070  0.00  0.00    +0.007 A 
ATOM     10  C   LIG A   1      -7.136   0.180 123.758  0.00  0.00    -0.043 A 
ATOM     11  C   LIG A   1      -7.919   0.994 122.926  0.00  0.00    +0.053 A 
BRANCH   6  13
ATOM     12  C   LIG A   1      -8.588   3.483 121.362  0.00  0.00    +0.277 C 
ATOM     13  O   LIG A   1      -9.157   3.080 122.601  0.00  0.00    -0.491 OA
ENDBRANCH   6  13
BRANCH   7  14
ATOM     14  O   LIG A   1      -8.670   3.853 125.075  0.00  0.00    -0.491 OA
ATOM     15  C   LIG A   1      -7.750   4.818 125.566  0.00  0.00    +0.277 C 
ENDBRANCH   7  14
ENDBRANCH   5  10
ENDBRANCH   3   5
ENDBRANCH   1   3
BRANCH   1  16
ATOM     16  C   LIG A   1      -8.831  -2.423 125.653  0.00  0.00    +0.148 C 
BRANCH  16  17
ATOM     17  C   LIG A   1      -8.317  -2.668 127.057  0.00  0.00    -0.015 A 
ATOM     18  C   LIG A   1      -8.796  -3.719 127.831  0.00  0.00    +0.010 A 
ATOM     19  C   LIG A   1      -8.278  -3.980 129.100  0.00  0.00    +0.050 A 
ATOM     20  C   LIG A   1      -7.260  -3.182 129.635  0.00  0.00    +0.162 A 
ATOM     21  C   LIG A   1      -6.807  -2.076 128.900  0.00  0.00    +0.162 A 
ATOM     22  C   LIG A   1      -7.342  -1.830 127.625  0.00  0.00    +0.055 A 
BRANCH  20  23
ATOM     23  O   LIG A   1      -6.761  -3.422 130.889  0.00  0.00    -0.491 OA
ATOM     24  C   LIG A   1      -5.724  -4.399 130.942  0.00  0.00    +0.277 C 
ENDBRANCH  20  23
BRANCH  21  25
ATOM     25  O   LIG A   1      -5.881  -1.139 129.284  0.00  0.00    -0.491 OA
ATOM     26  C   LIG A   1      -5.916   0.119 128.625  0.00  0.00    +0.277 C 
ENDBRANCH  21  25
ENDBRANCH  16  17
BRANCH  16  27
ATOM     27  O   LIG A   1     -10.170  -2.894 125.534  0.00  0.00    -0.387 OA
ATOM     28  H   LIG A   1     -10.380  -2.902 124.584  0.00  0.00    +0.210 HD
ENDBRANCH  16  27
ENDBRANCH   1  16
TORSDOF 10
ENDMDL
MODEL 2
REMARK VINA RESULT:      -7.0      1.548      5.889
REMARK  Name = NuBBE_1668
REMARK  16 active torsions:
REMARK  status: ('A' for Active; 'I' for Inactive)
REMARK    1  A    between atoms: C_1  and  O_2
REMARK    2  A    between atoms: O_2  and  C_3
REMARK    3  A    between atoms: C_4  and  O_5
REMARK    4  A    between atoms: O_5  and  C_6
REMARK    5  A    between atoms: C_9  and  C_10
REMARK    6  A    between atoms: C_10  and  C_11
REMARK    7  A    between atoms: C_11  and  C_13
REMARK    8  A    between atoms: C_11  and  C_14
REMARK    9  A    between atoms: C_14  and  C_16
REMARK   10  A    between atoms: C_14  and  C_17
REMARK   11  A    between atoms: C_17  and  C_19
REMARK   12  A    between atoms: C_17  and  O_29
REMARK   13  A    between atoms: C_22  and  O_23
REMARK   14  A    between atoms: O_23  and  C_24
REMARK   15  A    between atoms: C_25  and  O_26
REMARK   16  A    between atoms: O_26  and  C_27
REMARK                            x       y       z     vdW  Elec       q    Type
REMARK                         _______ _______ _______ _____ _____    ______ ____
ROOT
ATOM      1  C   LIG A   1      -8.042  -2.422 124.132  0.00  0.00    +0.022 C 
ATOM      2  C   LIG A   1      -8.947  -3.659 124.295  0.00  0.00    +0.010 C 
ENDROOT
BRANCH   1   3
ATOM      3  C   LIG A   1      -6.589  -2.842 123.709  0.00  0.00    -0.004 C 
ATOM      4  C   LIG A   1      -6.010  -2.029 122.539  0.00  0.00    +0.008 C 
BRANCH   3   5
ATOM      5  C   LIG A   1      -5.569  -2.846 124.888  0.00  0.00    +0.039 C 
BRANCH   5  10
ATOM      6  C   LIG A   1      -6.740  -1.070 128.077  0.00  0.00    +0.162 A 
ATOM      7  C   LIG A   1      -6.262   0.235 127.854  0.00  0.00    +0.162 A 
ATOM      8  C   LIG A   1      -5.547   0.512 126.685  0.00  0.00    +0.050 A 
ATOM      9  C   LIG A   1      -5.315  -0.489 125.742  0.00  0.00    +0.007 A 
ATOM     10  C   LIG A   1      -5.788  -1.788 125.947  0.00  0.00    -0.043 A 
ATOM     11  C   LIG A   1      -6.478  -2.073 127.134  0.00  0.00    +0.053 A 
BRANCH   6  13
ATOM     12  C   LIG A   1      -7.978  -2.579 129.439  0.00  0.00    +0.277 C 
ATOM     13  O   LIG A   1      -7.434  -1.280 129.243  0.00  0.00    -0.491 OA
ENDBRANCH   6  13
BRANCH   7  14
ATOM     14  O   LIG A   1      -6.552   1.169 128.819  0.00  0.00    -0.491 OA
ATOM     15  C   LIG A   1      -5.459   1.702 129.553  0.00  0.00    +0.277 C 
ENDBRANCH   7  14
ENDBRANCH   5  10
ENDBRANCH   3   5
ENDBRANCH   1   3
BRANCH   1  16
ATOM     16  C   LIG A   1      -8.788  -1.374 123.246  0.00  0.00    +0.148 C 
BRANCH  16  17
ATOM     17  C   LIG A   1      -8.837   0.044 123.777  0.00  0.00    -0.015 A 
ATOM     18  C   LIG A   1      -8.949   0.306 125.138  0.00  0.00    +0.010 A 
ATOM     19  C   LIG A   1      -8.933   1.612 125.629  0.00  0.00    +0.050 A 
ATOM     20  C   LIG A   1      -8.811   2.702 124.760  0.00  0.00    +0.162 A 
ATOM     21  C   LIG A   1      -8.764   2.466 123.378  0.00  0.00    +0.162 A 
ATOM     22  C   LIG A   1      -8.782   1.144 122.903  0.00  0.00    +0.055 A 
BRANCH  20  23
ATOM     23  O   LIG A   1      -8.815   3.987 125.235  0.00  0.00    -0.491 OA
ATOM     24  C   LIG A   1      -7.523   4.531 125.498  0.00  0.00    +0.277 C 
ENDBRANCH  20  23
BRANCH  21  25
ATOM     25  O   LIG A   1      -8.724   3.397 122.371  0.00  0.00    -0.491 OA
ATOM     26  C   LIG A   1      -7.525   3.486 121.613  0.00  0.00    +0.277 C 
ENDBRANCH  21  25
ENDBRANCH  16  17
BRANCH  16  27
ATOM     27  O   LIG A   1     -10.101  -1.819 122.921  0.00  0.00    -0.387 OA
ATOM     28  H   LIG A   1     -10.021  -2.366 122.120  0.00  0.00    +0.210 HD
ENDBRANCH  16  27
ENDBRANCH   1  16
TORSDOF 10
ENDMDL
MODEL 3
REMARK VINA RESULT:      -6.7      2.071      2.726
REMARK  Name = NuBBE_1668
REMARK  16 active torsions:
REMARK  status: ('A' for Active; 'I' for Inactive)
REMARK    1  A    between atoms: C_1  and  O_2
REMARK    2  A    between atoms: O_2  and  C_3
REMARK    3  A    between atoms: C_4  and  O_5
REMARK    4  A    between atoms: O_5  and  C_6
REMARK    5  A    between atoms: C_9  and  C_10
REMARK    6  A    between atoms: C_10  and  C_11
REMARK    7  A    between atoms: C_11  and  C_13
REMARK    8  A    between atoms: C_11  and  C_14
REMARK    9  A    between atoms: C_14  and  C_16
REMARK   10  A    between atoms: C_14  and  C_17
REMARK   11  A    between atoms: C_17  and  C_19
REMARK   12  A    between atoms: C_17  and  O_29
REMARK   13  A    between atoms: C_22  and  O_23
REMARK   14  A    between atoms: O_23  and  C_24
REMARK   15  A    between atoms: C_25  and  O_26
REMARK   16  A    between atoms: O_26  and  C_27
REMARK                            x       y       z     vdW  Elec       q    Type
REMARK                         _______ _______ _______ _____ _____    ______ ____
ROOT
ATOM      1  C   LIG A   1      -7.066  -1.942 123.444  0.00  0.00    +0.022 C 
ATOM      2  C   LIG A   1      -6.021  -2.114 122.325  0.00  0.00    +0.010 C 
ENDROOT
BRANCH   1   3
ATOM      3  C   LIG A   1      -8.519  -2.173 122.896  0.00  0.00    -0.004 C 
ATOM      4  C   LIG A   1      -9.317  -3.250 123.649  0.00  0.00    +0.008 C 
BRANCH   3   5
ATOM      5  C   LIG A   1      -9.370  -0.870 122.807  0.00  0.00    +0.039 C 
BRANCH   5  10
ATOM      6  C   LIG A   1      -8.069   2.278 124.565  0.00  0.00    +0.162 A 
ATOM      7  C   LIG A   1      -8.487   2.045 125.888  0.00  0.00    +0.162 A 
ATOM      8  C   LIG A   1      -9.204   0.883 126.184  0.00  0.00    +0.050 A 
ATOM      9  C   LIG A   1      -9.498  -0.044 125.184  0.00  0.00    +0.007 A 
ATOM     10  C   LIG A   1      -9.085   0.172 123.866  0.00  0.00    -0.043 A 
ATOM     11  C   LIG A   1      -8.392   1.353 123.563  0.00  0.00    +0.053 A 
BRANCH   6  13
ATOM     12  C   LIG A   1      -6.263   3.353 123.446  0.00  0.00    +0.277 C 
ATOM     13  O   LIG A   1      -7.368   3.438 124.336  0.00  0.00    -0.491 OA
ENDBRANCH   6  13
BRANCH   7  14
ATOM     14  O   LIG A   1      -8.138   2.993 126.819  0.00  0.00    -0.491 OA
ATOM     15  C   LIG A   1      -8.195   2.610 128.186  0.00  0.00    +0.277 C 
ENDBRANCH   7  14
ENDBRANCH   5  10
ENDBRANCH   3   5
ENDBRANCH   1   3
BRANCH   1  16
ATOM     16  C   LIG A   1      -6.610  -2.779 124.682  0.00  0.00    +0.148 C 
BRANCH  16  17
ATOM     17  C   LIG A   1      -6.694  -2.091 126.029  0.00  0.00    -0.015 A 
ATOM     18  C   LIG A   1      -7.513  -2.578 127.042  0.00  0.00    +0.010 A 
ATOM     19  C   LIG A   1      -7.543  -1.978 128.302  0.00  0.00    +0.050 A 
ATOM     20  C   LIG A   1      -6.750  -0.859 128.581  0.00  0.00    +0.162 A 
ATOM     21  C   LIG A   1      -5.966  -0.310 127.555  0.00  0.00    +0.162 A 
ATOM     22  C   LIG A   1      -5.950  -0.928 126.293  0.00  0.00    +0.055 A 
BRANCH  20  23
ATOM     23  O   LIG A   1      -6.790  -0.255 129.810  0.00  0.00    -0.491 OA
ATOM     24  C   LIG A   1      -7.994  -0.473 130.543  0.00  0.00    +0.277 C 
ENDBRANCH  20  23
BRANCH  21  25
ATOM     25  O   LIG A   1      -5.188   0.819 127.609  0.00  0.00    -0.491 OA
ATOM     26  C   LIG A   1      -4.855   1.440 126.376  0.00  0.00    +0.277 C 
ENDBRANCH  21  25
ENDBRANCH  16  17
BRANCH  16  27
ATOM     27  O   LIG A   1      -5.304  -3.313 124.487  0.00  0.00    -0.387 OA
ATOM     28  H   LIG A   1      -4.796  -2.639 124.001  0.00  0.00    +0.210 HD
ENDBRANCH  16  27
ENDBRANCH   1  16
TORSDOF 10
ENDMDL
MODEL 4
REMARK VINA RESULT:      -6.7      1.951      5.645
REMARK  Name = NuBBE_1668
REMARK  16 active torsions:
REMARK  status: ('A' for Active; 'I' for Inactive)
REMARK    1  A    between atoms: C_1  and  O_2
REMARK    2  A    between atoms: O_2  and  C_3
REMARK    3  A    between atoms: C_4  and  O_5
REMARK    4  A    between atoms: O_5  and  C_6
REMARK    5  A    between atoms: C_9  and  C_10
REMARK    6  A    between atoms: C_10  and  C_11
REMARK    7  A    between atoms: C_11  and  C_13
REMARK    8  A    between atoms: C_11  and  C_14
REMARK    9  A    between atoms: C_14  and  C_16
REMARK   10  A    between atoms: C_14  and  C_17
REMARK   11  A    between atoms: C_17  and  C_19
REMARK   12  A    between atoms: C_17  and  O_29
REMARK   13  A    between atoms: C_22  and  O_23
REMARK   14  A    between atoms: O_23  and  C_24
REMARK   15  A    between atoms: C_25  and  O_26
REMARK   16  A    between atoms: O_26  and  C_27
REMARK                            x       y       z     vdW  Elec       q    Type
REMARK                         _______ _______ _______ _____ _____    ______ ____
ROOT
ATOM      1  C   LIG A   1      -8.291  -1.550 122.997  0.00  0.00    +0.022 C 
ATOM      2  C   LIG A   1      -6.763  -1.679 122.836  0.00  0.00    +0.010 C 
ENDROOT
BRANCH   1   3
ATOM      3  C   LIG A   1      -8.834  -2.592 124.038  0.00  0.00    -0.004 C 
ATOM      4  C   LIG A   1      -9.762  -3.662 123.438  0.00  0.00    +0.008 C 
BRANCH   3   5
ATOM      5  C   LIG A   1      -7.715  -3.289 124.870  0.00  0.00    +0.039 C 
BRANCH   5  10
ATOM      6  C   LIG A   1      -6.695  -1.894 128.291  0.00  0.00    +0.162 A 
ATOM      7  C   LIG A   1      -7.660  -2.487 129.127  0.00  0.00    +0.162 A 
ATOM      8  C   LIG A   1      -8.640  -3.310 128.564  0.00  0.00    +0.050 A 
ATOM      9  C   LIG A   1      -8.660  -3.551 127.190  0.00  0.00    +0.007 A 
ATOM     10  C   LIG A   1      -7.705  -2.974 126.349  0.00  0.00    -0.043 A 
ATOM     11  C   LIG A   1      -6.741  -2.124 126.910  0.00  0.00    +0.053 A 
BRANCH   6  13
ATOM     12  C   LIG A   1      -4.495  -1.687 129.178  0.00  0.00    +0.277 C 
ATOM     13  O   LIG A   1      -5.759  -1.096 128.902  0.00  0.00    -0.491 OA
ENDBRANCH   6  13
BRANCH   7  14
ATOM     14  O   LIG A   1      -7.558  -2.219 130.470  0.00  0.00    -0.491 OA
ATOM     15  C   LIG A   1      -7.138  -3.284 131.313  0.00  0.00    +0.277 C 
ENDBRANCH   7  14
ENDBRANCH   5  10
ENDBRANCH   3   5
ENDBRANCH   1   3
BRANCH   1  16
ATOM     16  C   LIG A   1      -8.642  -0.044 123.217  0.00  0.00    +0.148 C 
BRANCH  16  17
ATOM     17  C   LIG A   1      -8.345   0.524 124.589  0.00  0.00    -0.015 A 
ATOM     18  C   LIG A   1      -9.282   0.467 125.616  0.00  0.00    +0.010 A 
ATOM     19  C   LIG A   1      -8.984   0.937 126.896  0.00  0.00    +0.050 A 
ATOM     20  C   LIG A   1      -7.729   1.487 127.182  0.00  0.00    +0.162 A 
ATOM     21  C   LIG A   1      -6.792   1.616 126.147  0.00  0.00    +0.162 A 
ATOM     22  C   LIG A   1      -7.111   1.138 124.864  0.00  0.00    +0.055 A 
BRANCH  20  23
ATOM     23  O   LIG A   1      -7.439   1.968 128.432  0.00  0.00    -0.491 OA
ATOM     24  C   LIG A   1      -8.212   1.396 129.486  0.00  0.00    +0.277 C 
ENDBRANCH  20  23
BRANCH  21  25
ATOM     25  O   LIG A   1      -5.549   2.194 126.209  0.00  0.00    -0.491 OA
ATOM     26  C   LIG A   1      -5.350   3.392 125.472  0.00  0.00    +0.277 C 
ENDBRANCH  21  25
ENDBRANCH  16  17
BRANCH  16  27
ATOM     27  O   LIG A   1      -9.995   0.224 122.860  0.00  0.00    -0.387 OA
ATOM     28  H   LIG A   1      -9.969   0.755 122.045  0.00  0.00    +0.210 HD
ENDBRANCH  16  27
ENDBRANCH   1  16
TORSDOF 10
ENDMDL
MODEL 5
REMARK VINA RESULT:      -6.6      1.830      2.945
REMARK  Name = NuBBE_1668
REMARK  16 active torsions:
REMARK  status: ('A' for Active; 'I' for Inactive)
REMARK    1  A    between atoms: C_1  and  O_2
REMARK    2  A    between atoms: O_2  and  C_3
REMARK    3  A    between atoms: C_4  and  O_5
REMARK    4  A    between atoms: O_5  and  C_6
REMARK    5  A    between atoms: C_9  and  C_10
REMARK    6  A    between atoms: C_10  and  C_11
REMARK    7  A    between atoms: C_11  and  C_13
REMARK    8  A    between atoms: C_11  and  C_14
REMARK    9  A    between atoms: C_14  and  C_16
REMARK   10  A    between atoms: C_14  and  C_17
REMARK   11  A    between atoms: C_17  and  C_19
REMARK   12  A    between atoms: C_17  and  O_29
REMARK   13  A    between atoms: C_22  and  O_23
REMARK   14  A    between atoms: O_23  and  C_24
REMARK   15  A    between atoms: C_25  and  O_26
REMARK   16  A    between atoms: O_26  and  C_27
REMARK                            x       y       z     vdW  Elec       q    Type
REMARK                         _______ _______ _______ _____ _____    ______ ____
ROOT
ATOM      1  C   LIG A   1      -7.062  -1.930 123.410  0.00  0.00    +0.022 C 
ATOM      2  C   LIG A   1      -6.046  -2.079 122.261  0.00  0.00    +0.010 C 
ENDROOT
BRANCH   1   3
ATOM      3  C   LIG A   1      -8.522  -2.214 122.907  0.00  0.00    -0.004 C 
ATOM      4  C   LIG A   1      -9.277  -3.278 123.722  0.00  0.00    +0.008 C 
BRANCH   3   5
ATOM      5  C   LIG A   1      -9.404  -0.934 122.788  0.00  0.00    +0.039 C 
BRANCH   5  10
ATOM      6  C   LIG A   1      -8.193   2.362 124.324  0.00  0.00    +0.162 A 
ATOM      7  C   LIG A   1      -8.469   2.146 125.687  0.00  0.00    +0.162 A 
ATOM      8  C   LIG A   1      -9.064   0.946 126.083  0.00  0.00    +0.050 A 
ATOM      9  C   LIG A   1      -9.377  -0.035 125.141  0.00  0.00    +0.007 A 
ATOM     10  C   LIG A   1      -9.104   0.163 123.785  0.00  0.00    -0.043 A 
ATOM     11  C   LIG A   1      -8.535   1.380 123.385  0.00  0.00    +0.053 A 
BRANCH   6  13
ATOM     12  C   LIG A   1      -6.384   3.501 123.275  0.00  0.00    +0.277 C 
ATOM     13  O   LIG A   1      -7.607   3.561 123.997  0.00  0.00    -0.491 OA
ENDBRANCH   6  13
BRANCH   7  14
ATOM     14  O   LIG A   1      -8.110   3.151 126.553  0.00  0.00    -0.491 OA
ATOM     15  C   LIG A   1      -7.979   2.806 127.926  0.00  0.00    +0.277 C 
ENDBRANCH   7  14
ENDBRANCH   5  10
ENDBRANCH   3   5
ENDBRANCH   1   3
BRANCH   1  16
ATOM     16  C   LIG A   1      -6.542  -2.739 124.641  0.00  0.00    +0.148 C 
BRANCH  16  17
ATOM     17  C   LIG A   1      -6.456  -1.987 125.954  0.00  0.00    -0.015 A 
ATOM     18  C   LIG A   1      -5.636  -0.873 126.098  0.00  0.00    +0.010 A 
ATOM     19  C   LIG A   1      -5.604  -0.147 127.290  0.00  0.00    +0.050 A 
ATOM     20  C   LIG A   1      -6.396  -0.526 128.381  0.00  0.00    +0.162 A 
ATOM     21  C   LIG A   1      -7.180  -1.685 128.280  0.00  0.00    +0.162 A 
ATOM     22  C   LIG A   1      -7.197  -2.403 127.073  0.00  0.00    +0.055 A 
BRANCH  20  23
ATOM     23  O   LIG A   1      -6.353   0.172 129.559  0.00  0.00    -0.491 OA
ATOM     24  C   LIG A   1      -5.153   0.001 130.311  0.00  0.00    +0.277 C 
ENDBRANCH  20  23
BRANCH  21  25
ATOM     25  O   LIG A   1      -7.955  -2.258 129.256  0.00  0.00    -0.491 OA
ATOM     26  C   LIG A   1      -7.368  -3.293 130.031  0.00  0.00    +0.277 C 
ENDBRANCH  21  25
ENDBRANCH  16  17
BRANCH  16  27
ATOM     27  O   LIG A   1      -5.295  -3.364 124.353  0.00  0.00    -0.387 OA
ATOM     28  H   LIG A   1      -5.388  -3.787 123.482  0.00  0.00    +0.210 HD
ENDBRANCH  16  27
ENDBRANCH   1  16
TORSDOF 10
ENDMDL
MODEL 6
REMARK VINA RESULT:      -6.6      1.482      6.722
REMARK  Name = NuBBE_1668
REMARK  16 active torsions:
REMARK  status: ('A' for Active; 'I' for Inactive)
REMARK    1  A    between atoms: C_1  and  O_2
REMARK    2  A    between atoms: O_2  and  C_3
REMARK    3  A    between atoms: C_4  and  O_5
REMARK    4  A    between atoms: O_5  and  C_6
REMARK    5  A    between atoms: C_9  and  C_10
REMARK    6  A    between atoms: C_10  and  C_11
REMARK    7  A    between atoms: C_11  and  C_13
REMARK    8  A    between atoms: C_11  and  C_14
REMARK    9  A    between atoms: C_14  and  C_16
REMARK   10  A    between atoms: C_14  and  C_17
REMARK   11  A    between atoms: C_17  and  C_19
REMARK   12  A    between atoms: C_17  and  O_29
REMARK   13  A    between atoms: C_22  and  O_23
REMARK   14  A    between atoms: O_23  and  C_24
REMARK   15  A    between atoms: C_25  and  O_26
REMARK   16  A    between atoms: O_26  and  C_27
REMARK                            x       y       z     vdW  Elec       q    Type
REMARK                         _______ _______ _______ _____ _____    ______ ____
ROOT
ATOM      1  C   LIG A   1      -7.774  -2.586 124.952  0.00  0.00    +0.022 C 
ATOM      2  C   LIG A   1      -8.283  -4.032 124.788  0.00  0.00    +0.010 C 
ENDROOT
BRANCH   1   3
ATOM      3  C   LIG A   1      -6.205  -2.547 125.005  0.00  0.00    -0.004 C 
ATOM      4  C   LIG A   1      -5.532  -2.273 123.649  0.00  0.00    +0.008 C 
BRANCH   3   5
ATOM      5  C   LIG A   1      -5.639  -1.561 126.071  0.00  0.00    +0.039 C 
BRANCH   5  10
ATOM      6  C   LIG A   1      -7.045  -1.877 129.622  0.00  0.00    +0.162 A 
ATOM      7  C   LIG A   1      -6.077  -2.699 130.228  0.00  0.00    +0.162 A 
ATOM      8  C   LIG A   1      -4.997  -3.157 129.469  0.00  0.00    +0.050 A 
ATOM      9  C   LIG A   1      -4.870  -2.798 128.126  0.00  0.00    +0.007 A 
ATOM     10  C   LIG A   1      -5.821  -1.979 127.513  0.00  0.00    -0.043 A 
ATOM     11  C   LIG A   1      -6.922  -1.545 128.266  0.00  0.00    +0.053 A 
BRANCH   6  13
ATOM     12  C   LIG A   1      -8.198  -0.060 130.641  0.00  0.00    +0.277 C 
ATOM     13  O   LIG A   1      -8.084  -1.459 130.419  0.00  0.00    -0.491 OA
ENDBRANCH   6  13
BRANCH   7  14
ATOM     14  O   LIG A   1      -6.260  -2.987 131.559  0.00  0.00    -0.491 OA
ATOM     15  C   LIG A   1      -5.555  -4.104 132.082  0.00  0.00    +0.277 C 
ENDBRANCH   7  14
ENDBRANCH   5  10
ENDBRANCH   3   5
ENDBRANCH   1   3
BRANCH   1  16
ATOM     16  C   LIG A   1      -8.493  -1.684 123.899  0.00  0.00    +0.148 C 
BRANCH  16  17
ATOM     17  C   LIG A   1      -8.646  -0.220 124.257  0.00  0.00    -0.015 A 
ATOM     18  C   LIG A   1      -8.710   0.199 125.582  0.00  0.00    +0.010 A 
ATOM     19  C   LIG A   1      -8.791   1.553 125.910  0.00  0.00    +0.050 A 
ATOM     20  C   LIG A   1      -8.816   2.532 124.911  0.00  0.00    +0.162 A 
ATOM     21  C   LIG A   1      -8.820   2.130 123.567  0.00  0.00    +0.162 A 
ATOM     22  C   LIG A   1      -8.740   0.762 123.256  0.00  0.00    +0.055 A 
BRANCH  20  23
ATOM     23  O   LIG A   1      -8.915   3.861 125.228  0.00  0.00    -0.491 OA
ATOM     24  C   LIG A   1      -7.674   4.500 125.519  0.00  0.00    +0.277 C 
ENDBRANCH  20  23
BRANCH  21  25
ATOM     25  O   LIG A   1      -8.920   2.927 122.455  0.00  0.00    -0.491 OA
ATOM     26  C   LIG A   1      -7.708   3.388 121.873  0.00  0.00    +0.277 C 
ENDBRANCH  21  25
ENDBRANCH  16  17
BRANCH  16  27
ATOM     27  O   LIG A   1      -9.756  -2.232 123.531  0.00  0.00    -0.387 OA
ATOM     28  H   LIG A   1      -9.649  -3.199 123.522  0.00  0.00    +0.210 HD
ENDBRANCH  16  27
ENDBRANCH   1  16
TORSDOF 10
ENDMDL
MODEL 7
REMARK VINA RESULT:      -6.6      5.627     10.015
REMARK  Name = NuBBE_1668
REMARK  16 active torsions:
REMARK  status: ('A' for Active; 'I' for Inactive)
REMARK    1  A    between atoms: C_1  and  O_2
REMARK    2  A    between atoms: O_2  and  C_3
REMARK    3  A    between atoms: C_4  and  O_5
REMARK    4  A    between atoms: O_5  and  C_6
REMARK    5  A    between atoms: C_9  and  C_10
REMARK    6  A    between atoms: C_10  and  C_11
REMARK    7  A    between atoms: C_11  and  C_13
REMARK    8  A    between atoms: C_11  and  C_14
REMARK    9  A    between atoms: C_14  and  C_16
REMARK   10  A    between atoms: C_14  and  C_17
REMARK   11  A    between atoms: C_17  and  C_19
REMARK   12  A    between atoms: C_17  and  O_29
REMARK   13  A    between atoms: C_22  and  O_23
REMARK   14  A    between atoms: O_23  and  C_24
REMARK   15  A    between atoms: C_25  and  O_26
REMARK   16  A    between atoms: O_26  and  C_27
REMARK                            x       y       z     vdW  Elec       q    Type
REMARK                         _______ _______ _______ _____ _____    ______ ____
ROOT
ATOM      1  C   LIG A   1      -8.924   5.088 131.608  0.00  0.00    +0.022 C 
ATOM      2  C   LIG A   1      -7.683   5.887 132.051  0.00  0.00    +0.010 C 
ENDROOT
BRANCH   1   3
ATOM      3  C   LIG A   1      -8.718   3.551 131.852  0.00  0.00    -0.004 C 
ATOM      4  C   LIG A   1      -8.944   3.104 133.306  0.00  0.00    +0.008 C 
BRANCH   3   5
ATOM      5  C   LIG A   1      -9.557   2.647 130.898  0.00  0.00    +0.039 C 
BRANCH   5  10
ATOM      6  C   LIG A   1      -7.758   0.657 128.161  0.00  0.00    +0.162 A 
ATOM      7  C   LIG A   1      -7.442  -0.530 128.848  0.00  0.00    +0.162 A 
ATOM      8  C   LIG A   1      -7.796  -0.656 130.194  0.00  0.00    +0.050 A 
ATOM      9  C   LIG A   1      -8.463   0.378 130.852  0.00  0.00    +0.007 A 
ATOM     10  C   LIG A   1      -8.788   1.560 130.181  0.00  0.00    -0.043 A 
ATOM     11  C   LIG A   1      -8.406   1.698 128.839  0.00  0.00    +0.053 A 
BRANCH   6  13
ATOM     12  C   LIG A   1      -6.311   1.597 126.521  0.00  0.00    +0.277 C 
ATOM     13  O   LIG A   1      -7.384   0.722 126.840  0.00  0.00    -0.491 OA
ENDBRANCH   6  13
BRANCH   7  14
ATOM     14  O   LIG A   1      -6.805  -1.508 128.124  0.00  0.00    -0.491 OA
ATOM     15  C   LIG A   1      -7.526  -2.709 127.885  0.00  0.00    +0.277 C 
ENDBRANCH   7  14
ENDBRANCH   5  10
ENDBRANCH   3   5
ENDBRANCH   1   3
BRANCH   1  16
ATOM     16  C   LIG A   1     -10.193   5.762 132.221  0.00  0.00    +0.148 C 
BRANCH  16  17
ATOM     17  C   LIG A   1     -10.985   6.669 131.302  0.00  0.00    -0.015 A 
ATOM     18  C   LIG A   1     -12.280   7.067 131.616  0.00  0.00    +0.010 A 
ATOM     19  C   LIG A   1     -12.986   7.951 130.798  0.00  0.00    +0.050 A 
ATOM     20  C   LIG A   1     -12.409   8.460 129.630  0.00  0.00    +0.162 A 
ATOM     21  C   LIG A   1     -11.129   8.021 129.258  0.00  0.00    +0.162 A 
ATOM     22  C   LIG A   1     -10.436   7.130 130.094  0.00  0.00    +0.055 A 
BRANCH  20  23
ATOM     23  O   LIG A   1     -13.104   9.313 128.813  0.00  0.00    -0.491 OA
ATOM     24  C   LIG A   1     -13.448  10.562 129.409  0.00  0.00    +0.277 C 
ENDBRANCH  20  23
BRANCH  21  25
ATOM     25  O   LIG A   1     -10.433   8.341 128.119  0.00  0.00    -0.491 OA
ATOM     26  C   LIG A   1     -10.744   7.615 126.939  0.00  0.00    +0.277 C 
ENDBRANCH  21  25
ENDBRANCH  16  17
BRANCH  16  27
ATOM     27  O   LIG A   1      -9.877   6.447 133.430  0.00  0.00    -0.387 OA
ATOM     28  H   LIG A   1      -8.909   6.540 133.453  0.00  0.00    +0.210 HD
ENDBRANCH  16  27
ENDBRANCH   1  16
TORSDOF 10
ENDMDL
MODEL 8
REMARK VINA RESULT:      -6.4      1.990      3.275
REMARK  Name = NuBBE_1668
REMARK  16 active torsions:
REMARK  status: ('A' for Active; 'I' for Inactive)
REMARK    1  A    between atoms: C_1  and  O_2
REMARK    2  A    between atoms: O_2  and  C_3
REMARK    3  A    between atoms: C_4  and  O_5
REMARK    4  A    between atoms: O_5  and  C_6
REMARK    5  A    between atoms: C_9  and  C_10
REMARK    6  A    between atoms: C_10  and  C_11
REMARK    7  A    between atoms: C_11  and  C_13
REMARK    8  A    between atoms: C_11  and  C_14
REMARK    9  A    between atoms: C_14  and  C_16
REMARK   10  A    between atoms: C_14  and  C_17
REMARK   11  A    between atoms: C_17  and  C_19
REMARK   12  A    between atoms: C_17  and  O_29
REMARK   13  A    between atoms: C_22  and  O_23
REMARK   14  A    between atoms: O_23  and  C_24
REMARK   15  A    between atoms: C_25  and  O_26
REMARK   16  A    between atoms: O_26  and  C_27
REMARK                            x       y       z     vdW  Elec       q    Type
REMARK                         _______ _______ _______ _____ _____    ______ ____
ROOT
ATOM      1  C   LIG A   1      -7.752  -0.715 124.760  0.00  0.00    +0.022 C 
ATOM      2  C   LIG A   1      -6.987  -1.057 123.467  0.00  0.00    +0.010 C 
ENDROOT
BRANCH   1   3
ATOM      3  C   LIG A   1      -8.671   0.541 124.553  0.00  0.00    -0.004 C 
ATOM      4  C   LIG A   1      -9.857   0.627 125.528  0.00  0.00    +0.008 C 
BRANCH   3   5
ATOM      5  C   LIG A   1      -7.895   1.893 124.564  0.00  0.00    +0.039 C 
BRANCH   5  10
ATOM      6  C   LIG A   1      -6.172   3.484 121.532  0.00  0.00    +0.162 A 
ATOM      7  C   LIG A   1      -7.279   3.800 120.723  0.00  0.00    +0.162 A 
ATOM      8  C   LIG A   1      -8.564   3.471 121.163  0.00  0.00    +0.050 A 
ATOM      9  C   LIG A   1      -8.754   2.843 122.394  0.00  0.00    +0.007 A 
ATOM     10  C   LIG A   1      -7.664   2.527 123.211  0.00  0.00    -0.043 A 
ATOM     11  C   LIG A   1      -6.373   2.830 122.755  0.00  0.00    +0.053 A 
BRANCH   6  13
ATOM     12  C   LIG A   1      -4.313   4.967 121.632  0.00  0.00    +0.277 C 
ATOM     13  O   LIG A   1      -4.935   3.831 121.046  0.00  0.00    -0.491 OA
ENDBRANCH   6  13
BRANCH   7  14
ATOM     14  O   LIG A   1      -7.011   4.438 119.536  0.00  0.00    -0.491 OA
ATOM     15  C   LIG A   1      -8.060   4.494 118.580  0.00  0.00    +0.277 C 
ENDBRANCH   7  14
ENDBRANCH   5  10
ENDBRANCH   3   5
ENDBRANCH   1   3
BRANCH   1  16
ATOM     16  C   LIG A   1      -8.411  -2.022 125.307  0.00  0.00    +0.148 C 
BRANCH  16  17
ATOM     17  C   LIG A   1      -8.226  -2.303 126.784  0.00  0.00    -0.015 A 
ATOM     18  C   LIG A   1      -8.739  -3.455 127.372  0.00  0.00    +0.010 A 
ATOM     19  C   LIG A   1      -8.516  -3.741 128.720  0.00  0.00    +0.050 A 
ATOM     20  C   LIG A   1      -7.771  -2.870 129.523  0.00  0.00    +0.162 A 
ATOM     21  C   LIG A   1      -7.300  -1.671 128.969  0.00  0.00    +0.162 A 
ATOM     22  C   LIG A   1      -7.537  -1.399 127.610  0.00  0.00    +0.055 A 
BRANCH  20  23
ATOM     23  O   LIG A   1      -7.565  -3.137 130.851  0.00  0.00    -0.491 OA
ATOM     24  C   LIG A   1      -6.363  -3.849 131.138  0.00  0.00    +0.277 C 
ENDBRANCH  20  23
BRANCH  21  25
ATOM     25  O   LIG A   1      -6.625  -0.661 129.607  0.00  0.00    -0.491 OA
ATOM     26  C   LIG A   1      -5.218  -0.599 129.422  0.00  0.00    +0.277 C 
ENDBRANCH  21  25
ENDBRANCH  16  17
BRANCH  16  27
ATOM     27  O   LIG A   1      -8.016  -3.155 124.541  0.00  0.00    -0.387 OA
ATOM     28  H   LIG A   1      -7.509  -2.817 123.782  0.00  0.00    +0.210 HD
ENDBRANCH  16  27
ENDBRANCH   1  16
TORSDOF 10
ENDMDL
MODEL 9
REMARK VINA RESULT:      -6.4      3.129      6.465
REMARK  Name = NuBBE_1668
REMARK  16 active torsions:
REMARK  status: ('A' for Active; 'I' for Inactive)
REMARK    1  A    between atoms: C_1  and  O_2
REMARK    2  A    between atoms: O_2  and  C_3
REMARK    3  A    between atoms: C_4  and  O_5
REMARK    4  A    between atoms: O_5  and  C_6
REMARK    5  A    between atoms: C_9  and  C_10
REMARK    6  A    between atoms: C_10  and  C_11
REMARK    7  A    between atoms: C_11  and  C_13
REMARK    8  A    between atoms: C_11  and  C_14
REMARK    9  A    between atoms: C_14  and  C_16
REMARK   10  A    between atoms: C_14  and  C_17
REMARK   11  A    between atoms: C_17  and  C_19
REMARK   12  A    between atoms: C_17  and  O_29
REMARK   13  A    between atoms: C_22  and  O_23
REMARK   14  A    between atoms: O_23  and  C_24
REMARK   15  A    between atoms: C_25  and  O_26
REMARK   16  A    between atoms: O_26  and  C_27
REMARK                            x       y       z     vdW  Elec       q    Type
REMARK                         _______ _______ _______ _____ _____    ______ ____
ROOT
ATOM      1  C   LIG A   1      -6.374  -2.090 131.352  0.00  0.00    +0.022 C 
ATOM      2  C   LIG A   1      -5.643  -2.590 132.614  0.00  0.00    +0.010 C 
ENDROOT
BRANCH   1   3
ATOM      3  C   LIG A   1      -6.323  -3.168 130.211  0.00  0.00    -0.004 C 
ATOM      4  C   LIG A   1      -5.600  -4.468 130.600  0.00  0.00    +0.008 C 
BRANCH   3   5
ATOM      5  C   LIG A   1      -7.722  -3.514 129.615  0.00  0.00    +0.039 C 
BRANCH   5  10
ATOM      6  C   LIG A   1      -7.207  -2.029 126.118  0.00  0.00    +0.162 A 
ATOM      7  C   LIG A   1      -8.338  -2.523 125.443  0.00  0.00    +0.162 A 
ATOM      8  C   LIG A   1      -9.237  -3.347 126.124  0.00  0.00    +0.050 A 
ATOM      9  C   LIG A   1      -9.024  -3.675 127.464  0.00  0.00    +0.007 A 
ATOM     10  C   LIG A   1      -7.907  -3.189 128.149  0.00  0.00    -0.043 A 
ATOM     11  C   LIG A   1      -6.990  -2.386 127.456  0.00  0.00    +0.053 A 
BRANCH   6  13
ATOM     12  C   LIG A   1      -6.259   0.132 125.808  0.00  0.00    +0.277 C 
ATOM     13  O   LIG A   1      -6.360  -1.224 125.395  0.00  0.00    -0.491 OA
ENDBRANCH   6  13
BRANCH   7  14
ATOM     14  O   LIG A   1      -8.489  -2.135 124.133  0.00  0.00    -0.491 OA
ATOM     15  C   LIG A   1      -9.305  -2.954 123.306  0.00  0.00    +0.277 C 
ENDBRANCH   7  14
ENDBRANCH   5  10
ENDBRANCH   3   5
ENDBRANCH   1   3
BRANCH   1  16
ATOM     16  C   LIG A   1      -7.772  -1.536 131.774  0.00  0.00    +0.148 C 
BRANCH  16  17
ATOM     17  C   LIG A   1      -8.167  -0.192 131.199  0.00  0.00    -0.015 A 
ATOM     18  C   LIG A   1      -7.841   0.162 129.894  0.00  0.00    +0.010 A 
ATOM     19  C   LIG A   1      -8.258   1.377 129.347  0.00  0.00    +0.050 A 
ATOM     20  C   LIG A   1      -9.014   2.280 130.103  0.00  0.00    +0.162 A 
ATOM     21  C   LIG A   1      -9.298   1.974 131.442  0.00  0.00    +0.162 A 
ATOM     22  C   LIG A   1      -8.868   0.747 131.975  0.00  0.00    +0.055 A 
BRANCH  20  23
ATOM     23  O   LIG A   1      -9.409   3.482 129.577  0.00  0.00    -0.491 OA
ATOM     24  C   LIG A   1      -8.415   4.504 129.611  0.00  0.00    +0.277 C 
ENDBRANCH  20  23
BRANCH  21  25
ATOM     25  O   LIG A   1      -9.952   2.758 132.360  0.00  0.00    -0.491 OA
ATOM     26  C   LIG A   1      -9.167   3.362 133.377  0.00  0.00    +0.277 C 
ENDBRANCH  21  25
ENDBRANCH  16  17
BRANCH  16  27
ATOM     27  O   LIG A   1      -7.911  -1.521 133.192  0.00  0.00    -0.387 OA
ATOM     28  H   LIG A   1      -7.298  -0.842 133.525  0.00  0.00    +0.210 HD
ENDBRANCH  16  27
ENDBRANCH   1  16
TORSDOF 10
ENDMDL
