MODEL 1
REMARK VINA RESULT:      -7.3      0.000      0.000
REMARK  Name = NuBBE_177
REMARK  5 active torsions:
REMARK  status: ('A' for Active; 'I' for Inactive)
REMARK    1  A    between atoms: C_4  and  C_14
REMARK    2  A    between atoms: C_10  and  O_11
REMARK    3  A    between atoms: O_11  and  C_12
REMARK    4  A    between atoms: C_17  and  O_20
REMARK    5  A    between atoms: O_20  and  C_21
REMARK                            x       y       z     vdW  Elec       q    Type
REMARK                         _______ _______ _______ _____ _____    ______ ____
ROOT
ATOM      1  O   LIG A   1      -9.672  -2.872 124.201  0.00  0.00    -0.287 OA
ATOM      2  C   LIG A   1      -8.983  -2.125 124.872  0.00  0.00    +0.193 A 
ATOM      3  C   LIG A   1      -8.424  -0.888 124.300  0.00  0.00    +0.098 A 
ATOM      4  C   LIG A   1      -7.676  -0.082 125.066  0.00  0.00    +0.139 A 
ATOM      5  O   LIG A   1      -7.392  -0.324 126.398  0.00  0.00    -0.455 OA
ATOM      6  C   LIG A   1      -7.868  -1.473 126.964  0.00  0.00    +0.143 A 
ATOM      7  C   LIG A   1      -8.650  -2.396 126.278  0.00  0.00    +0.064 A 
ATOM      8  C   LIG A   1      -9.096  -3.550 126.919  0.00  0.00    +0.019 A 
ATOM      9  C   LIG A   1      -8.742  -3.771 128.254  0.00  0.00    +0.046 A 
ATOM     10  C   LIG A   1      -7.952  -2.844 128.946  0.00  0.00    +0.124 A 
ATOM     11  C   LIG A   1      -7.521  -1.690 128.294  0.00  0.00    +0.092 A 
ENDROOT
BRANCH   4  12
ATOM     12  C   LIG A   1      -7.076   1.161 124.549  0.00  0.00    +0.018 A 
ATOM     13  C   LIG A   1      -6.298   1.977 125.376  0.00  0.00    +0.015 A 
ATOM     14  C   LIG A   1      -5.737   3.159 124.894  0.00  0.00    +0.046 A 
ATOM     15  C   LIG A   1      -5.964   3.561 123.579  0.00  0.00    +0.120 A 
ATOM     16  C   LIG A   1      -6.746   2.761 122.746  0.00  0.00    +0.046 A 
ATOM     17  C   LIG A   1      -7.303   1.572 123.226  0.00  0.00    +0.015 A 
BRANCH  15  18
ATOM     18  O   LIG A   1      -5.479   4.708 123.012  0.00  0.00    -0.495 OA
ATOM     19  C   LIG A   1      -4.901   4.560 121.720  0.00  0.00    +0.277 C 
ENDBRANCH  15  18
ENDBRANCH   4  12
BRANCH  10  20
ATOM     20  O   LIG A   1      -7.661  -3.166 130.244  0.00  0.00    -0.495 OA
ATOM     21  C   LIG A   1      -6.380  -3.748 130.472  0.00  0.00    +0.277 C 
ENDBRANCH  10  20
TORSDOF 3
ENDMDL
MODEL 2
REMARK VINA RESULT:      -7.2      9.361     10.507
REMARK  Name = NuBBE_177
REMARK  5 active torsions:
REMARK  status: ('A' for Active; 'I' for Inactive)
REMARK    1  A    between atoms: C_4  and  C_14
REMARK    2  A    between atoms: C_10  and  O_11
REMARK    3  A    between atoms: O_11  and  C_12
REMARK    4  A    between atoms: C_17  and  O_20
REMARK    5  A    between atoms: O_20  and  C_21
REMARK                            x       y       z     vdW  Elec       q    Type
REMARK                         _______ _______ _______ _____ _____    ______ ____
ROOT
ATOM      1  O   LIG A   1      -9.947   5.125 133.248  0.00  0.00    -0.287 OA
ATOM      2  C   LIG A   1      -9.331   5.766 132.415  0.00  0.00    +0.193 A 
ATOM      3  C   LIG A   1      -7.863   5.858 132.462  0.00  0.00    +0.098 A 
ATOM      4  C   LIG A   1      -7.212   6.565 131.527  0.00  0.00    +0.139 A 
ATOM      5  O   LIG A   1      -7.833   7.222 130.481  0.00  0.00    -0.455 OA
ATOM      6  C   LIG A   1      -9.199   7.186 130.413  0.00  0.00    +0.143 A 
ATOM      7  C   LIG A   1      -9.991   6.495 131.322  0.00  0.00    +0.064 A 
ATOM      8  C   LIG A   1     -11.379   6.507 131.194  0.00  0.00    +0.019 A 
ATOM      9  C   LIG A   1     -11.961   7.226 130.145  0.00  0.00    +0.046 A 
ATOM     10  C   LIG A   1     -11.165   7.925 129.229  0.00  0.00    +0.124 A 
ATOM     11  C   LIG A   1      -9.778   7.896 129.366  0.00  0.00    +0.092 A 
ENDROOT
BRANCH   4  12
ATOM     12  C   LIG A   1      -5.745   6.707 131.528  0.00  0.00    +0.018 A 
ATOM     13  C   LIG A   1      -4.980   6.219 132.592  0.00  0.00    +0.015 A 
ATOM     14  C   LIG A   1      -3.593   6.360 132.602  0.00  0.00    +0.046 A 
ATOM     15  C   LIG A   1      -2.945   7.017 131.558  0.00  0.00    +0.120 A 
ATOM     16  C   LIG A   1      -3.696   7.518 130.495  0.00  0.00    +0.046 A 
ATOM     17  C   LIG A   1      -5.086   7.369 130.480  0.00  0.00    +0.015 A 
BRANCH  15  18
ATOM     18  O   LIG A   1      -1.595   7.227 131.479  0.00  0.00    -0.495 OA
ATOM     19  C   LIG A   1      -0.834   6.771 132.591  0.00  0.00    +0.277 C 
ENDBRANCH  15  18
ENDBRANCH   4  12
BRANCH  10  20
ATOM     20  O   LIG A   1     -11.842   8.599 128.249  0.00  0.00    -0.495 OA
ATOM     21  C   LIG A   1     -13.121   9.114 128.612  0.00  0.00    +0.277 C 
ENDBRANCH  10  20
TORSDOF 3
ENDMDL
MODEL 3
REMARK VINA RESULT:      -7.2      9.162      9.985
REMARK  Name = NuBBE_177
REMARK  5 active torsions:
REMARK  status: ('A' for Active; 'I' for Inactive)
REMARK    1  A    between atoms: C_4  and  C_14
REMARK    2  A    between atoms: C_10  and  O_11
REMARK    3  A    between atoms: O_11  and  C_12
REMARK    4  A    between atoms: C_17  and  O_20
REMARK    5  A    between atoms: O_20  and  C_21
REMARK                            x       y       z     vdW  Elec       q    Type
REMARK                         _______ _______ _______ _____ _____    ______ ____
ROOT
ATOM      1  O   LIG A   1      -9.474   2.444 131.045  0.00  0.00    -0.287 OA
ATOM      2  C   LIG A   1      -9.547   3.581 131.476  0.00  0.00    +0.193 A 
ATOM      3  C   LIG A   1     -10.355   4.602 130.789  0.00  0.00    +0.098 A 
ATOM      4  C   LIG A   1     -10.422   5.843 131.292  0.00  0.00    +0.139 A 
ATOM      5  O   LIG A   1      -9.783   6.245 132.450  0.00  0.00    -0.455 OA
ATOM      6  C   LIG A   1      -9.000   5.337 133.107  0.00  0.00    +0.143 A 
ATOM      7  C   LIG A   1      -8.840   4.021 132.687  0.00  0.00    +0.064 A 
ATOM      8  C   LIG A   1      -8.021   3.151 133.405  0.00  0.00    +0.019 A 
ATOM      9  C   LIG A   1      -7.359   3.620 134.544  0.00  0.00    +0.046 A 
ATOM     10  C   LIG A   1      -7.516   4.946 134.967  0.00  0.00    +0.124 A 
ATOM     11  C   LIG A   1      -8.345   5.801 134.244  0.00  0.00    +0.092 A 
ENDROOT
BRANCH   4  12
ATOM     12  C   LIG A   1     -11.201   6.913 130.643  0.00  0.00    +0.018 A 
ATOM     13  C   LIG A   1     -10.748   7.511 129.462  0.00  0.00    +0.015 A 
ATOM     14  C   LIG A   1     -11.476   8.531 128.851  0.00  0.00    +0.046 A 
ATOM     15  C   LIG A   1     -12.660   8.991 129.422  0.00  0.00    +0.120 A 
ATOM     16  C   LIG A   1     -13.119   8.410 130.605  0.00  0.00    +0.046 A 
ATOM     17  C   LIG A   1     -12.394   7.382 131.214  0.00  0.00    +0.015 A 
BRANCH  15  18
ATOM     18  O   LIG A   1     -13.439   9.996 128.917  0.00  0.00    -0.495 OA
ATOM     19  C   LIG A   1     -13.597  11.134 129.756  0.00  0.00    +0.277 C 
ENDBRANCH  15  18
ENDBRANCH   4  12
BRANCH  10  20
ATOM     20  O   LIG A   1      -6.815   5.297 136.088  0.00  0.00    -0.495 OA
ATOM     21  C   LIG A   1      -7.381   6.338 136.881  0.00  0.00    +0.277 C 
ENDBRANCH  10  20
TORSDOF 3
ENDMDL
MODEL 4
REMARK VINA RESULT:      -7.1      7.973      9.044
REMARK  Name = NuBBE_177
REMARK  5 active torsions:
REMARK  status: ('A' for Active; 'I' for Inactive)
REMARK    1  A    between atoms: C_4  and  C_14
REMARK    2  A    between atoms: C_10  and  O_11
REMARK    3  A    between atoms: O_11  and  C_12
REMARK    4  A    between atoms: C_17  and  O_20
REMARK    5  A    between atoms: O_20  and  C_21
REMARK                            x       y       z     vdW  Elec       q    Type
REMARK                         _______ _______ _______ _____ _____    ______ ____
ROOT
ATOM      1  O   LIG A   1      -6.618   5.976 132.204  0.00  0.00    -0.287 OA
ATOM      2  C   LIG A   1      -7.710   5.633 131.785  0.00  0.00    +0.193 A 
ATOM      3  C   LIG A   1      -8.638   6.611 131.195  0.00  0.00    +0.098 A 
ATOM      4  C   LIG A   1      -9.829   6.202 130.735  0.00  0.00    +0.139 A 
ATOM      5  O   LIG A   1     -10.259   4.888 130.761  0.00  0.00    -0.455 OA
ATOM      6  C   LIG A   1      -9.440   3.949 131.324  0.00  0.00    +0.143 A 
ATOM      7  C   LIG A   1      -8.184   4.243 131.842  0.00  0.00    +0.064 A 
ATOM      8  C   LIG A   1      -7.405   3.234 132.407  0.00  0.00    +0.019 A 
ATOM      9  C   LIG A   1      -7.905   1.929 132.451  0.00  0.00    +0.046 A 
ATOM     10  C   LIG A   1      -9.171   1.631 131.931  0.00  0.00    +0.124 A 
ATOM     11  C   LIG A   1      -9.935   2.648 131.362  0.00  0.00    +0.092 A 
ENDROOT
BRANCH   4  12
ATOM     12  C   LIG A   1     -10.808   7.134 130.148  0.00  0.00    +0.018 A 
ATOM     13  C   LIG A   1     -10.547   7.771 128.930  0.00  0.00    +0.015 A 
ATOM     14  C   LIG A   1     -11.466   8.661 128.375  0.00  0.00    +0.046 A 
ATOM     15  C   LIG A   1     -12.655   8.952 129.041  0.00  0.00    +0.120 A 
ATOM     16  C   LIG A   1     -12.923   8.331 130.262  0.00  0.00    +0.046 A 
ATOM     17  C   LIG A   1     -12.006   7.432 130.814  0.00  0.00    +0.015 A 
BRANCH  15  18
ATOM     18  O   LIG A   1     -13.613   9.821 128.597  0.00  0.00    -0.495 OA
ATOM     19  C   LIG A   1     -13.791  10.995 129.383  0.00  0.00    +0.277 C 
ENDBRANCH  15  18
ENDBRANCH   4  12
BRANCH  10  20
ATOM     20  O   LIG A   1      -9.561   0.323 132.035  0.00  0.00    -0.495 OA
ATOM     21  C   LIG A   1      -8.530  -0.651 131.898  0.00  0.00    +0.277 C 
ENDBRANCH  10  20
TORSDOF 3
ENDMDL
MODEL 5
REMARK VINA RESULT:      -7.1      2.284      3.576
REMARK  Name = NuBBE_177
REMARK  5 active torsions:
REMARK  status: ('A' for Active; 'I' for Inactive)
REMARK    1  A    between atoms: C_4  and  C_14
REMARK    2  A    between atoms: C_10  and  O_11
REMARK    3  A    between atoms: O_11  and  C_12
REMARK    4  A    between atoms: C_17  and  O_20
REMARK    5  A    between atoms: O_20  and  C_21
REMARK                            x       y       z     vdW  Elec       q    Type
REMARK                         _______ _______ _______ _____ _____    ______ ____
ROOT
ATOM      1  O   LIG A   1     -10.887   1.214 124.435  0.00  0.00    -0.287 OA
ATOM      2  C   LIG A   1      -9.692   1.217 124.200  0.00  0.00    +0.193 A 
ATOM      3  C   LIG A   1      -9.111   2.159 123.228  0.00  0.00    +0.098 A 
ATOM      4  C   LIG A   1      -7.791   2.143 122.996  0.00  0.00    +0.139 A 
ATOM      5  O   LIG A   1      -6.904   1.293 123.630  0.00  0.00    -0.455 OA
ATOM      6  C   LIG A   1      -7.401   0.383 124.521  0.00  0.00    +0.143 A 
ATOM      7  C   LIG A   1      -8.750   0.291 124.846  0.00  0.00    +0.064 A 
ATOM      8  C   LIG A   1      -9.188  -0.666 125.760  0.00  0.00    +0.019 A 
ATOM      9  C   LIG A   1      -8.255  -1.533 126.339  0.00  0.00    +0.046 A 
ATOM     10  C   LIG A   1      -6.897  -1.444 126.011  0.00  0.00    +0.124 A 
ATOM     11  C   LIG A   1      -6.473  -0.476 125.102  0.00  0.00    +0.092 A 
ENDROOT
BRANCH   4  12
ATOM     12  C   LIG A   1      -7.152   3.049 122.026  0.00  0.00    +0.018 A 
ATOM     13  C   LIG A   1      -7.829   3.449 120.868  0.00  0.00    +0.015 A 
ATOM     14  C   LIG A   1      -7.225   4.298 119.942  0.00  0.00    +0.046 A 
ATOM     15  C   LIG A   1      -5.920   4.745 120.142  0.00  0.00    +0.120 A 
ATOM     16  C   LIG A   1      -5.231   4.346 121.287  0.00  0.00    +0.046 A 
ATOM     17  C   LIG A   1      -5.838   3.501 122.220  0.00  0.00    +0.015 A 
BRANCH  15  18
ATOM     18  O   LIG A   1      -5.229   5.561 119.290  0.00  0.00    -0.495 OA
ATOM     19  C   LIG A   1      -5.982   6.103 118.210  0.00  0.00    +0.277 C 
ENDBRANCH  15  18
ENDBRANCH   4  12
BRANCH  10  20
ATOM     20  O   LIG A   1      -6.077  -2.348 126.631  0.00  0.00    -0.495 OA
ATOM     21  C   LIG A   1      -5.811  -2.108 128.011  0.00  0.00    +0.277 C 
ENDBRANCH  10  20
TORSDOF 3
ENDMDL
MODEL 6
REMARK VINA RESULT:      -7.1      9.299     10.412
REMARK  Name = NuBBE_177
REMARK  5 active torsions:
REMARK  status: ('A' for Active; 'I' for Inactive)
REMARK    1  A    between atoms: C_4  and  C_14
REMARK    2  A    between atoms: C_10  and  O_11
REMARK    3  A    between atoms: O_11  and  C_12
REMARK    4  A    between atoms: C_17  and  O_20
REMARK    5  A    between atoms: O_20  and  C_21
REMARK                            x       y       z     vdW  Elec       q    Type
REMARK                         _______ _______ _______ _____ _____    ______ ____
ROOT
ATOM      1  O   LIG A   1      -7.471   4.863 134.233  0.00  0.00    -0.287 OA
ATOM      2  C   LIG A   1      -7.491   5.518 133.206  0.00  0.00    +0.193 A 
ATOM      3  C   LIG A   1      -8.764   5.884 132.563  0.00  0.00    +0.098 A 
ATOM      4  C   LIG A   1      -8.754   6.612 131.438  0.00  0.00    +0.139 A 
ATOM      5  O   LIG A   1      -7.604   7.071 130.823  0.00  0.00    -0.455 OA
ATOM      6  C   LIG A   1      -6.397   6.733 131.369  0.00  0.00    +0.143 A 
ATOM      7  C   LIG A   1      -6.269   5.978 132.530  0.00  0.00    +0.064 A 
ATOM      8  C   LIG A   1      -5.005   5.666 133.028  0.00  0.00    +0.019 A 
ATOM      9  C   LIG A   1      -3.872   6.116 132.342  0.00  0.00    +0.046 A 
ATOM     10  C   LIG A   1      -3.998   6.874 131.172  0.00  0.00    +0.124 A 
ATOM     11  C   LIG A   1      -5.269   7.185 130.691  0.00  0.00    +0.092 A 
ENDROOT
BRANCH   4  12
ATOM     12  C   LIG A   1      -9.993   6.997 130.739  0.00  0.00    +0.018 A 
ATOM     13  C   LIG A   1     -11.244   6.634 131.249  0.00  0.00    +0.015 A 
ATOM     14  C   LIG A   1     -12.419   6.987 130.587  0.00  0.00    +0.046 A 
ATOM     15  C   LIG A   1     -12.365   7.690 129.385  0.00  0.00    +0.120 A 
ATOM     16  C   LIG A   1     -11.124   8.051 128.860  0.00  0.00    +0.046 A 
ATOM     17  C   LIG A   1      -9.946   7.704 129.528  0.00  0.00    +0.015 A 
BRANCH  15  18
ATOM     18  O   LIG A   1     -13.452   8.069 128.646  0.00  0.00    -0.495 OA
ATOM     19  C   LIG A   1     -13.584   9.467 128.416  0.00  0.00    +0.277 C 
ENDBRANCH  15  18
ENDBRANCH   4  12
BRANCH  10  20
ATOM     20  O   LIG A   1      -2.823   7.252 130.581  0.00  0.00    -0.495 OA
ATOM     21  C   LIG A   1      -2.522   6.633 129.333  0.00  0.00    +0.277 C 
ENDBRANCH  10  20
TORSDOF 3
ENDMDL
MODEL 7
REMARK VINA RESULT:      -6.8      2.047      7.023
REMARK  Name = NuBBE_177
REMARK  5 active torsions:
REMARK  status: ('A' for Active; 'I' for Inactive)
REMARK    1  A    between atoms: C_4  and  C_14
REMARK    2  A    between atoms: C_10  and  O_11
REMARK    3  A    between atoms: O_11  and  C_12
REMARK    4  A    between atoms: C_17  and  O_20
REMARK    5  A    between atoms: O_20  and  C_21
REMARK                            x       y       z     vdW  Elec       q    Type
REMARK                         _______ _______ _______ _____ _____    ______ ____
ROOT
ATOM      1  O   LIG A   1      -9.896  -3.319 123.382  0.00  0.00    -0.287 OA
ATOM      2  C   LIG A   1      -9.293  -2.536 124.094  0.00  0.00    +0.193 A 
ATOM      3  C   LIG A   1      -8.627  -2.989 125.327  0.00  0.00    +0.098 A 
ATOM      4  C   LIG A   1      -7.965  -2.105 126.087  0.00  0.00    +0.139 A 
ATOM      5  O   LIG A   1      -7.843  -0.762 125.783  0.00  0.00    -0.455 OA
ATOM      6  C   LIG A   1      -8.467  -0.291 124.660  0.00  0.00    +0.143 A 
ATOM      7  C   LIG A   1      -9.190  -1.101 123.792  0.00  0.00    +0.064 A 
ATOM      8  C   LIG A   1      -9.806  -0.551 122.669  0.00  0.00    +0.019 A 
ATOM      9  C   LIG A   1      -9.690   0.822 122.432  0.00  0.00    +0.046 A 
ATOM     10  C   LIG A   1      -8.964   1.641 123.306  0.00  0.00    +0.124 A 
ATOM     11  C   LIG A   1      -8.347   1.075 124.420  0.00  0.00    +0.092 A 
ENDROOT
BRANCH   4  12
ATOM     12  C   LIG A   1      -7.292  -2.492 127.339  0.00  0.00    +0.018 A 
ATOM     13  C   LIG A   1      -8.011  -3.080 128.385  0.00  0.00    +0.015 A 
ATOM     14  C   LIG A   1      -7.381  -3.439 129.575  0.00  0.00    +0.046 A 
ATOM     15  C   LIG A   1      -6.021  -3.194 129.754  0.00  0.00    +0.120 A 
ATOM     16  C   LIG A   1      -5.293  -2.599 128.723  0.00  0.00    +0.046 A 
ATOM     17  C   LIG A   1      -5.923  -2.246 127.526  0.00  0.00    +0.015 A 
BRANCH  15  18
ATOM     18  O   LIG A   1      -5.311  -3.487 130.886  0.00  0.00    -0.495 OA
ATOM     19  C   LIG A   1      -5.403  -4.833 131.339  0.00  0.00    +0.277 C 
ENDBRANCH  15  18
ENDBRANCH   4  12
BRANCH  10  20
ATOM     20  O   LIG A   1      -8.925   2.969 122.980  0.00  0.00    -0.495 OA
ATOM     21  C   LIG A   1      -8.684   3.270 121.607  0.00  0.00    +0.277 C 
ENDBRANCH  10  20
TORSDOF 3
ENDMDL
MODEL 8
REMARK VINA RESULT:      -6.8      2.511      4.334
REMARK  Name = NuBBE_177
REMARK  5 active torsions:
REMARK  status: ('A' for Active; 'I' for Inactive)
REMARK    1  A    between atoms: C_4  and  C_14
REMARK    2  A    between atoms: C_10  and  O_11
REMARK    3  A    between atoms: O_11  and  C_12
REMARK    4  A    between atoms: C_17  and  O_20
REMARK    5  A    between atoms: O_20  and  C_21
REMARK                            x       y       z     vdW  Elec       q    Type
REMARK                         _______ _______ _______ _____ _____    ______ ____
ROOT
ATOM      1  O   LIG A   1      -8.290   3.185 126.528  0.00  0.00    -0.287 OA
ATOM      2  C   LIG A   1      -7.947   2.603 125.514  0.00  0.00    +0.193 A 
ATOM      3  C   LIG A   1      -7.613   3.346 124.288  0.00  0.00    +0.098 A 
ATOM      4  C   LIG A   1      -7.231   2.679 123.191  0.00  0.00    +0.139 A 
ATOM      5  O   LIG A   1      -7.110   1.303 123.124  0.00  0.00    -0.455 OA
ATOM      6  C   LIG A   1      -7.435   0.569 124.231  0.00  0.00    +0.143 A 
ATOM      7  C   LIG A   1      -7.850   1.138 125.430  0.00  0.00    +0.064 A 
ATOM      8  C   LIG A   1      -8.172   0.327 126.517  0.00  0.00    +0.019 A 
ATOM      9  C   LIG A   1      -8.077  -1.062 126.384  0.00  0.00    +0.046 A 
ATOM     10  C   LIG A   1      -7.661  -1.637 125.177  0.00  0.00    +0.124 A 
ATOM     11  C   LIG A   1      -7.335  -0.813 124.101  0.00  0.00    +0.092 A 
ENDROOT
BRANCH   4  12
ATOM     12  C   LIG A   1      -6.898   3.364 121.929  0.00  0.00    +0.018 A 
ATOM     13  C   LIG A   1      -5.612   3.867 121.707  0.00  0.00    +0.015 A 
ATOM     14  C   LIG A   1      -5.295   4.525 120.519  0.00  0.00    +0.046 A 
ATOM     15  C   LIG A   1      -6.267   4.716 119.539  0.00  0.00    +0.120 A 
ATOM     16  C   LIG A   1      -7.556   4.227 119.752  0.00  0.00    +0.046 A 
ATOM     17  C   LIG A   1      -7.873   3.561 120.939  0.00  0.00    +0.015 A 
BRANCH  15  18
ATOM     18  O   LIG A   1      -6.069   5.362 118.350  0.00  0.00    -0.495 OA
ATOM     19  C   LIG A   1      -5.986   6.781 118.426  0.00  0.00    +0.277 C 
ENDBRANCH  15  18
ENDBRANCH   4  12
BRANCH  10  20
ATOM     20  O   LIG A   1      -7.613  -3.005 125.158  0.00  0.00    -0.495 OA
ATOM     21  C   LIG A   1      -8.679  -3.659 124.475  0.00  0.00    +0.277 C 
ENDBRANCH  10  20
TORSDOF 3
ENDMDL
MODEL 9
REMARK VINA RESULT:      -6.8      2.780      4.102
REMARK  Name = NuBBE_177
REMARK  5 active torsions:
REMARK  status: ('A' for Active; 'I' for Inactive)
REMARK    1  A    between atoms: C_4  and  C_14
REMARK    2  A    between atoms: C_10  and  O_11
REMARK    3  A    between atoms: O_11  and  C_12
REMARK    4  A    between atoms: C_17  and  O_20
REMARK    5  A    between atoms: O_20  and  C_21
REMARK                            x       y       z     vdW  Elec       q    Type
REMARK                         _______ _______ _______ _____ _____    ______ ____
ROOT
ATOM      1  O   LIG A   1      -8.281   1.229 126.646  0.00  0.00    -0.287 OA
ATOM      2  C   LIG A   1      -7.824   0.948 125.553  0.00  0.00    +0.193 A 
ATOM      3  C   LIG A   1      -7.822   1.929 124.455  0.00  0.00    +0.098 A 
ATOM      4  C   LIG A   1      -7.304   1.593 123.265  0.00  0.00    +0.139 A 
ATOM      5  O   LIG A   1      -6.741   0.361 122.987  0.00  0.00    -0.455 OA
ATOM      6  C   LIG A   1      -6.744  -0.591 123.968  0.00  0.00    +0.143 A 
ATOM      7  C   LIG A   1      -7.256  -0.372 125.243  0.00  0.00    +0.064 A 
ATOM      8  C   LIG A   1      -7.231  -1.392 126.192  0.00  0.00    +0.019 A 
ATOM      9  C   LIG A   1      -6.693  -2.635 125.845  0.00  0.00    +0.046 A 
ATOM     10  C   LIG A   1      -6.179  -2.858 124.562  0.00  0.00    +0.124 A 
ATOM     11  C   LIG A   1      -6.203  -1.826 123.625  0.00  0.00    +0.092 A 
ENDROOT
BRANCH   4  12
ATOM     12  C   LIG A   1      -7.286   2.524 122.124  0.00  0.00    +0.018 A 
ATOM     13  C   LIG A   1      -8.477   3.054 121.615  0.00  0.00    +0.015 A 
ATOM     14  C   LIG A   1      -8.466   3.928 120.529  0.00  0.00    +0.046 A 
ATOM     15  C   LIG A   1      -7.264   4.270 119.912  0.00  0.00    +0.120 A 
ATOM     16  C   LIG A   1      -6.070   3.741 120.403  0.00  0.00    +0.046 A 
ATOM     17  C   LIG A   1      -6.080   2.871 121.497  0.00  0.00    +0.015 A 
BRANCH  15  18
ATOM     18  O   LIG A   1      -7.143   5.100 118.831  0.00  0.00    -0.495 OA
ATOM     19  C   LIG A   1      -5.878   5.734 118.680  0.00  0.00    +0.277 C 
ENDBRANCH  15  18
ENDBRANCH   4  12
BRANCH  10  20
ATOM     20  O   LIG A   1      -5.685  -4.114 124.331  0.00  0.00    -0.495 OA
ATOM     21  C   LIG A   1      -4.456  -4.181 123.612  0.00  0.00    +0.277 C 
ENDBRANCH  10  20
TORSDOF 3
ENDMDL
