MODEL 1
REMARK VINA RESULT:      -6.4      0.000      0.000
REMARK  Name = NuBBE_1932
REMARK  5 active torsions:
REMARK  status: ('A' for Active; 'I' for Inactive)
REMARK    1  A    between atoms: C_1  and  C_2
REMARK    2  A    between atoms: C_2  and  C_3
REMARK    3  A    between atoms: C_10  and  C_20
REMARK    4  A    between atoms: C_10  and  O_21
REMARK    5  A    between atoms: C_15  and  C_17
REMARK                            x       y       z     vdW  Elec       q    Type
REMARK                         _______ _______ _______ _____ _____    ______ ____
ROOT
ATOM      1  C   LIG A   1      -5.393  -2.567 124.417  0.00  0.00    +0.011 C 
ATOM      2  C   LIG A   1      -6.349  -1.428 124.144  0.00  0.00    -0.028 C 
ATOM      3  C   LIG A   1      -6.606  -1.231 122.659  0.00  0.00    +0.011 C 
ATOM      4  C   LIG A   1      -7.543  -1.071 125.025  0.00  0.00    +0.002 C 
ATOM      5  C   LIG A   1      -6.321  -0.178 125.068  0.00  0.00    -0.001 C 
ATOM      6  C   LIG A   1      -5.249  -0.048 126.117  0.00  0.00    +0.007 C 
ATOM      7  C   LIG A   1      -5.534  -0.158 127.615  0.00  0.00    +0.035 C 
ATOM      8  C   LIG A   1      -6.847  -0.754 128.153  0.00  0.00    +0.066 C 
ATOM      9  C   LIG A   1      -7.230  -2.046 127.386  0.00  0.00    +0.024 C 
ATOM     10  C   LIG A   1      -8.126  -1.782 126.186  0.00  0.00    +0.002 C 
ATOM     11  C   LIG A   1      -8.887  -3.081 125.894  0.00  0.00    -0.010 C 
ATOM     12  C   LIG A   1      -8.221  -4.101 124.983  0.00  0.00    +0.008 C 
ATOM     13  C   LIG A   1      -9.122  -3.638 127.301  0.00  0.00    +0.004 C 
ATOM     14  C   LIG A   1      -7.957  -3.155 128.169  0.00  0.00    +0.007 C 
ATOM     15  C   LIG A   1      -7.917   0.345 128.199  0.00  0.00    +0.041 C 
ENDROOT
BRANCH   8  16
ATOM     16  O   LIG A   1      -6.599  -1.088 129.536  0.00  0.00    -0.389 OA
ATOM     17  H   LIG A   1      -7.214  -0.590 130.081  0.00  0.00    +0.210 HD
ENDBRANCH   8  16
TORSDOF 1
ENDMDL
MODEL 2
REMARK VINA RESULT:      -6.3      2.144      4.204
REMARK  Name = NuBBE_1932
REMARK  5 active torsions:
REMARK  status: ('A' for Active; 'I' for Inactive)
REMARK    1  A    between atoms: C_1  and  C_2
REMARK    2  A    between atoms: C_2  and  C_3
REMARK    3  A    between atoms: C_10  and  C_20
REMARK    4  A    between atoms: C_10  and  O_21
REMARK    5  A    between atoms: C_15  and  C_17
REMARK                            x       y       z     vdW  Elec       q    Type
REMARK                         _______ _______ _______ _____ _____    ______ ____
ROOT
ATOM      1  C   LIG A   1      -9.497  -2.910 125.812  0.00  0.00    +0.011 C 
ATOM      2  C   LIG A   1      -8.463  -2.470 126.823  0.00  0.00    -0.028 C 
ATOM      3  C   LIG A   1      -8.432  -3.368 128.048  0.00  0.00    +0.011 C 
ATOM      4  C   LIG A   1      -7.105  -1.873 126.466  0.00  0.00    +0.002 C 
ATOM      5  C   LIG A   1      -8.180  -0.952 127.003  0.00  0.00    -0.001 C 
ATOM      6  C   LIG A   1      -9.039   0.059 126.292  0.00  0.00    +0.007 C 
ATOM      7  C   LIG A   1      -8.527   0.917 125.135  0.00  0.00    +0.035 C 
ATOM      8  C   LIG A   1      -7.229   0.578 124.380  0.00  0.00    +0.066 C 
ATOM      9  C   LIG A   1      -7.146  -0.938 124.068  0.00  0.00    +0.024 C 
ATOM     10  C   LIG A   1      -6.434  -1.731 125.153  0.00  0.00    +0.002 C 
ATOM     11  C   LIG A   1      -5.902  -3.014 124.504  0.00  0.00    -0.010 C 
ATOM     12  C   LIG A   1      -6.833  -4.216 124.447  0.00  0.00    +0.008 C 
ATOM     13  C   LIG A   1      -5.511  -2.527 123.105  0.00  0.00    +0.004 C 
ATOM     14  C   LIG A   1      -6.445  -1.364 122.764  0.00  0.00    +0.007 C 
ATOM     15  C   LIG A   1      -6.036   1.178 125.135  0.00  0.00    +0.041 C 
ENDROOT
BRANCH   8  16
ATOM     16  O   LIG A   1      -7.287   1.308 123.136  0.00  0.00    -0.389 OA
ATOM     17  H   LIG A   1      -6.704   0.876 122.505  0.00  0.00    +0.210 HD
ENDBRANCH   8  16
TORSDOF 1
ENDMDL
MODEL 3
REMARK VINA RESULT:      -6.3      1.247      2.157
REMARK  Name = NuBBE_1932
REMARK  5 active torsions:
REMARK  status: ('A' for Active; 'I' for Inactive)
REMARK    1  A    between atoms: C_1  and  C_2
REMARK    2  A    between atoms: C_2  and  C_3
REMARK    3  A    between atoms: C_10  and  C_20
REMARK    4  A    between atoms: C_10  and  O_21
REMARK    5  A    between atoms: C_15  and  C_17
REMARK                            x       y       z     vdW  Elec       q    Type
REMARK                         _______ _______ _______ _____ _____    ______ ____
ROOT
ATOM      1  C   LIG A   1      -7.305  -4.041 124.612  0.00  0.00    +0.011 C 
ATOM      2  C   LIG A   1      -8.288  -2.893 124.581  0.00  0.00    -0.028 C 
ATOM      3  C   LIG A   1      -9.527  -3.214 123.763  0.00  0.00    +0.011 C 
ATOM      4  C   LIG A   1      -8.553  -1.949 125.751  0.00  0.00    +0.002 C 
ATOM      5  C   LIG A   1      -7.748  -1.435 124.577  0.00  0.00    -0.001 C 
ATOM      6  C   LIG A   1      -6.269  -1.185 124.446  0.00  0.00    +0.007 C 
ATOM      7  C   LIG A   1      -5.413  -0.649 125.593  0.00  0.00    +0.035 C 
ATOM      8  C   LIG A   1      -5.905  -0.657 127.051  0.00  0.00    +0.066 C 
ATOM      9  C   LIG A   1      -6.581  -2.007 127.404  0.00  0.00    +0.024 C 
ATOM     10  C   LIG A   1      -8.082  -2.005 127.154  0.00  0.00    +0.002 C 
ATOM     11  C   LIG A   1      -8.693  -3.089 128.050  0.00  0.00    -0.010 C 
ATOM     12  C   LIG A   1      -8.755  -4.507 127.501  0.00  0.00    +0.008 C 
ATOM     13  C   LIG A   1      -7.819  -2.999 129.304  0.00  0.00    +0.004 C 
ATOM     14  C   LIG A   1      -6.437  -2.524 128.847  0.00  0.00    +0.007 C 
ATOM     15  C   LIG A   1      -6.742   0.604 127.307  0.00  0.00    +0.041 C 
ENDROOT
BRANCH   8  16
ATOM     16  O   LIG A   1      -4.729  -0.495 127.872  0.00  0.00    -0.389 OA
ATOM     17  H   LIG A   1      -5.007  -0.452 128.792  0.00  0.00    +0.210 HD
ENDBRANCH   8  16
TORSDOF 1
ENDMDL
MODEL 4
REMARK VINA RESULT:      -6.1      2.180      3.902
REMARK  Name = NuBBE_1932
REMARK  5 active torsions:
REMARK  status: ('A' for Active; 'I' for Inactive)
REMARK    1  A    between atoms: C_1  and  C_2
REMARK    2  A    between atoms: C_2  and  C_3
REMARK    3  A    between atoms: C_10  and  C_20
REMARK    4  A    between atoms: C_10  and  O_21
REMARK    5  A    between atoms: C_15  and  C_17
REMARK                            x       y       z     vdW  Elec       q    Type
REMARK                         _______ _______ _______ _____ _____    ______ ____
ROOT
ATOM      1  C   LIG A   1      -8.190   1.081 126.794  0.00  0.00    +0.011 C 
ATOM      2  C   LIG A   1      -6.870   0.545 126.288  0.00  0.00    -0.028 C 
ATOM      3  C   LIG A   1      -5.687   1.365 126.774  0.00  0.00    +0.011 C 
ATOM      4  C   LIG A   1      -6.553  -0.936 126.101  0.00  0.00    +0.002 C 
ATOM      5  C   LIG A   1      -6.806  -0.091 124.871  0.00  0.00    -0.001 C 
ATOM      6  C   LIG A   1      -8.007  -0.024 123.966  0.00  0.00    +0.007 C 
ATOM      7  C   LIG A   1      -8.843  -1.252 123.604  0.00  0.00    +0.035 C 
ATOM      8  C   LIG A   1      -8.748  -2.567 124.399  0.00  0.00    +0.066 C 
ATOM      9  C   LIG A   1      -8.731  -2.297 125.925  0.00  0.00    +0.024 C 
ATOM     10  C   LIG A   1      -7.327  -2.139 126.487  0.00  0.00    +0.002 C 
ATOM     11  C   LIG A   1      -7.396  -2.469 127.983  0.00  0.00    -0.010 C 
ATOM     12  C   LIG A   1      -7.743  -1.340 128.941  0.00  0.00    +0.008 C 
ATOM     13  C   LIG A   1      -8.441  -3.589 128.015  0.00  0.00    +0.004 C 
ATOM     14  C   LIG A   1      -9.394  -3.339 126.844  0.00  0.00    +0.007 C 
ATOM     15  C   LIG A   1      -7.584  -3.403 123.849  0.00  0.00    +0.041 C 
ENDROOT
BRANCH   8  16
ATOM     16  O   LIG A   1      -9.934  -3.321 124.070  0.00  0.00    -0.389 OA
ATOM     17  H   LIG A   1     -10.404  -2.855 123.372  0.00  0.00    +0.210 HD
ENDBRANCH   8  16
TORSDOF 1
ENDMDL
MODEL 5
REMARK VINA RESULT:      -6.0      2.203      4.634
REMARK  Name = NuBBE_1932
REMARK  5 active torsions:
REMARK  status: ('A' for Active; 'I' for Inactive)
REMARK    1  A    between atoms: C_1  and  C_2
REMARK    2  A    between atoms: C_2  and  C_3
REMARK    3  A    between atoms: C_10  and  C_20
REMARK    4  A    between atoms: C_10  and  O_21
REMARK    5  A    between atoms: C_15  and  C_17
REMARK                            x       y       z     vdW  Elec       q    Type
REMARK                         _______ _______ _______ _____ _____    ______ ____
ROOT
ATOM      1  C   LIG A   1      -6.501  -2.524 127.549  0.00  0.00    +0.011 C 
ATOM      2  C   LIG A   1      -7.932  -2.850 127.182  0.00  0.00    -0.028 C 
ATOM      3  C   LIG A   1      -8.674  -3.546 128.309  0.00  0.00    +0.011 C 
ATOM      4  C   LIG A   1      -8.823  -1.967 126.313  0.00  0.00    +0.002 C 
ATOM      5  C   LIG A   1      -8.266  -3.240 125.715  0.00  0.00    -0.001 C 
ATOM      6  C   LIG A   1      -7.151  -3.442 124.722  0.00  0.00    +0.007 C 
ATOM      7  C   LIG A   1      -6.889  -2.482 123.562  0.00  0.00    +0.035 C 
ATOM      8  C   LIG A   1      -7.499  -1.069 123.518  0.00  0.00    +0.066 C 
ATOM      9  C   LIG A   1      -7.385  -0.370 124.896  0.00  0.00    +0.024 C 
ATOM     10  C   LIG A   1      -8.599  -0.602 125.784  0.00  0.00    +0.002 C 
ATOM     11  C   LIG A   1      -8.650   0.552 126.793  0.00  0.00    -0.010 C 
ATOM     12  C   LIG A   1      -7.863   0.396 128.086  0.00  0.00    +0.008 C 
ATOM     13  C   LIG A   1      -8.148   1.732 125.957  0.00  0.00    +0.004 C 
ATOM     14  C   LIG A   1      -7.190   1.158 124.910  0.00  0.00    +0.007 C 
ATOM     15  C   LIG A   1      -8.908  -1.149 122.915  0.00  0.00    +0.041 C 
ENDROOT
BRANCH   8  16
ATOM     16  O   LIG A   1      -6.724  -0.328 122.552  0.00  0.00    -0.389 OA
ATOM     17  H   LIG A   1      -5.899  -0.800 122.401  0.00  0.00    +0.210 HD
ENDBRANCH   8  16
TORSDOF 1
ENDMDL
MODEL 6
REMARK VINA RESULT:      -6.0      2.392      3.737
REMARK  Name = NuBBE_1932
REMARK  5 active torsions:
REMARK  status: ('A' for Active; 'I' for Inactive)
REMARK    1  A    between atoms: C_1  and  C_2
REMARK    2  A    between atoms: C_2  and  C_3
REMARK    3  A    between atoms: C_10  and  C_20
REMARK    4  A    between atoms: C_10  and  O_21
REMARK    5  A    between atoms: C_15  and  C_17
REMARK                            x       y       z     vdW  Elec       q    Type
REMARK                         _______ _______ _______ _____ _____    ______ ____
ROOT
ATOM      1  C   LIG A   1      -7.201  -2.785 125.835  0.00  0.00    +0.011 C 
ATOM      2  C   LIG A   1      -6.191  -2.453 124.759  0.00  0.00    -0.028 C 
ATOM      3  C   LIG A   1      -5.366  -3.659 124.348  0.00  0.00    +0.011 C 
ATOM      4  C   LIG A   1      -6.431  -1.458 123.627  0.00  0.00    +0.002 C 
ATOM      5  C   LIG A   1      -5.516  -1.052 124.762  0.00  0.00    -0.001 C 
ATOM      6  C   LIG A   1      -5.753  -0.110 125.913  0.00  0.00    +0.007 C 
ATOM      7  C   LIG A   1      -6.575   1.172 125.781  0.00  0.00    +0.035 C 
ATOM      8  C   LIG A   1      -7.509   1.422 124.583  0.00  0.00    +0.066 C 
ATOM      9  C   LIG A   1      -8.338   0.156 124.247  0.00  0.00    +0.024 C 
ATOM     10  C   LIG A   1      -7.663  -0.743 123.222  0.00  0.00    +0.002 C 
ATOM     11  C   LIG A   1      -8.764  -1.578 122.557  0.00  0.00    -0.010 C 
ATOM     12  C   LIG A   1      -9.158  -2.888 123.223  0.00  0.00    +0.008 C 
ATOM     13  C   LIG A   1      -9.931  -0.588 122.506  0.00  0.00    +0.004 C 
ATOM     14  C   LIG A   1      -9.763   0.357 123.699  0.00  0.00    +0.007 C 
ATOM     15  C   LIG A   1      -6.696   2.022 123.428  0.00  0.00    +0.041 C 
ENDROOT
BRANCH   8  16
ATOM     16  O   LIG A   1      -8.409   2.475 124.989  0.00  0.00    -0.389 OA
ATOM     17  H   LIG A   1      -8.175   3.274 124.507  0.00  0.00    +0.210 HD
ENDBRANCH   8  16
TORSDOF 1
ENDMDL
MODEL 7
REMARK VINA RESULT:      -5.9      2.444      4.491
REMARK  Name = NuBBE_1932
REMARK  5 active torsions:
REMARK  status: ('A' for Active; 'I' for Inactive)
REMARK    1  A    between atoms: C_1  and  C_2
REMARK    2  A    between atoms: C_2  and  C_3
REMARK    3  A    between atoms: C_10  and  C_20
REMARK    4  A    between atoms: C_10  and  O_21
REMARK    5  A    between atoms: C_15  and  C_17
REMARK                            x       y       z     vdW  Elec       q    Type
REMARK                         _______ _______ _______ _____ _____    ______ ____
ROOT
ATOM      1  C   LIG A   1      -5.201   0.253 126.129  0.00  0.00    +0.011 C 
ATOM      2  C   LIG A   1      -5.885  -0.816 126.951  0.00  0.00    -0.028 C 
ATOM      3  C   LIG A   1      -5.493  -0.758 128.417  0.00  0.00    +0.011 C 
ATOM      4  C   LIG A   1      -7.311  -1.306 126.716  0.00  0.00    +0.002 C 
ATOM      5  C   LIG A   1      -6.163  -2.203 126.307  0.00  0.00    -0.001 C 
ATOM      6  C   LIG A   1      -5.613  -2.517 124.941  0.00  0.00    +0.007 C 
ATOM      7  C   LIG A   1      -6.497  -2.658 123.702  0.00  0.00    +0.035 C 
ATOM      8  C   LIG A   1      -7.950  -2.150 123.674  0.00  0.00    +0.066 C 
ATOM      9  C   LIG A   1      -8.062  -0.744 124.318  0.00  0.00    +0.024 C 
ATOM     10  C   LIG A   1      -8.364  -0.795 125.808  0.00  0.00    +0.002 C 
ATOM     11  C   LIG A   1      -9.016   0.542 126.184  0.00  0.00    -0.010 C 
ATOM     12  C   LIG A   1      -8.099   1.694 126.563  0.00  0.00    +0.008 C 
ATOM     13  C   LIG A   1      -9.845   0.856 124.935  0.00  0.00    +0.004 C 
ATOM     14  C   LIG A   1      -9.115   0.223 123.748  0.00  0.00    +0.007 C 
ATOM     15  C   LIG A   1      -8.872  -3.232 124.251  0.00  0.00    +0.041 C 
ENDROOT
BRANCH   8  16
ATOM     16  O   LIG A   1      -8.315  -2.055 122.281  0.00  0.00    -0.389 OA
ATOM     17  H   LIG A   1      -7.920  -1.257 121.919  0.00  0.00    +0.210 HD
ENDBRANCH   8  16
TORSDOF 1
ENDMDL
MODEL 8
REMARK VINA RESULT:      -5.9      2.356      4.311
REMARK  Name = NuBBE_1932
REMARK  5 active torsions:
REMARK  status: ('A' for Active; 'I' for Inactive)
REMARK    1  A    between atoms: C_1  and  C_2
REMARK    2  A    between atoms: C_2  and  C_3
REMARK    3  A    between atoms: C_10  and  C_20
REMARK    4  A    between atoms: C_10  and  O_21
REMARK    5  A    between atoms: C_15  and  C_17
REMARK                            x       y       z     vdW  Elec       q    Type
REMARK                         _______ _______ _______ _____ _____    ______ ____
ROOT
ATOM      1  C   LIG A   1      -7.323  -2.537 127.086  0.00  0.00    +0.011 C 
ATOM      2  C   LIG A   1      -6.476  -1.287 126.994  0.00  0.00    -0.028 C 
ATOM      3  C   LIG A   1      -5.293  -1.318 127.947  0.00  0.00    +0.011 C 
ATOM      4  C   LIG A   1      -6.204  -0.521 125.703  0.00  0.00    +0.002 C 
ATOM      5  C   LIG A   1      -7.168   0.075 126.707  0.00  0.00    -0.001 C 
ATOM      6  C   LIG A   1      -8.671   0.160 126.680  0.00  0.00    +0.007 C 
ATOM      7  C   LIG A   1      -9.467   0.395 125.397  0.00  0.00    +0.035 C 
ATOM      8  C   LIG A   1      -8.840   0.211 124.003  0.00  0.00    +0.066 C 
ATOM      9  C   LIG A   1      -7.992  -1.085 123.939  0.00  0.00    +0.024 C 
ATOM     10  C   LIG A   1      -6.531  -0.860 124.299  0.00  0.00    +0.002 C 
ATOM     11  C   LIG A   1      -5.725  -1.992 123.651  0.00  0.00    -0.010 C 
ATOM     12  C   LIG A   1      -5.562  -3.284 124.438  0.00  0.00    +0.008 C 
ATOM     13  C   LIG A   1      -6.480  -2.213 122.338  0.00  0.00    +0.004 C 
ATOM     14  C   LIG A   1      -7.942  -1.843 122.600  0.00  0.00    +0.007 C 
ATOM     15  C   LIG A   1      -8.124   1.506 123.599  0.00  0.00    +0.041 C 
ENDROOT
BRANCH   8  16
ATOM     16  O   LIG A   1      -9.943   0.093 123.079  0.00  0.00    -0.389 OA
ATOM     17  H   LIG A   1      -9.657   0.426 122.224  0.00  0.00    +0.210 HD
ENDBRANCH   8  16
TORSDOF 1
ENDMDL
MODEL 9
REMARK VINA RESULT:      -5.8      1.851      2.864
REMARK  Name = NuBBE_1932
REMARK  5 active torsions:
REMARK  status: ('A' for Active; 'I' for Inactive)
REMARK    1  A    between atoms: C_1  and  C_2
REMARK    2  A    between atoms: C_2  and  C_3
REMARK    3  A    between atoms: C_10  and  C_20
REMARK    4  A    between atoms: C_10  and  O_21
REMARK    5  A    between atoms: C_15  and  C_17
REMARK                            x       y       z     vdW  Elec       q    Type
REMARK                         _______ _______ _______ _____ _____    ______ ____
ROOT
ATOM      1  C   LIG A   1      -7.321  -3.284 124.713  0.00  0.00    +0.011 C 
ATOM      2  C   LIG A   1      -6.222  -2.332 124.297  0.00  0.00    -0.028 C 
ATOM      3  C   LIG A   1      -5.413  -2.858 123.124  0.00  0.00    +0.011 C 
ATOM      4  C   LIG A   1      -6.339  -0.811 124.329  0.00  0.00    +0.002 C 
ATOM      5  C   LIG A   1      -5.498  -1.492 125.387  0.00  0.00    -0.001 C 
ATOM      6  C   LIG A   1      -5.786  -1.747 126.842  0.00  0.00    +0.007 C 
ATOM      7  C   LIG A   1      -6.548  -0.758 127.724  0.00  0.00    +0.035 C 
ATOM      8  C   LIG A   1      -7.380   0.392 127.129  0.00  0.00    +0.066 C 
ATOM      9  C   LIG A   1      -8.226  -0.096 125.926  0.00  0.00    +0.024 C 
ATOM     10  C   LIG A   1      -7.511   0.057 124.593  0.00  0.00    +0.002 C 
ATOM     11  C   LIG A   1      -8.588   0.119 123.503  0.00  0.00    -0.010 C 
ATOM     12  C   LIG A   1      -9.079  -1.196 122.918  0.00  0.00    +0.008 C 
ATOM     13  C   LIG A   1      -9.711   0.887 124.207  0.00  0.00    +0.004 C 
ATOM     14  C   LIG A   1      -9.598   0.567 125.700  0.00  0.00    +0.007 C 
ATOM     15  C   LIG A   1      -6.460   1.593 126.865  0.00  0.00    +0.041 C 
ENDROOT
BRANCH   8  16
ATOM     16  O   LIG A   1      -8.268   0.830 128.179  0.00  0.00    -0.389 OA
ATOM     17  H   LIG A   1      -8.887   0.118 128.366  0.00  0.00    +0.210 HD
ENDBRANCH   8  16
TORSDOF 1
ENDMDL
