MODEL 1
REMARK VINA RESULT:      -9.4      0.000      0.000
REMARK  Name = NuBBE_610
REMARK  11 active torsions:
REMARK  status: ('A' for Active; 'I' for Inactive)
REMARK    1  A    between atoms: C_1  and  C_2
REMARK    2  A    between atoms: C_3  and  C_4
REMARK    3  A    between atoms: C_7  and  C_9
REMARK    4  A    between atoms: C_9  and  C_10
REMARK    5  A    between atoms: C_19  and  O_37
REMARK    6  A    between atoms: C_26  and  C_27
REMARK    7  A    between atoms: C_26  and  O_28
REMARK    8  A    between atoms: C_30  and  C_32
REMARK    9  A    between atoms: O_37  and  C_38
REMARK   10  A    between atoms: C_38  and  C_39
REMARK   11  A    between atoms: C_45  and  O_47
REMARK                            x       y       z     vdW  Elec       q    Type
REMARK                         _______ _______ _______ _____ _____    ______ ____
ROOT
ATOM      1  C   LIG A   1      -7.971  -3.145 123.949  0.00  0.00    +0.041 C 
ATOM      2  C   LIG A   1      -7.477  -2.504 125.217  0.00  0.00    -0.045 C 
ATOM      3  C   LIG A   1      -8.114  -2.590 126.411  0.00  0.00    -0.065 C 
ATOM      4  C   LIG A   1      -9.446  -3.229 126.673  0.00  0.00    +0.039 C 
ATOM      5  C   LIG A   1      -7.373  -1.973 127.562  0.00  0.00    +0.054 C 
ATOM      6  C   LIG A   1      -7.807  -2.035 129.037  0.00  0.00    +0.085 C 
ATOM      7  N   LIG A   1      -6.907  -1.044 129.584  0.00  0.00    -0.311 N 
ATOM      8  H   LIG A   1      -6.564  -1.021 130.539  0.00  0.00    +0.149 HD
ATOM      9  C   LIG A   1      -7.054  -0.455 127.289  0.00  0.00    +0.103 C 
ATOM     10  C   LIG A   1      -8.341   0.493 127.356  0.00  0.00    +0.224 C 
ATOM     11  C   LIG A   1      -8.450   1.325 128.626  0.00  0.00    +0.192 C 
ATOM     12  C   LIG A   1      -7.768   2.650 129.020  0.00  0.00    +0.190 C 
ATOM     13  O   LIG A   1      -9.133   2.581 128.548  0.00  0.00    -0.361 OA
ATOM     14  C   LIG A   1      -6.929   3.706 128.307  0.00  0.00    +0.149 C 
ATOM     15  C   LIG A   1      -7.404   4.113 126.922  0.00  0.00    +0.052 C 
ATOM     16  C   LIG A   1      -5.406   3.433 128.489  0.00  0.00    +0.170 C 
ATOM     17  C   LIG A   1      -4.418   3.776 127.357  0.00  0.00    +0.059 C 
ATOM     18  C   LIG A   1      -3.291   4.629 127.952  0.00  0.00    +0.016 C 
ATOM     19  C   LIG A   1      -3.813   2.544 126.648  0.00  0.00    +0.037 C 
ATOM     20  C   LIG A   1      -4.855   1.704 125.965  0.00  0.00    -0.030 C 
ATOM     21  C   LIG A   1      -4.961   0.375 126.135  0.00  0.00    -0.024 C 
ATOM     22  O   LIG A   1      -4.972   3.073 129.594  0.00  0.00    -0.294 OA
ATOM     23  C   LIG A   1      -6.285  -0.288 128.608  0.00  0.00    +0.224 C 
ATOM     24  O   LIG A   1      -5.322   0.418 128.859  0.00  0.00    -0.275 OA
ATOM     25  C   LIG A   1      -6.280  -0.341 125.922  0.00  0.00    +0.063 C 
ATOM     26  C   LIG A   1      -6.163  -1.700 125.148  0.00  0.00    +0.148 C 
ENDROOT
BRANCH  14  27
ATOM     27  O   LIG A   1      -7.103   4.949 129.055  0.00  0.00    -0.379 OA
ATOM     28  H   LIG A   1      -6.655   5.658 128.561  0.00  0.00    +0.211 HD
ENDBRANCH  14  27
BRANCH  26  29
ATOM     29  O   LIG A   1      -5.843  -1.413 123.787  0.00  0.00    -0.387 OA
ATOM     30  H   LIG A   1      -6.176  -2.152 123.252  0.00  0.00    +0.210 HD
ENDBRANCH  26  29
BRANCH   6  31
ATOM     31  C   LIG A   1      -7.597  -3.410 129.691  0.00  0.00    +0.058 C 
BRANCH  31  32
ATOM     32  C   LIG A   1      -6.292  -3.505 130.451  0.00  0.00    -0.046 A 
ATOM     33  C   LIG A   1      -5.076  -3.631 129.766  0.00  0.00    +0.003 A 
ATOM     34  C   LIG A   1      -3.874  -3.719 130.471  0.00  0.00    +0.000 A 
ATOM     35  C   LIG A   1      -3.874  -3.698 131.865  0.00  0.00    +0.000 A 
ATOM     36  C   LIG A   1      -5.078  -3.584 132.556  0.00  0.00    +0.000 A 
ATOM     37  C   LIG A   1      -6.280  -3.482 131.855  0.00  0.00    +0.003 A 
ENDBRANCH  31  32
ENDBRANCH   6  31
BRANCH  10  38
ATOM     38  O   LIG A   1      -8.546   1.380 126.238  0.00  0.00    -0.458 OA
BRANCH  38  39
ATOM     39  C   LIG A   1      -9.508   0.986 125.354  0.00  0.00    +0.304 C 
ATOM     40  C   LIG A   1      -9.530   1.859 124.132  0.00  0.00    +0.136 C 
ATOM     41  O   LIG A   1     -10.308   0.079 125.542  0.00  0.00    -0.251 OA
ENDBRANCH  38  39
ENDBRANCH  10  38
TORSDOF 6
ENDMDL
MODEL 2
REMARK VINA RESULT:      -9.3      4.205      8.231
REMARK  Name = NuBBE_610
REMARK  11 active torsions:
REMARK  status: ('A' for Active; 'I' for Inactive)
REMARK    1  A    between atoms: C_1  and  C_2
REMARK    2  A    between atoms: C_3  and  C_4
REMARK    3  A    between atoms: C_7  and  C_9
REMARK    4  A    between atoms: C_9  and  C_10
REMARK    5  A    between atoms: C_19  and  O_37
REMARK    6  A    between atoms: C_26  and  C_27
REMARK    7  A    between atoms: C_26  and  O_28
REMARK    8  A    between atoms: C_30  and  C_32
REMARK    9  A    between atoms: O_37  and  C_38
REMARK   10  A    between atoms: C_38  and  C_39
REMARK   11  A    between atoms: C_45  and  O_47
REMARK                            x       y       z     vdW  Elec       q    Type
REMARK                         _______ _______ _______ _____ _____    ______ ____
ROOT
ATOM      1  C   LIG A   1      -9.768   1.173 132.214  0.00  0.00    +0.041 C 
ATOM      2  C   LIG A   1      -9.034   2.481 132.094  0.00  0.00    -0.045 C 
ATOM      3  C   LIG A   1      -9.402   3.486 131.260  0.00  0.00    -0.065 C 
ATOM      4  C   LIG A   1     -10.508   3.452 130.249  0.00  0.00    +0.039 C 
ATOM      5  C   LIG A   1      -8.592   4.742 131.400  0.00  0.00    +0.054 C 
ATOM      6  C   LIG A   1      -8.869   6.067 130.667  0.00  0.00    +0.085 C 
ATOM      7  N   LIG A   1      -7.631   6.755 130.959  0.00  0.00    -0.311 N 
ATOM      8  H   LIG A   1      -7.514   7.761 131.017  0.00  0.00    +0.149 HD
ATOM      9  C   LIG A   1      -7.058   4.461 131.179  0.00  0.00    +0.103 C 
ATOM     10  C   LIG A   1      -6.674   4.152 129.657  0.00  0.00    +0.224 C 
ATOM     11  C   LIG A   1      -5.995   5.302 128.928  0.00  0.00    +0.192 C 
ATOM     12  C   LIG A   1      -4.525   5.768 128.937  0.00  0.00    +0.190 C 
ATOM     13  O   LIG A   1      -5.092   4.982 127.865  0.00  0.00    -0.361 OA
ATOM     14  C   LIG A   1      -3.204   5.218 129.464  0.00  0.00    +0.149 C 
ATOM     15  C   LIG A   1      -2.957   3.737 129.234  0.00  0.00    +0.052 C 
ATOM     16  C   LIG A   1      -2.882   5.785 130.880  0.00  0.00    +0.170 C 
ATOM     17  C   LIG A   1      -2.147   4.910 131.915  0.00  0.00    +0.059 C 
ATOM     18  C   LIG A   1      -0.952   5.710 132.448  0.00  0.00    +0.016 C 
ATOM     19  C   LIG A   1      -3.028   4.450 133.097  0.00  0.00    +0.037 C 
ATOM     20  C   LIG A   1      -4.177   3.586 132.656  0.00  0.00    -0.030 C 
ATOM     21  C   LIG A   1      -5.450   3.807 133.021  0.00  0.00    -0.024 C 
ATOM     22  O   LIG A   1      -3.091   6.982 131.126  0.00  0.00    -0.294 OA
ATOM     23  C   LIG A   1      -6.659   5.916 131.471  0.00  0.00    +0.224 C 
ATOM     24  O   LIG A   1      -5.649   6.351 132.001  0.00  0.00    -0.275 OA
ATOM     25  C   LIG A   1      -6.606   3.322 132.169  0.00  0.00    +0.063 C 
ATOM     26  C   LIG A   1      -7.789   2.686 132.980  0.00  0.00    +0.148 C 
ENDROOT
BRANCH  14  27
ATOM     27  O   LIG A   1      -2.149   5.822 128.653  0.00  0.00    -0.379 OA
ATOM     28  H   LIG A   1      -1.770   6.560 129.160  0.00  0.00    +0.211 HD
ENDBRANCH  14  27
BRANCH  26  29
ATOM     29  O   LIG A   1      -7.351   1.430 133.497  0.00  0.00    -0.387 OA
ATOM     30  H   LIG A   1      -7.243   1.538 134.457  0.00  0.00    +0.210 HD
ENDBRANCH  26  29
BRANCH   6  31
ATOM     31  C   LIG A   1     -10.084   6.836 131.211  0.00  0.00    +0.058 C 
BRANCH  31  32
ATOM     32  C   LIG A   1     -11.047   7.257 130.121  0.00  0.00    -0.046 A 
ATOM     33  C   LIG A   1     -12.396   6.883 130.180  0.00  0.00    +0.003 A 
ATOM     34  C   LIG A   1     -13.282   7.272 129.174  0.00  0.00    +0.000 A 
ATOM     35  C   LIG A   1     -12.828   8.024 128.092  0.00  0.00    +0.000 A 
ATOM     36  C   LIG A   1     -11.487   8.394 128.018  0.00  0.00    +0.000 A 
ATOM     37  C   LIG A   1     -10.602   8.018 129.029  0.00  0.00    +0.003 A 
ENDBRANCH  31  32
ENDBRANCH   6  31
BRANCH  10  38
ATOM     38  O   LIG A   1      -5.892   2.965 129.419  0.00  0.00    -0.458 OA
BRANCH  38  39
ATOM     39  C   LIG A   1      -6.518   1.993 128.694  0.00  0.00    +0.304 C 
ATOM     40  C   LIG A   1      -6.914   0.827 129.552  0.00  0.00    +0.136 C 
ATOM     41  O   LIG A   1      -6.686   2.019 127.482  0.00  0.00    -0.251 OA
ENDBRANCH  38  39
ENDBRANCH  10  38
TORSDOF 6
ENDMDL
MODEL 3
REMARK VINA RESULT:      -9.1      3.219      7.663
REMARK  Name = NuBBE_610
REMARK  11 active torsions:
REMARK  status: ('A' for Active; 'I' for Inactive)
REMARK    1  A    between atoms: C_1  and  C_2
REMARK    2  A    between atoms: C_3  and  C_4
REMARK    3  A    between atoms: C_7  and  C_9
REMARK    4  A    between atoms: C_9  and  C_10
REMARK    5  A    between atoms: C_19  and  O_37
REMARK    6  A    between atoms: C_26  and  C_27
REMARK    7  A    between atoms: C_26  and  O_28
REMARK    8  A    between atoms: C_30  and  C_32
REMARK    9  A    between atoms: O_37  and  C_38
REMARK   10  A    between atoms: C_38  and  C_39
REMARK   11  A    between atoms: C_45  and  O_47
REMARK                            x       y       z     vdW  Elec       q    Type
REMARK                         _______ _______ _______ _____ _____    ______ ____
ROOT
ATOM      1  C   LIG A   1      -2.839   4.816 131.008  0.00  0.00    +0.041 C 
ATOM      2  C   LIG A   1      -4.154   4.882 130.280  0.00  0.00    -0.045 C 
ATOM      3  C   LIG A   1      -5.360   4.689 130.870  0.00  0.00    -0.065 C 
ATOM      4  C   LIG A   1      -5.609   4.280 132.291  0.00  0.00    +0.039 C 
ATOM      5  C   LIG A   1      -6.540   4.923 129.972  0.00  0.00    +0.054 C 
ATOM      6  C   LIG A   1      -8.014   4.893 130.411  0.00  0.00    +0.085 C 
ATOM      7  N   LIG A   1      -8.643   4.878 129.109  0.00  0.00    -0.311 N 
ATOM      8  H   LIG A   1      -9.567   5.238 128.895  0.00  0.00    +0.149 HD
ATOM      9  C   LIG A   1      -6.473   4.011 128.689  0.00  0.00    +0.103 C 
ATOM     10  C   LIG A   1      -6.759   2.465 128.986  0.00  0.00    +0.224 C 
ATOM     11  C   LIG A   1      -8.142   1.985 128.569  0.00  0.00    +0.192 C 
ATOM     12  C   LIG A   1      -8.682   1.557 127.190  0.00  0.00    +0.190 C 
ATOM     13  O   LIG A   1      -8.292   0.608 128.207  0.00  0.00    -0.361 OA
ATOM     14  C   LIG A   1      -8.080   1.264 125.819  0.00  0.00    +0.149 C 
ATOM     15  C   LIG A   1      -6.803   0.442 125.812  0.00  0.00    +0.052 C 
ATOM     16  C   LIG A   1      -8.124   2.524 124.903  0.00  0.00    +0.170 C 
ATOM     17  C   LIG A   1      -6.995   2.781 123.886  0.00  0.00    +0.059 C 
ATOM     18  C   LIG A   1      -7.637   3.025 122.515  0.00  0.00    +0.016 C 
ATOM     19  C   LIG A   1      -6.077   3.970 124.245  0.00  0.00    +0.037 C 
ATOM     20  C   LIG A   1      -5.344   3.761 125.541  0.00  0.00    -0.030 C 
ATOM     21  C   LIG A   1      -5.324   4.667 126.533  0.00  0.00    -0.024 C 
ATOM     22  O   LIG A   1      -9.135   3.243 124.893  0.00  0.00    -0.294 OA
ATOM     23  C   LIG A   1      -7.751   4.612 128.086  0.00  0.00    +0.224 C 
ATOM     24  O   LIG A   1      -8.042   4.799 126.916  0.00  0.00    -0.275 OA
ATOM     25  C   LIG A   1      -5.092   4.251 127.971  0.00  0.00    +0.063 C 
ATOM     26  C   LIG A   1      -4.120   5.190 128.770  0.00  0.00    +0.148 C 
ENDROOT
BRANCH  14  27
ATOM     27  O   LIG A   1      -9.012   0.367 125.140  0.00  0.00    -0.379 OA
ATOM     28  H   LIG A   1      -9.896   0.770 125.181  0.00  0.00    +0.211 HD
ENDBRANCH  14  27
BRANCH  26  29
ATOM     29  O   LIG A   1      -2.799   4.997 128.266  0.00  0.00    -0.387 OA
ATOM     30  H   LIG A   1      -2.326   4.443 128.908  0.00  0.00    +0.210 HD
ENDBRANCH  26  29
BRANCH   6  31
ATOM     31  C   LIG A   1      -8.444   6.121 131.230  0.00  0.00    +0.058 C 
BRANCH  31  32
ATOM     32  C   LIG A   1      -9.816   6.632 130.846  0.00  0.00    -0.046 A 
ATOM     33  C   LIG A   1      -9.972   7.511 129.766  0.00  0.00    +0.003 A 
ATOM     34  C   LIG A   1     -11.238   7.981 129.414  0.00  0.00    +0.000 A 
ATOM     35  C   LIG A   1     -12.359   7.591 130.145  0.00  0.00    +0.000 A 
ATOM     36  C   LIG A   1     -12.215   6.726 131.226  0.00  0.00    +0.000 A 
ATOM     37  C   LIG A   1     -10.952   6.243 131.572  0.00  0.00    +0.003 A 
ENDBRANCH  31  32
ENDBRANCH   6  31
BRANCH  10  38
ATOM     38  O   LIG A   1      -5.798   1.522 128.471  0.00  0.00    -0.458 OA
BRANCH  38  39
ATOM     39  C   LIG A   1      -5.262   0.675 129.397  0.00  0.00    +0.304 C 
ATOM     40  C   LIG A   1      -4.124   1.313 130.141  0.00  0.00    +0.136 C 
ATOM     41  O   LIG A   1      -5.607  -0.487 129.570  0.00  0.00    -0.251 OA
ENDBRANCH  38  39
ENDBRANCH  10  38
TORSDOF 6
ENDMDL
MODEL 4
REMARK VINA RESULT:      -9.1      2.404      5.755
REMARK  Name = NuBBE_610
REMARK  11 active torsions:
REMARK  status: ('A' for Active; 'I' for Inactive)
REMARK    1  A    between atoms: C_1  and  C_2
REMARK    2  A    between atoms: C_3  and  C_4
REMARK    3  A    between atoms: C_7  and  C_9
REMARK    4  A    between atoms: C_9  and  C_10
REMARK    5  A    between atoms: C_19  and  O_37
REMARK    6  A    between atoms: C_26  and  C_27
REMARK    7  A    between atoms: C_26  and  O_28
REMARK    8  A    between atoms: C_30  and  C_32
REMARK    9  A    between atoms: O_37  and  C_38
REMARK   10  A    between atoms: C_38  and  C_39
REMARK   11  A    between atoms: C_45  and  O_47
REMARK                            x       y       z     vdW  Elec       q    Type
REMARK                         _______ _______ _______ _____ _____    ______ ____
ROOT
ATOM      1  C   LIG A   1      -6.959  -3.117 131.385  0.00  0.00    +0.041 C 
ATOM      2  C   LIG A   1      -7.410  -1.912 130.605  0.00  0.00    -0.045 C 
ATOM      3  C   LIG A   1      -7.051  -1.659 129.322  0.00  0.00    -0.065 C 
ATOM      4  C   LIG A   1      -6.081  -2.443 128.490  0.00  0.00    +0.039 C 
ATOM      5  C   LIG A   1      -7.719  -0.462 128.710  0.00  0.00    +0.054 C 
ATOM      6  C   LIG A   1      -7.587  -0.020 127.242  0.00  0.00    +0.085 C 
ATOM      7  N   LIG A   1      -8.174   1.298 127.343  0.00  0.00    -0.311 N 
ATOM      8  H   LIG A   1      -8.644   1.794 126.593  0.00  0.00    +0.149 HD
ATOM      9  C   LIG A   1      -7.451   0.839 129.558  0.00  0.00    +0.103 C 
ATOM     10  C   LIG A   1      -5.949   1.378 129.447  0.00  0.00    +0.224 C 
ATOM     11  C   LIG A   1      -5.778   2.601 128.557  0.00  0.00    +0.192 C 
ATOM     12  C   LIG A   1      -6.024   4.095 128.846  0.00  0.00    +0.190 C 
ATOM     13  O   LIG A   1      -4.706   3.501 128.854  0.00  0.00    -0.361 OA
ATOM     14  C   LIG A   1      -6.320   4.939 130.081  0.00  0.00    +0.149 C 
ATOM     15  C   LIG A   1      -5.509   4.612 131.324  0.00  0.00    +0.052 C 
ATOM     16  C   LIG A   1      -7.853   5.154 130.263  0.00  0.00    +0.170 C 
ATOM     17  C   LIG A   1      -8.459   5.237 131.678  0.00  0.00    +0.059 C 
ATOM     18  C   LIG A   1      -9.311   6.511 131.754  0.00  0.00    +0.016 C 
ATOM     19  C   LIG A   1      -9.320   4.017 132.072  0.00  0.00    +0.037 C 
ATOM     20  C   LIG A   1      -8.527   2.740 132.103  0.00  0.00    -0.030 C 
ATOM     21  C   LIG A   1      -8.910   1.617 131.473  0.00  0.00    -0.024 C 
ATOM     22  O   LIG A   1      -8.562   5.397 129.276  0.00  0.00    -0.294 OA
ATOM     23  C   LIG A   1      -8.327   1.717 128.652  0.00  0.00    +0.224 C 
ATOM     24  O   LIG A   1      -9.020   2.679 128.941  0.00  0.00    -0.275 OA
ATOM     25  C   LIG A   1      -7.899   0.573 131.044  0.00  0.00    +0.063 C 
ATOM     26  C   LIG A   1      -8.340  -0.908 131.315  0.00  0.00    +0.148 C 
ENDROOT
BRANCH  14  27
ATOM     27  O   LIG A   1      -5.861   6.293 129.779  0.00  0.00    -0.379 OA
ATOM     28  H   LIG A   1      -6.647   6.861 129.696  0.00  0.00    +0.211 HD
ENDBRANCH  14  27
BRANCH  26  29
ATOM     29  O   LIG A   1      -8.309  -1.133 132.724  0.00  0.00    -0.387 OA
ATOM     30  H   LIG A   1      -9.160  -0.829 133.081  0.00  0.00    +0.210 HD
ENDBRANCH  26  29
BRANCH   6  31
ATOM     31  C   LIG A   1      -8.360  -0.908 126.253  0.00  0.00    +0.058 C 
BRANCH  31  32
ATOM     32  C   LIG A   1      -7.453  -1.792 125.425  0.00  0.00    -0.046 A 
ATOM     33  C   LIG A   1      -7.840  -3.097 125.092  0.00  0.00    +0.003 A 
ATOM     34  C   LIG A   1      -7.000  -3.910 124.329  0.00  0.00    +0.000 A 
ATOM     35  C   LIG A   1      -5.761  -3.435 123.903  0.00  0.00    +0.000 A 
ATOM     36  C   LIG A   1      -5.362  -2.143 124.236  0.00  0.00    +0.000 A 
ATOM     37  C   LIG A   1      -6.204  -1.323 124.987  0.00  0.00    +0.003 A 
ENDBRANCH  31  32
ENDBRANCH   6  31
BRANCH  10  38
ATOM     38  O   LIG A   1      -5.269   1.648 130.689  0.00  0.00    -0.458 OA
BRANCH  38  39
ATOM     39  C   LIG A   1      -4.423   0.665 131.114  0.00  0.00    +0.304 C 
ATOM     40  C   LIG A   1      -4.093   0.806 132.572  0.00  0.00    +0.136 C 
ATOM     41  O   LIG A   1      -3.929  -0.196 130.397  0.00  0.00    -0.251 OA
ENDBRANCH  38  39
ENDBRANCH  10  38
TORSDOF 6
ENDMDL
MODEL 5
REMARK VINA RESULT:      -9.0      2.628      4.637
REMARK  Name = NuBBE_610
REMARK  11 active torsions:
REMARK  status: ('A' for Active; 'I' for Inactive)
REMARK    1  A    between atoms: C_1  and  C_2
REMARK    2  A    between atoms: C_3  and  C_4
REMARK    3  A    between atoms: C_7  and  C_9
REMARK    4  A    between atoms: C_9  and  C_10
REMARK    5  A    between atoms: C_19  and  O_37
REMARK    6  A    between atoms: C_26  and  C_27
REMARK    7  A    between atoms: C_26  and  O_28
REMARK    8  A    between atoms: C_30  and  C_32
REMARK    9  A    between atoms: O_37  and  C_38
REMARK   10  A    between atoms: C_38  and  C_39
REMARK   11  A    between atoms: C_45  and  O_47
REMARK                            x       y       z     vdW  Elec       q    Type
REMARK                         _______ _______ _______ _____ _____    ______ ____
ROOT
ATOM      1  C   LIG A   1      -8.371   3.464 124.758  0.00  0.00    +0.041 C 
ATOM      2  C   LIG A   1      -7.319   3.053 125.752  0.00  0.00    -0.045 C 
ATOM      3  C   LIG A   1      -7.421   1.970 126.563  0.00  0.00    -0.065 C 
ATOM      4  C   LIG A   1      -8.606   1.063 126.703  0.00  0.00    +0.039 C 
ATOM      5  C   LIG A   1      -6.197   1.688 127.386  0.00  0.00    +0.054 C 
ATOM      6  C   LIG A   1      -5.998   0.462 128.295  0.00  0.00    +0.085 C 
ATOM      7  N   LIG A   1      -4.823   0.898 129.017  0.00  0.00    -0.311 N 
ATOM      8  H   LIG A   1      -4.122   0.290 129.426  0.00  0.00    +0.149 HD
ATOM      9  C   LIG A   1      -5.806   2.928 128.275  0.00  0.00    +0.103 C 
ATOM     10  C   LIG A   1      -6.807   3.183 129.497  0.00  0.00    +0.224 C 
ATOM     11  C   LIG A   1      -6.272   2.751 130.855  0.00  0.00    +0.192 C 
ATOM     12  C   LIG A   1      -5.309   3.462 131.826  0.00  0.00    +0.190 C 
ATOM     13  O   LIG A   1      -6.742   3.449 132.013  0.00  0.00    -0.361 OA
ATOM     14  C   LIG A   1      -4.693   4.853 131.938  0.00  0.00    +0.149 C 
ATOM     15  C   LIG A   1      -5.626   6.021 131.669  0.00  0.00    +0.052 C 
ATOM     16  C   LIG A   1      -3.282   4.899 131.278  0.00  0.00    +0.170 C 
ATOM     17  C   LIG A   1      -2.802   6.180 130.567  0.00  0.00    +0.059 C 
ATOM     18  C   LIG A   1      -1.422   6.546 131.129  0.00  0.00    +0.016 C 
ATOM     19  C   LIG A   1      -2.717   6.059 129.030  0.00  0.00    +0.037 C 
ATOM     20  C   LIG A   1      -4.055   5.786 128.400  0.00  0.00    -0.030 C 
ATOM     21  C   LIG A   1      -4.269   4.791 127.522  0.00  0.00    -0.024 C 
ATOM     22  O   LIG A   1      -2.493   3.958 131.445  0.00  0.00    -0.294 OA
ATOM     23  C   LIG A   1      -4.553   2.242 128.837  0.00  0.00    +0.224 C 
ATOM     24  O   LIG A   1      -3.481   2.730 129.159  0.00  0.00    -0.275 OA
ATOM     25  C   LIG A   1      -5.646   4.187 127.341  0.00  0.00    +0.063 C 
ATOM     26  C   LIG A   1      -6.048   3.919 125.848  0.00  0.00    +0.148 C 
ENDROOT
BRANCH  14  27
ATOM     27  O   LIG A   1      -4.370   5.053 133.349  0.00  0.00    -0.379 OA
ATOM     28  H   LIG A   1      -3.714   4.380 133.602  0.00  0.00    +0.211 HD
ENDBRANCH  14  27
BRANCH  26  29
ATOM     29  O   LIG A   1      -6.271   5.178 125.214  0.00  0.00    -0.387 OA
ATOM     30  H   LIG A   1      -5.844   5.139 124.342  0.00  0.00    +0.210 HD
ENDBRANCH  26  29
BRANCH   6  31
ATOM     31  C   LIG A   1      -5.737  -0.845 127.528  0.00  0.00    +0.058 C 
BRANCH  31  32
ATOM     32  C   LIG A   1      -6.830  -1.872 127.729  0.00  0.00    -0.046 A 
ATOM     33  C   LIG A   1      -7.497  -2.427 126.628  0.00  0.00    +0.003 A 
ATOM     34  C   LIG A   1      -8.505  -3.373 126.817  0.00  0.00    +0.000 A 
ATOM     35  C   LIG A   1      -8.870  -3.763 128.105  0.00  0.00    +0.000 A 
ATOM     36  C   LIG A   1      -8.222  -3.211 129.206  0.00  0.00    +0.000 A 
ATOM     37  C   LIG A   1      -7.203  -2.275 129.021  0.00  0.00    +0.003 A 
ENDBRANCH  31  32
ENDBRANCH   6  31
BRANCH  10  38
ATOM     38  O   LIG A   1      -7.321   4.522 129.639  0.00  0.00    -0.458 OA
BRANCH  38  39
ATOM     39  C   LIG A   1      -8.594   4.706 129.182  0.00  0.00    +0.304 C 
ATOM     40  C   LIG A   1      -9.601   3.994 130.038  0.00  0.00    +0.136 C 
ATOM     41  O   LIG A   1      -8.894   5.318 128.165  0.00  0.00    -0.251 OA
ENDBRANCH  38  39
ENDBRANCH  10  38
TORSDOF 6
ENDMDL
MODEL 6
REMARK VINA RESULT:      -8.6      3.160      6.513
REMARK  Name = NuBBE_610
REMARK  11 active torsions:
REMARK  status: ('A' for Active; 'I' for Inactive)
REMARK    1  A    between atoms: C_1  and  C_2
REMARK    2  A    between atoms: C_3  and  C_4
REMARK    3  A    between atoms: C_7  and  C_9
REMARK    4  A    between atoms: C_9  and  C_10
REMARK    5  A    between atoms: C_19  and  O_37
REMARK    6  A    between atoms: C_26  and  C_27
REMARK    7  A    between atoms: C_26  and  O_28
REMARK    8  A    between atoms: C_30  and  C_32
REMARK    9  A    between atoms: O_37  and  C_38
REMARK   10  A    between atoms: C_38  and  C_39
REMARK   11  A    between atoms: C_45  and  O_47
REMARK                            x       y       z     vdW  Elec       q    Type
REMARK                         _______ _______ _______ _____ _____    ______ ____
ROOT
ATOM      1  C   LIG A   1      -3.479   0.233 134.079  0.00  0.00    +0.041 C 
ATOM      2  C   LIG A   1      -4.764   0.408 133.318  0.00  0.00    -0.045 C 
ATOM      3  C   LIG A   1      -4.985  -0.084 132.074  0.00  0.00    -0.065 C 
ATOM      4  C   LIG A   1      -3.989  -0.783 131.196  0.00  0.00    +0.039 C 
ATOM      5  C   LIG A   1      -6.383   0.109 131.563  0.00  0.00    +0.054 C 
ATOM      6  C   LIG A   1      -6.935  -0.454 130.241  0.00  0.00    +0.085 C 
ATOM      7  N   LIG A   1      -8.169   0.298 130.167  0.00  0.00    -0.311 N 
ATOM      8  H   LIG A   1      -9.016  -0.003 129.698  0.00  0.00    +0.149 HD
ATOM      9  C   LIG A   1      -6.786   1.632 131.563  0.00  0.00    +0.103 C 
ATOM     10  C   LIG A   1      -6.047   2.491 130.434  0.00  0.00    +0.224 C 
ATOM     11  C   LIG A   1      -6.914   2.840 129.233  0.00  0.00    +0.192 C 
ATOM     12  C   LIG A   1      -7.959   3.957 129.040  0.00  0.00    +0.190 C 
ATOM     13  O   LIG A   1      -6.614   4.043 128.517  0.00  0.00    -0.361 OA
ATOM     14  C   LIG A   1      -8.393   5.199 129.812  0.00  0.00    +0.149 C 
ATOM     15  C   LIG A   1      -7.276   6.049 130.392  0.00  0.00    +0.052 C 
ATOM     16  C   LIG A   1      -9.610   4.891 130.736  0.00  0.00    +0.170 C 
ATOM     17  C   LIG A   1      -9.750   5.606 132.094  0.00  0.00    +0.059 C 
ATOM     18  C   LIG A   1     -11.157   6.213 132.168  0.00  0.00    +0.016 C 
ATOM     19  C   LIG A   1      -9.518   4.693 133.318  0.00  0.00    +0.037 C 
ATOM     20  C   LIG A   1      -8.126   4.128 133.359  0.00  0.00    -0.030 C 
ATOM     21  C   LIG A   1      -7.863   2.820 133.520  0.00  0.00    -0.024 C 
ATOM     22  O   LIG A   1     -10.536   4.179 130.318  0.00  0.00    -0.294 OA
ATOM     23  C   LIG A   1      -8.212   1.346 131.068  0.00  0.00    +0.224 C 
ATOM     24  O   LIG A   1      -9.253   1.931 131.322  0.00  0.00    -0.275 OA
ATOM     25  C   LIG A   1      -6.572   2.210 133.012  0.00  0.00    +0.063 C 
ATOM     26  C   LIG A   1      -5.899   1.196 134.003  0.00  0.00    +0.148 C 
ENDROOT
BRANCH  14  27
ATOM     27  O   LIG A   1      -8.982   6.111 128.835  0.00  0.00    -0.379 OA
ATOM     28  H   LIG A   1      -8.395   6.883 128.759  0.00  0.00    +0.211 HD
ENDBRANCH  14  27
BRANCH  26  29
ATOM     29  O   LIG A   1      -5.378   1.932 135.109  0.00  0.00    -0.387 OA
ATOM     30  H   LIG A   1      -5.971   2.688 135.254  0.00  0.00    +0.210 HD
ENDBRANCH  26  29
BRANCH   6  31
ATOM     31  C   LIG A   1      -7.198  -1.968 130.272  0.00  0.00    +0.058 C 
BRANCH  31  32
ATOM     32  C   LIG A   1      -7.699  -2.504 128.948  0.00  0.00    -0.046 A 
ATOM     33  C   LIG A   1      -7.233  -1.968 127.740  0.00  0.00    +0.003 A 
ATOM     34  C   LIG A   1      -7.697  -2.463 126.521  0.00  0.00    +0.000 A 
ATOM     35  C   LIG A   1      -8.643  -3.487 126.494  0.00  0.00    +0.000 A 
ATOM     36  C   LIG A   1      -9.121  -4.020 127.688  0.00  0.00    +0.000 A 
ATOM     37  C   LIG A   1      -8.648  -3.537 128.909  0.00  0.00    +0.003 A 
ENDBRANCH  31  32
ENDBRANCH   6  31
BRANCH  10  38
ATOM     38  O   LIG A   1      -5.401   3.704 130.870  0.00  0.00    -0.458 OA
BRANCH  38  39
ATOM     39  C   LIG A   1      -4.043   3.722 130.727  0.00  0.00    +0.304 C 
ATOM     40  C   LIG A   1      -3.344   3.617 132.052  0.00  0.00    +0.136 C 
ATOM     41  O   LIG A   1      -3.449   3.871 129.667  0.00  0.00    -0.251 OA
ENDBRANCH  38  39
ENDBRANCH  10  38
TORSDOF 6
ENDMDL
MODEL 7
REMARK VINA RESULT:      -8.6      3.179      5.639
REMARK  Name = NuBBE_610
REMARK  11 active torsions:
REMARK  status: ('A' for Active; 'I' for Inactive)
REMARK    1  A    between atoms: C_1  and  C_2
REMARK    2  A    between atoms: C_3  and  C_4
REMARK    3  A    between atoms: C_7  and  C_9
REMARK    4  A    between atoms: C_9  and  C_10
REMARK    5  A    between atoms: C_19  and  O_37
REMARK    6  A    between atoms: C_26  and  C_27
REMARK    7  A    between atoms: C_26  and  O_28
REMARK    8  A    between atoms: C_30  and  C_32
REMARK    9  A    between atoms: O_37  and  C_38
REMARK   10  A    between atoms: C_38  and  C_39
REMARK   11  A    between atoms: C_45  and  O_47
REMARK                            x       y       z     vdW  Elec       q    Type
REMARK                         _______ _______ _______ _____ _____    ______ ____
ROOT
ATOM      1  C   LIG A   1      -5.680   4.964 125.624  0.00  0.00    +0.041 C 
ATOM      2  C   LIG A   1      -5.770   4.151 126.886  0.00  0.00    -0.045 C 
ATOM      3  C   LIG A   1      -6.531   3.036 127.020  0.00  0.00    -0.065 C 
ATOM      4  C   LIG A   1      -7.483   2.473 126.008  0.00  0.00    +0.039 C 
ATOM      5  C   LIG A   1      -6.368   2.322 128.331  0.00  0.00    +0.054 C 
ATOM      6  C   LIG A   1      -7.016   0.975 128.698  0.00  0.00    +0.085 C 
ATOM      7  N   LIG A   1      -6.754   0.973 130.120  0.00  0.00    -0.311 N 
ATOM      8  H   LIG A   1      -6.650   0.147 130.700  0.00  0.00    +0.149 HD
ATOM      9  C   LIG A   1      -6.683   3.275 129.544  0.00  0.00    +0.103 C 
ATOM     10  C   LIG A   1      -8.237   3.621 129.703  0.00  0.00    +0.224 C 
ATOM     11  C   LIG A   1      -8.940   2.878 130.830  0.00  0.00    +0.192 C 
ATOM     12  C   LIG A   1      -8.983   3.161 132.345  0.00  0.00    +0.190 C 
ATOM     13  O   LIG A   1     -10.064   3.511 131.451  0.00  0.00    -0.361 OA
ATOM     14  C   LIG A   1      -8.555   4.303 133.260  0.00  0.00    +0.149 C 
ATOM     15  C   LIG A   1      -8.874   5.706 132.772  0.00  0.00    +0.052 C 
ATOM     16  C   LIG A   1      -7.130   4.056 133.842  0.00  0.00    +0.170 C 
ATOM     17  C   LIG A   1      -6.182   5.244 134.098  0.00  0.00    +0.059 C 
ATOM     18  C   LIG A   1      -5.671   5.141 135.540  0.00  0.00    +0.016 C 
ATOM     19  C   LIG A   1      -4.981   5.317 133.129  0.00  0.00    +0.037 C 
ATOM     20  C   LIG A   1      -5.406   5.506 131.699  0.00  0.00    -0.030 C 
ATOM     21  C   LIG A   1      -4.964   4.737 130.690  0.00  0.00    -0.024 C 
ATOM     22  O   LIG A   1      -6.812   2.922 134.230  0.00  0.00    -0.294 OA
ATOM     23  C   LIG A   1      -6.337   2.204 130.590  0.00  0.00    +0.224 C 
ATOM     24  O   LIG A   1      -5.839   2.334 131.696  0.00  0.00    -0.275 OA
ATOM     25  C   LIG A   1      -5.779   4.559 129.424  0.00  0.00    +0.063 C 
ATOM     26  C   LIG A   1      -4.941   4.619 128.099  0.00  0.00    +0.148 C 
ENDROOT
BRANCH  14  27
ATOM     27  O   LIG A   1      -9.387   4.212 134.457  0.00  0.00    -0.379 OA
ATOM     28  H   LIG A   1      -9.949   3.423 134.369  0.00  0.00    +0.211 HD
ENDBRANCH  14  27
BRANCH  26  29
ATOM     29  O   LIG A   1      -4.513   5.966 127.902  0.00  0.00    -0.387 OA
ATOM     30  H   LIG A   1      -5.206   6.542 128.264  0.00  0.00    +0.210 HD
ENDBRANCH  26  29
BRANCH   6  31
ATOM     31  C   LIG A   1      -6.371  -0.236 128.004  0.00  0.00    +0.058 C 
BRANCH  31  32
ATOM     32  C   LIG A   1      -7.301  -1.427 127.917  0.00  0.00    -0.046 A 
ATOM     33  C   LIG A   1      -7.494  -2.261 129.026  0.00  0.00    +0.003 A 
ATOM     34  C   LIG A   1      -8.352  -3.359 128.944  0.00  0.00    +0.000 A 
ATOM     35  C   LIG A   1      -9.013  -3.645 127.750  0.00  0.00    +0.000 A 
ATOM     36  C   LIG A   1      -8.821  -2.828 126.638  0.00  0.00    +0.000 A 
ATOM     37  C   LIG A   1      -7.975  -1.722 126.722  0.00  0.00    +0.003 A 
ENDBRANCH  31  32
ENDBRANCH   6  31
BRANCH  10  38
ATOM     38  O   LIG A   1      -8.576   5.016 129.825  0.00  0.00    -0.458 OA
BRANCH  38  39
ATOM     39  C   LIG A   1      -9.267   5.541 128.772  0.00  0.00    +0.304 C 
ATOM     40  C   LIG A   1     -10.449   6.348 129.228  0.00  0.00    +0.136 C 
ATOM     41  O   LIG A   1      -9.012   5.337 127.592  0.00  0.00    -0.251 OA
ENDBRANCH  38  39
ENDBRANCH  10  38
TORSDOF 6
ENDMDL
MODEL 8
REMARK VINA RESULT:      -8.6      2.755      5.368
REMARK  Name = NuBBE_610
REMARK  11 active torsions:
REMARK  status: ('A' for Active; 'I' for Inactive)
REMARK    1  A    between atoms: C_1  and  C_2
REMARK    2  A    between atoms: C_3  and  C_4
REMARK    3  A    between atoms: C_7  and  C_9
REMARK    4  A    between atoms: C_9  and  C_10
REMARK    5  A    between atoms: C_19  and  O_37
REMARK    6  A    between atoms: C_26  and  C_27
REMARK    7  A    between atoms: C_26  and  O_28
REMARK    8  A    between atoms: C_30  and  C_32
REMARK    9  A    between atoms: O_37  and  C_38
REMARK   10  A    between atoms: C_38  and  C_39
REMARK   11  A    between atoms: C_45  and  O_47
REMARK                            x       y       z     vdW  Elec       q    Type
REMARK                         _______ _______ _______ _____ _____    ______ ____
ROOT
ATOM      1  C   LIG A   1      -5.185   4.230 124.612  0.00  0.00    +0.041 C 
ATOM      2  C   LIG A   1      -5.158   3.115 125.622  0.00  0.00    -0.045 C 
ATOM      3  C   LIG A   1      -5.973   2.032 125.580  0.00  0.00    -0.065 C 
ATOM      4  C   LIG A   1      -7.097   1.792 124.617  0.00  0.00    +0.039 C 
ATOM      5  C   LIG A   1      -5.683   0.991 126.622  0.00  0.00    +0.054 C 
ATOM      6  C   LIG A   1      -6.372  -0.381 126.727  0.00  0.00    +0.085 C 
ATOM      7  N   LIG A   1      -5.915  -0.770 128.043  0.00  0.00    -0.311 N 
ATOM      8  H   LIG A   1      -5.792  -1.724 128.368  0.00  0.00    +0.149 HD
ATOM      9  C   LIG A   1      -5.753   1.599 128.074  0.00  0.00    +0.103 C 
ATOM     10  C   LIG A   1      -7.239   1.944 128.554  0.00  0.00    +0.224 C 
ATOM     11  C   LIG A   1      -7.832   0.955 129.547  0.00  0.00    +0.192 C 
ATOM     12  C   LIG A   1      -7.641   0.827 131.071  0.00  0.00    +0.190 C 
ATOM     13  O   LIG A   1      -8.807   1.439 130.475  0.00  0.00    -0.361 OA
ATOM     14  C   LIG A   1      -7.005   1.670 132.172  0.00  0.00    +0.149 C 
ATOM     15  C   LIG A   1      -7.284   3.162 132.115  0.00  0.00    +0.052 C 
ATOM     16  C   LIG A   1      -5.536   1.227 132.443  0.00  0.00    +0.170 C 
ATOM     17  C   LIG A   1      -4.475   2.270 132.846  0.00  0.00    +0.059 C 
ATOM     18  C   LIG A   1      -3.777   1.771 134.117  0.00  0.00    +0.016 C 
ATOM     19  C   LIG A   1      -3.419   2.555 131.755  0.00  0.00    +0.037 C 
ATOM     20  C   LIG A   1      -4.024   3.131 130.505  0.00  0.00    -0.030 C 
ATOM     21  C   LIG A   1      -3.787   2.643 129.277  0.00  0.00    -0.024 C 
ATOM     22  O   LIG A   1      -5.252   0.020 132.473  0.00  0.00    -0.294 OA
ATOM     23  C   LIG A   1      -5.345   0.277 128.743  0.00  0.00    +0.224 C 
ATOM     24  O   LIG A   1      -4.689   0.091 129.755  0.00  0.00    -0.275 OA
ATOM     25  C   LIG A   1      -4.781   2.836 128.149  0.00  0.00    +0.063 C 
ATOM     26  C   LIG A   1      -4.135   3.215 126.771  0.00  0.00    +0.148 C 
ENDROOT
BRANCH  14  27
ATOM     27  O   LIG A   1      -7.667   1.294 133.419  0.00  0.00    -0.379 OA
ATOM     28  H   LIG A   1      -8.572   1.011 133.202  0.00  0.00    +0.211 HD
ENDBRANCH  14  27
BRANCH  26  29
ATOM     29  O   LIG A   1      -3.639   4.550 126.863  0.00  0.00    -0.387 OA
ATOM     30  H   LIG A   1      -2.858   4.606 126.287  0.00  0.00    +0.210 HD
ENDBRANCH  26  29
BRANCH   6  31
ATOM     31  C   LIG A   1      -5.922  -1.387 125.653  0.00  0.00    +0.058 C 
BRANCH  31  32
ATOM     32  C   LIG A   1      -7.079  -1.954 124.860  0.00  0.00    -0.046 A 
ATOM     33  C   LIG A   1      -8.062  -2.730 125.489  0.00  0.00    +0.003 A 
ATOM     34  C   LIG A   1      -9.128  -3.253 124.755  0.00  0.00    +0.000 A 
ATOM     35  C   LIG A   1      -9.215  -3.020 123.383  0.00  0.00    +0.000 A 
ATOM     36  C   LIG A   1      -8.239  -2.259 122.745  0.00  0.00    +0.000 A 
ATOM     37  C   LIG A   1      -7.180  -1.723 123.479  0.00  0.00    +0.003 A 
ENDBRANCH  31  32
ENDBRANCH   6  31
BRANCH  10  38
ATOM     38  O   LIG A   1      -7.453   3.269 129.081  0.00  0.00    -0.458 OA
BRANCH  38  39
ATOM     39  C   LIG A   1      -8.216   4.088 128.301  0.00  0.00    +0.304 C 
ATOM     40  C   LIG A   1      -8.947   5.113 129.120  0.00  0.00    +0.136 C 
ATOM     41  O   LIG A   1      -8.352   3.979 127.090  0.00  0.00    -0.251 OA
ENDBRANCH  38  39
ENDBRANCH  10  38
TORSDOF 6
ENDMDL
MODEL 9
REMARK VINA RESULT:      -8.6      2.093      6.647
REMARK  Name = NuBBE_610
REMARK  11 active torsions:
REMARK  status: ('A' for Active; 'I' for Inactive)
REMARK    1  A    between atoms: C_1  and  C_2
REMARK    2  A    between atoms: C_3  and  C_4
REMARK    3  A    between atoms: C_7  and  C_9
REMARK    4  A    between atoms: C_9  and  C_10
REMARK    5  A    between atoms: C_19  and  O_37
REMARK    6  A    between atoms: C_26  and  C_27
REMARK    7  A    between atoms: C_26  and  O_28
REMARK    8  A    between atoms: C_30  and  C_32
REMARK    9  A    between atoms: O_37  and  C_38
REMARK   10  A    between atoms: C_38  and  C_39
REMARK   11  A    between atoms: C_45  and  O_47
REMARK                            x       y       z     vdW  Elec       q    Type
REMARK                         _______ _______ _______ _____ _____    ______ ____
ROOT
ATOM      1  C   LIG A   1      -7.994   4.963 125.958  0.00  0.00    +0.041 C 
ATOM      2  C   LIG A   1      -7.113   4.122 126.842  0.00  0.00    -0.045 C 
ATOM      3  C   LIG A   1      -5.907   3.628 126.466  0.00  0.00    -0.065 C 
ATOM      4  C   LIG A   1      -5.282   3.725 125.107  0.00  0.00    +0.039 C 
ATOM      5  C   LIG A   1      -5.154   2.921 127.555  0.00  0.00    +0.054 C 
ATOM      6  C   LIG A   1      -3.721   2.373 127.437  0.00  0.00    +0.085 C 
ATOM      7  N   LIG A   1      -3.680   1.571 128.640  0.00  0.00    -0.311 N 
ATOM      8  H   LIG A   1      -2.845   1.344 129.170  0.00  0.00    +0.149 HD
ATOM      9  C   LIG A   1      -6.000   1.737 128.160  0.00  0.00    +0.103 C 
ATOM     10  C   LIG A   1      -6.142   0.483 127.177  0.00  0.00    +0.224 C 
ATOM     11  C   LIG A   1      -5.262  -0.707 127.535  0.00  0.00    +0.192 C 
ATOM     12  C   LIG A   1      -5.462  -1.824 128.578  0.00  0.00    +0.190 C 
ATOM     13  O   LIG A   1      -5.719  -2.013 127.168  0.00  0.00    -0.361 OA
ATOM     14  C   LIG A   1      -6.601  -2.298 129.475  0.00  0.00    +0.149 C 
ATOM     15  C   LIG A   1      -7.976  -2.358 128.832  0.00  0.00    +0.052 C 
ATOM     16  C   LIG A   1      -6.503  -1.662 130.894  0.00  0.00    +0.170 C 
ATOM     17  C   LIG A   1      -7.784  -1.314 131.676  0.00  0.00    +0.059 C 
ATOM     18  C   LIG A   1      -7.673  -1.941 133.072  0.00  0.00    +0.016 C 
ATOM     19  C   LIG A   1      -8.054   0.201 131.812  0.00  0.00    +0.037 C 
ATOM     20  C   LIG A   1      -8.260   0.870 130.481  0.00  0.00    -0.030 C 
ATOM     21  C   LIG A   1      -7.603   1.979 130.102  0.00  0.00    -0.024 C 
ATOM     22  O   LIG A   1      -5.399  -1.565 131.451  0.00  0.00    -0.294 OA
ATOM     23  C   LIG A   1      -4.929   1.388 129.204  0.00  0.00    +0.224 C 
ATOM     24  O   LIG A   1      -5.063   0.956 130.338  0.00  0.00    -0.275 OA
ATOM     25  C   LIG A   1      -7.390   2.303 128.637  0.00  0.00    +0.063 C 
ATOM     26  C   LIG A   1      -7.619   3.810 128.265  0.00  0.00    +0.148 C 
ENDROOT
BRANCH  14  27
ATOM     27  O   LIG A   1      -6.348  -3.708 129.760  0.00  0.00    -0.379 OA
ATOM     28  H   LIG A   1      -5.425  -3.899 129.518  0.00  0.00    +0.211 HD
ENDBRANCH  14  27
BRANCH  26  29
ATOM     29  O   LIG A   1      -9.017   4.084 128.353  0.00  0.00    -0.387 OA
ATOM     30  H   LIG A   1      -9.482   3.241 128.222  0.00  0.00    +0.210 HD
ENDBRANCH  26  29
BRANCH   6  31
ATOM     31  C   LIG A   1      -2.636   3.462 127.448  0.00  0.00    +0.058 C 
BRANCH  31  32
ATOM     32  C   LIG A   1      -3.005   4.650 128.309  0.00  0.00    -0.046 A 
ATOM     33  C   LIG A   1      -3.334   5.880 127.722  0.00  0.00    +0.003 A 
ATOM     34  C   LIG A   1      -3.674   6.974 128.519  0.00  0.00    +0.000 A 
ATOM     35  C   LIG A   1      -3.674   6.858 129.909  0.00  0.00    +0.000 A 
ATOM     36  C   LIG A   1      -3.339   5.643 130.502  0.00  0.00    +0.000 A 
ATOM     37  C   LIG A   1      -3.012   4.543 129.708  0.00  0.00    +0.003 A 
ENDBRANCH  31  32
ENDBRANCH   6  31
BRANCH  10  38
ATOM     38  O   LIG A   1      -7.477  -0.015 126.959  0.00  0.00    -0.458 OA
BRANCH  38  39
ATOM     39  C   LIG A   1      -8.006   0.260 125.731  0.00  0.00    +0.304 C 
ATOM     40  C   LIG A   1      -9.388   0.837 125.838  0.00  0.00    +0.136 C 
ATOM     41  O   LIG A   1      -7.465   0.013 124.661  0.00  0.00    -0.251 OA
ENDBRANCH  38  39
ENDBRANCH  10  38
TORSDOF 6
ENDMDL
