MODEL 1
REMARK VINA RESULT:      -7.2      0.000      0.000
REMARK  Name = NuBBE_158
REMARK  9 active torsions:
REMARK  status: ('A' for Active; 'I' for Inactive)
REMARK    1  A    between atoms: C_2  and  O_3
REMARK    2  A    between atoms: C_2  and  C_5
REMARK    3  A    between atoms: O_3  and  C_4
REMARK    4  A    between atoms: C_7  and  C_8
REMARK    5  A    between atoms: C_8  and  C_9
REMARK    6  A    between atoms: C_10  and  C_11
REMARK    7  A    between atoms: C_10  and  C_12
REMARK    8  A    between atoms: C_15  and  C_16
REMARK    9  A    between atoms: C_15  and  C_17
REMARK                            x       y       z     vdW  Elec       q    Type
REMARK                         _______ _______ _______ _____ _____    ______ ____
ROOT
ATOM      1  C   LIG A   1      -8.679   1.170 125.321  0.00  0.00    +0.060 A 
ATOM      2  C   LIG A   1      -8.766  -0.093 124.725  0.00  0.00    +0.022 A 
ATOM      3  C   LIG A   1      -8.440  -1.251 125.448  0.00  0.00    -0.001 A 
ATOM      4  C   LIG A   1      -8.064  -1.130 126.799  0.00  0.00    +0.128 A 
ATOM      5  O   LIG A   1      -7.785  -2.297 127.461  0.00  0.00    -0.486 OA
ATOM      6  C   LIG A   1      -7.165  -2.198 128.755  0.00  0.00    +0.105 C 
ATOM      7  C   LIG A   1      -5.644  -2.076 128.574  0.00  0.00    +0.055 C 
ATOM      8  C   LIG A   1      -7.468  -3.527 129.462  0.00  0.00    +0.055 C 
ATOM      9  C   LIG A   1      -7.760  -1.050 129.580  0.00  0.00    +0.052 C 
ATOM     10  C   LIG A   1      -7.601   0.275 128.852  0.00  0.00    +0.043 C 
ATOM     11  C   LIG A   1      -8.005   0.130 127.412  0.00  0.00    -0.004 A 
ATOM     12  C   LIG A   1      -8.294   1.278 126.661  0.00  0.00    +0.022 A 
ENDROOT
BRANCH   1  14
ATOM     13  O   LIG A   1      -8.962   3.526 125.053  0.00  0.00    -0.245 OA
ATOM     14  C   LIG A   1      -9.010   2.404 124.568  0.00  0.00    +0.339 C 
BRANCH  14  15
ATOM     15  O   LIG A   1      -9.343   2.084 123.296  0.00  0.00    -0.465 OA
ATOM     16  C   LIG A   1      -8.748   2.874 122.264  0.00  0.00    +0.280 C 
ENDBRANCH  14  15
ENDBRANCH   1  14
BRANCH   3  17
ATOM     17  C   LIG A   1      -8.500  -2.592 124.745  0.00  0.00    +0.066 C 
BRANCH  17  18
ATOM     18  C   LIG A   1      -7.147  -3.236 124.606  0.00  0.00    -0.023 C 
ATOM     19  C   LIG A   1      -6.176  -2.957 123.712  0.00  0.00    -0.079 C 
ATOM     20  C   LIG A   1      -6.253  -1.907 122.637  0.00  0.00    +0.038 C 
ATOM     21  C   LIG A   1      -4.882  -3.729 123.728  0.00  0.00    +0.038 C 
ENDBRANCH  17  18
ENDBRANCH   3  17
TORSDOF 4
ENDMDL
MODEL 2
REMARK VINA RESULT:      -7.1      3.264      5.613
REMARK  Name = NuBBE_158
REMARK  9 active torsions:
REMARK  status: ('A' for Active; 'I' for Inactive)
REMARK    1  A    between atoms: C_2  and  O_3
REMARK    2  A    between atoms: C_2  and  C_5
REMARK    3  A    between atoms: O_3  and  C_4
REMARK    4  A    between atoms: C_7  and  C_8
REMARK    5  A    between atoms: C_8  and  C_9
REMARK    6  A    between atoms: C_10  and  C_11
REMARK    7  A    between atoms: C_10  and  C_12
REMARK    8  A    between atoms: C_15  and  C_16
REMARK    9  A    between atoms: C_15  and  C_17
REMARK                            x       y       z     vdW  Elec       q    Type
REMARK                         _______ _______ _______ _____ _____    ______ ____
ROOT
ATOM      1  C   LIG A   1      -5.188   2.115 126.020  0.00  0.00    +0.060 A 
ATOM      2  C   LIG A   1      -5.966   2.656 124.991  0.00  0.00    +0.022 A 
ATOM      3  C   LIG A   1      -6.715   1.823 124.144  0.00  0.00    -0.001 A 
ATOM      4  C   LIG A   1      -6.707   0.434 124.370  0.00  0.00    +0.128 A 
ATOM      5  O   LIG A   1      -7.478  -0.325 123.530  0.00  0.00    -0.486 OA
ATOM      6  C   LIG A   1      -7.304  -1.752 123.570  0.00  0.00    +0.105 C 
ATOM      7  C   LIG A   1      -6.134  -2.140 122.654  0.00  0.00    +0.055 C 
ATOM      8  C   LIG A   1      -8.597  -2.344 122.989  0.00  0.00    +0.055 C 
ATOM      9  C   LIG A   1      -7.129  -2.258 125.007  0.00  0.00    +0.052 C 
ATOM     10  C   LIG A   1      -5.933  -1.594 125.670  0.00  0.00    +0.043 C 
ATOM     11  C   LIG A   1      -5.954  -0.113 125.420  0.00  0.00    -0.004 A 
ATOM     12  C   LIG A   1      -5.180   0.732 126.228  0.00  0.00    +0.022 A 
ENDROOT
BRANCH   1  14
ATOM     13  O   LIG A   1      -4.613   3.116 128.111  0.00  0.00    -0.245 OA
ATOM     14  C   LIG A   1      -4.383   2.979 126.917  0.00  0.00    +0.339 C 
BRANCH  14  15
ATOM     15  O   LIG A   1      -3.380   3.553 126.213  0.00  0.00    -0.465 OA
ATOM     16  C   LIG A   1      -2.050   3.229 126.622  0.00  0.00    +0.280 C 
ENDBRANCH  14  15
ENDBRANCH   1  14
BRANCH   3  17
ATOM     17  C   LIG A   1      -7.501   2.451 123.011  0.00  0.00    +0.066 C 
BRANCH  17  18
ATOM     18  C   LIG A   1      -6.627   3.200 122.042  0.00  0.00    -0.023 C 
ATOM     19  C   LIG A   1      -6.987   3.826 120.902  0.00  0.00    -0.079 C 
ATOM     20  C   LIG A   1      -8.385   3.906 120.353  0.00  0.00    +0.038 C 
ATOM     21  C   LIG A   1      -5.951   4.517 120.054  0.00  0.00    +0.038 C 
ENDBRANCH  17  18
ENDBRANCH   3  17
TORSDOF 4
ENDMDL
MODEL 3
REMARK VINA RESULT:      -7.0      3.116      5.021
REMARK  Name = NuBBE_158
REMARK  9 active torsions:
REMARK  status: ('A' for Active; 'I' for Inactive)
REMARK    1  A    between atoms: C_2  and  O_3
REMARK    2  A    between atoms: C_2  and  C_5
REMARK    3  A    between atoms: O_3  and  C_4
REMARK    4  A    between atoms: C_7  and  C_8
REMARK    5  A    between atoms: C_8  and  C_9
REMARK    6  A    between atoms: C_10  and  C_11
REMARK    7  A    between atoms: C_10  and  C_12
REMARK    8  A    between atoms: C_15  and  C_16
REMARK    9  A    between atoms: C_15  and  C_17
REMARK                            x       y       z     vdW  Elec       q    Type
REMARK                         _______ _______ _______ _____ _____    ______ ____
ROOT
ATOM      1  C   LIG A   1      -5.153   1.820 126.220  0.00  0.00    +0.060 A 
ATOM      2  C   LIG A   1      -5.430   0.449 126.246  0.00  0.00    +0.022 A 
ATOM      3  C   LIG A   1      -6.515  -0.078 125.527  0.00  0.00    -0.001 A 
ATOM      4  C   LIG A   1      -7.299   0.788 124.743  0.00  0.00    +0.128 A 
ATOM      5  O   LIG A   1      -8.326   0.214 124.042  0.00  0.00    -0.486 OA
ATOM      6  C   LIG A   1      -9.291   1.089 123.432  0.00  0.00    +0.105 C 
ATOM      7  C   LIG A   1     -10.362   1.455 124.471  0.00  0.00    +0.055 C 
ATOM      8  C   LIG A   1      -9.952   0.266 122.317  0.00  0.00    +0.055 C 
ATOM      9  C   LIG A   1      -8.621   2.320 122.809  0.00  0.00    +0.052 C 
ATOM     10  C   LIG A   1      -7.840   3.096 123.857  0.00  0.00    +0.043 C 
ATOM     11  C   LIG A   1      -7.008   2.159 124.686  0.00  0.00    -0.004 A 
ATOM     12  C   LIG A   1      -5.946   2.672 125.445  0.00  0.00    +0.022 A 
ENDROOT
BRANCH   1  14
ATOM     13  O   LIG A   1      -3.917   2.330 128.199  0.00  0.00    -0.245 OA
ATOM     14  C   LIG A   1      -4.017   2.394 126.982  0.00  0.00    +0.339 C 
BRANCH  14  15
ATOM     15  O   LIG A   1      -3.138   2.962 126.125  0.00  0.00    -0.465 OA
ATOM     16  C   LIG A   1      -1.800   3.125 126.600  0.00  0.00    +0.280 C 
ENDBRANCH  14  15
ENDBRANCH   1  14
BRANCH   3  17
ATOM     17  C   LIG A   1      -6.806  -1.561 125.627  0.00  0.00    +0.066 C 
BRANCH  17  18
ATOM     18  C   LIG A   1      -5.700  -2.410 125.060  0.00  0.00    -0.023 C 
ATOM     19  C   LIG A   1      -5.415  -2.657 123.765  0.00  0.00    -0.079 C 
ATOM     20  C   LIG A   1      -6.172  -2.112 122.584  0.00  0.00    +0.038 C 
ATOM     21  C   LIG A   1      -4.260  -3.552 123.397  0.00  0.00    +0.038 C 
ENDBRANCH  17  18
ENDBRANCH   3  17
TORSDOF 4
ENDMDL
MODEL 4
REMARK VINA RESULT:      -6.9      3.204      4.496
REMARK  Name = NuBBE_158
REMARK  9 active torsions:
REMARK  status: ('A' for Active; 'I' for Inactive)
REMARK    1  A    between atoms: C_2  and  O_3
REMARK    2  A    between atoms: C_2  and  C_5
REMARK    3  A    between atoms: O_3  and  C_4
REMARK    4  A    between atoms: C_7  and  C_8
REMARK    5  A    between atoms: C_8  and  C_9
REMARK    6  A    between atoms: C_10  and  C_11
REMARK    7  A    between atoms: C_10  and  C_12
REMARK    8  A    between atoms: C_15  and  C_16
REMARK    9  A    between atoms: C_15  and  C_17
REMARK                            x       y       z     vdW  Elec       q    Type
REMARK                         _______ _______ _______ _____ _____    ______ ____
ROOT
ATOM      1  C   LIG A   1      -5.941   3.699 122.399  0.00  0.00    +0.060 A 
ATOM      2  C   LIG A   1      -6.722   2.545 122.526  0.00  0.00    +0.022 A 
ATOM      3  C   LIG A   1      -6.978   1.987 123.789  0.00  0.00    -0.001 A 
ATOM      4  C   LIG A   1      -6.472   2.629 124.934  0.00  0.00    +0.128 A 
ATOM      5  O   LIG A   1      -6.777   2.054 126.140  0.00  0.00    -0.486 OA
ATOM      6  C   LIG A   1      -6.080   2.533 127.303  0.00  0.00    +0.105 C 
ATOM      7  C   LIG A   1      -4.739   1.792 127.424  0.00  0.00    +0.055 C 
ATOM      8  C   LIG A   1      -6.960   2.148 128.501  0.00  0.00    +0.055 C 
ATOM      9  C   LIG A   1      -5.917   4.057 127.276  0.00  0.00    +0.052 C 
ATOM     10  C   LIG A   1      -5.164   4.497 126.031  0.00  0.00    +0.043 C 
ATOM     11  C   LIG A   1      -5.714   3.804 124.817  0.00  0.00    -0.004 A 
ATOM     12  C   LIG A   1      -5.435   4.322 123.544  0.00  0.00    +0.022 A 
ENDROOT
BRANCH   1  14
ATOM     13  O   LIG A   1      -4.920   5.260 120.908  0.00  0.00    -0.245 OA
ATOM     14  C   LIG A   1      -5.654   4.296 121.072  0.00  0.00    +0.339 C 
BRANCH  14  15
ATOM     15  O   LIG A   1      -6.306   3.600 120.111  0.00  0.00    -0.465 OA
ATOM     16  C   LIG A   1      -7.196   4.347 119.279  0.00  0.00    +0.280 C 
ENDBRANCH  14  15
ENDBRANCH   1  14
BRANCH   3  17
ATOM     17  C   LIG A   1      -7.786   0.708 123.872  0.00  0.00    +0.066 C 
BRANCH  17  18
ATOM     18  C   LIG A   1      -7.060  -0.476 123.294  0.00  0.00    -0.023 C 
ATOM     19  C   LIG A   1      -6.207  -1.318 123.914  0.00  0.00    -0.079 C 
ATOM     20  C   LIG A   1      -5.796  -1.239 125.359  0.00  0.00    +0.038 C 
ATOM     21  C   LIG A   1      -5.567  -2.450 123.153  0.00  0.00    +0.038 C 
ENDBRANCH  17  18
ENDBRANCH   3  17
TORSDOF 4
ENDMDL
MODEL 5
REMARK VINA RESULT:      -6.9      9.191     10.873
REMARK  Name = NuBBE_158
REMARK  9 active torsions:
REMARK  status: ('A' for Active; 'I' for Inactive)
REMARK    1  A    between atoms: C_2  and  O_3
REMARK    2  A    between atoms: C_2  and  C_5
REMARK    3  A    between atoms: O_3  and  C_4
REMARK    4  A    between atoms: C_7  and  C_8
REMARK    5  A    between atoms: C_8  and  C_9
REMARK    6  A    between atoms: C_10  and  C_11
REMARK    7  A    between atoms: C_10  and  C_12
REMARK    8  A    between atoms: C_15  and  C_16
REMARK    9  A    between atoms: C_15  and  C_17
REMARK                            x       y       z     vdW  Elec       q    Type
REMARK                         _______ _______ _______ _____ _____    ______ ____
ROOT
ATOM      1  C   LIG A   1      -8.168   6.606 131.422  0.00  0.00    +0.060 A 
ATOM      2  C   LIG A   1      -8.122   5.871 132.612  0.00  0.00    +0.022 A 
ATOM      3  C   LIG A   1      -6.893   5.566 133.219  0.00  0.00    -0.001 A 
ATOM      4  C   LIG A   1      -5.706   6.045 132.636  0.00  0.00    +0.128 A 
ATOM      5  O   LIG A   1      -4.540   5.738 133.288  0.00  0.00    -0.486 OA
ATOM      6  C   LIG A   1      -3.303   5.994 132.601  0.00  0.00    +0.105 C 
ATOM      7  C   LIG A   1      -2.974   4.795 131.698  0.00  0.00    +0.055 C 
ATOM      8  C   LIG A   1      -2.232   6.089 133.697  0.00  0.00    +0.055 C 
ATOM      9  C   LIG A   1      -3.348   7.322 131.834  0.00  0.00    +0.052 C 
ATOM     10  C   LIG A   1      -4.485   7.323 130.825  0.00  0.00    +0.043 C 
ATOM     11  C   LIG A   1      -5.745   6.809 131.461  0.00  0.00    -0.004 A 
ATOM     12  C   LIG A   1      -6.980   7.068 130.847  0.00  0.00    +0.022 A 
ENDROOT
BRANCH   1  14
ATOM     13  O   LIG A   1     -10.544   6.560 131.183  0.00  0.00    -0.245 OA
ATOM     14  C   LIG A   1      -9.456   6.929 130.762  0.00  0.00    +0.339 C 
BRANCH  14  15
ATOM     15  O   LIG A   1      -9.226   7.689 129.666  0.00  0.00    -0.465 OA
ATOM     16  C   LIG A   1     -10.360   7.990 128.850  0.00  0.00    +0.280 C 
ENDBRANCH  14  15
ENDBRANCH   1  14
BRANCH   3  17
ATOM     17  C   LIG A   1      -6.891   4.724 134.478  0.00  0.00    +0.066 C 
BRANCH  17  18
ATOM     18  C   LIG A   1      -7.671   5.355 135.600  0.00  0.00    -0.023 C 
ATOM     19  C   LIG A   1      -7.237   6.231 136.531  0.00  0.00    -0.079 C 
ATOM     20  C   LIG A   1      -5.838   6.774 136.636  0.00  0.00    +0.038 C 
ATOM     21  C   LIG A   1      -8.178   6.745 137.589  0.00  0.00    +0.038 C 
ENDBRANCH  17  18
ENDBRANCH   3  17
TORSDOF 4
ENDMDL
MODEL 6
REMARK VINA RESULT:      -6.7      2.577      4.182
REMARK  Name = NuBBE_158
REMARK  9 active torsions:
REMARK  status: ('A' for Active; 'I' for Inactive)
REMARK    1  A    between atoms: C_2  and  O_3
REMARK    2  A    between atoms: C_2  and  C_5
REMARK    3  A    between atoms: O_3  and  C_4
REMARK    4  A    between atoms: C_7  and  C_8
REMARK    5  A    between atoms: C_8  and  C_9
REMARK    6  A    between atoms: C_10  and  C_11
REMARK    7  A    between atoms: C_10  and  C_12
REMARK    8  A    between atoms: C_15  and  C_16
REMARK    9  A    between atoms: C_15  and  C_17
REMARK                            x       y       z     vdW  Elec       q    Type
REMARK                         _______ _______ _______ _____ _____    ______ ____
ROOT
ATOM      1  C   LIG A   1      -8.452  -2.437 124.718  0.00  0.00    +0.060 A 
ATOM      2  C   LIG A   1      -7.244  -1.732 124.742  0.00  0.00    +0.022 A 
ATOM      3  C   LIG A   1      -6.521  -1.589 125.937  0.00  0.00    -0.001 A 
ATOM      4  C   LIG A   1      -7.007  -2.202 127.107  0.00  0.00    +0.128 A 
ATOM      5  O   LIG A   1      -6.245  -2.051 128.236  0.00  0.00    -0.486 OA
ATOM      6  C   LIG A   1      -6.824  -2.447 129.491  0.00  0.00    +0.105 C 
ATOM      7  C   LIG A   1      -7.662  -1.284 130.045  0.00  0.00    +0.055 C 
ATOM      8  C   LIG A   1      -5.639  -2.690 130.437  0.00  0.00    +0.055 C 
ATOM      9  C   LIG A   1      -7.627  -3.747 129.356  0.00  0.00    +0.052 C 
ATOM     10  C   LIG A   1      -8.733  -3.593 128.326  0.00  0.00    +0.043 C 
ATOM     11  C   LIG A   1      -8.201  -2.937 127.084  0.00  0.00    -0.004 A 
ATOM     12  C   LIG A   1      -8.930  -3.033 125.889  0.00  0.00    +0.022 A 
ENDROOT
BRANCH   1  14
ATOM     13  O   LIG A   1     -10.042  -3.487 123.279  0.00  0.00    -0.245 OA
ATOM     14  C   LIG A   1      -9.233  -2.590 123.466  0.00  0.00    +0.339 C 
BRANCH  14  15
ATOM     15  O   LIG A   1      -8.918  -1.589 122.611  0.00  0.00    -0.465 OA
ATOM     16  C   LIG A   1      -9.838  -0.499 122.541  0.00  0.00    +0.280 C 
ENDBRANCH  14  15
ENDBRANCH   1  14
BRANCH   3  17
ATOM     17  C   LIG A   1      -5.245  -0.773 125.925  0.00  0.00    +0.066 C 
BRANCH  17  18
ATOM     18  C   LIG A   1      -5.502   0.709 125.963  0.00  0.00    -0.023 C 
ATOM     19  C   LIG A   1      -5.436   1.543 127.023  0.00  0.00    -0.079 C 
ATOM     20  C   LIG A   1      -5.077   1.143 128.428  0.00  0.00    +0.038 C 
ATOM     21  C   LIG A   1      -5.743   3.008 126.858  0.00  0.00    +0.038 C 
ENDBRANCH  17  18
ENDBRANCH   3  17
TORSDOF 4
ENDMDL
MODEL 7
REMARK VINA RESULT:      -6.7      1.902      4.667
REMARK  Name = NuBBE_158
REMARK  9 active torsions:
REMARK  status: ('A' for Active; 'I' for Inactive)
REMARK    1  A    between atoms: C_2  and  O_3
REMARK    2  A    between atoms: C_2  and  C_5
REMARK    3  A    between atoms: O_3  and  C_4
REMARK    4  A    between atoms: C_7  and  C_8
REMARK    5  A    between atoms: C_8  and  C_9
REMARK    6  A    between atoms: C_10  and  C_11
REMARK    7  A    between atoms: C_10  and  C_12
REMARK    8  A    between atoms: C_15  and  C_16
REMARK    9  A    between atoms: C_15  and  C_17
REMARK                            x       y       z     vdW  Elec       q    Type
REMARK                         _______ _______ _______ _____ _____    ______ ____
ROOT
ATOM      1  C   LIG A   1      -7.081   2.113 123.448  0.00  0.00    +0.060 A 
ATOM      2  C   LIG A   1      -7.916   2.072 124.569  0.00  0.00    +0.022 A 
ATOM      3  C   LIG A   1      -8.363   0.845 125.085  0.00  0.00    -0.001 A 
ATOM      4  C   LIG A   1      -7.927  -0.349 124.484  0.00  0.00    +0.128 A 
ATOM      5  O   LIG A   1      -8.374  -1.515 125.047  0.00  0.00    -0.486 OA
ATOM      6  C   LIG A   1      -8.154  -2.736 124.321  0.00  0.00    +0.105 C 
ATOM      7  C   LIG A   1      -9.293  -2.928 123.307  0.00  0.00    +0.055 C 
ATOM      8  C   LIG A   1      -8.234  -3.860 125.364  0.00  0.00    +0.055 C 
ATOM      9  C   LIG A   1      -6.767  -2.762 123.668  0.00  0.00    +0.052 C 
ATOM     10  C   LIG A   1      -6.594  -1.584 122.723  0.00  0.00    +0.043 C 
ATOM     11  C   LIG A   1      -7.064  -0.317 123.378  0.00  0.00    -0.004 A 
ATOM     12  C   LIG A   1      -6.662   0.919 122.852  0.00  0.00    +0.022 A 
ENDROOT
BRANCH   1  14
ATOM     13  O   LIG A   1      -5.877   4.175 123.486  0.00  0.00    -0.245 OA
ATOM     14  C   LIG A   1      -6.606   3.400 122.883  0.00  0.00    +0.339 C 
BRANCH  14  15
ATOM     15  O   LIG A   1      -7.089   3.550 121.628  0.00  0.00    -0.465 OA
ATOM     16  C   LIG A   1      -6.153   3.964 120.632  0.00  0.00    +0.280 C 
ENDBRANCH  14  15
ENDBRANCH   1  14
BRANCH   3  17
ATOM     17  C   LIG A   1      -9.307   0.853 126.270  0.00  0.00    +0.066 C 
BRANCH  17  18
ATOM     18  C   LIG A   1      -8.664   1.385 127.522  0.00  0.00    -0.023 C 
ATOM     19  C   LIG A   1      -7.914   0.719 128.426  0.00  0.00    -0.079 C 
ATOM     20  C   LIG A   1      -7.557  -0.741 128.359  0.00  0.00    +0.038 C 
ATOM     21  C   LIG A   1      -7.363   1.434 129.632  0.00  0.00    +0.038 C 
ENDBRANCH  17  18
ENDBRANCH   3  17
TORSDOF 4
ENDMDL
MODEL 8
REMARK VINA RESULT:      -6.7      8.149      9.045
REMARK  Name = NuBBE_158
REMARK  9 active torsions:
REMARK  status: ('A' for Active; 'I' for Inactive)
REMARK    1  A    between atoms: C_2  and  O_3
REMARK    2  A    between atoms: C_2  and  C_5
REMARK    3  A    between atoms: O_3  and  C_4
REMARK    4  A    between atoms: C_7  and  C_8
REMARK    5  A    between atoms: C_8  and  C_9
REMARK    6  A    between atoms: C_10  and  C_11
REMARK    7  A    between atoms: C_10  and  C_12
REMARK    8  A    between atoms: C_15  and  C_16
REMARK    9  A    between atoms: C_15  and  C_17
REMARK                            x       y       z     vdW  Elec       q    Type
REMARK                         _______ _______ _______ _____ _____    ______ ____
ROOT
ATOM      1  C   LIG A   1      -9.224   6.751 130.933  0.00  0.00    +0.060 A 
ATOM      2  C   LIG A   1      -7.870   7.050 130.746  0.00  0.00    +0.022 A 
ATOM      3  C   LIG A   1      -6.887   6.458 131.555  0.00  0.00    -0.001 A 
ATOM      4  C   LIG A   1      -7.278   5.525 132.533  0.00  0.00    +0.128 A 
ATOM      5  O   LIG A   1      -6.273   4.960 133.273  0.00  0.00    -0.486 OA
ATOM      6  C   LIG A   1      -6.645   4.198 134.434  0.00  0.00    +0.105 C 
ATOM      7  C   LIG A   1      -6.823   5.154 135.624  0.00  0.00    +0.055 C 
ATOM      8  C   LIG A   1      -5.454   3.273 134.724  0.00  0.00    +0.055 C 
ATOM      9  C   LIG A   1      -7.888   3.339 134.170  0.00  0.00    +0.052 C 
ATOM     10  C   LIG A   1      -9.063   4.206 133.748  0.00  0.00    +0.043 C 
ATOM     11  C   LIG A   1      -8.631   5.197 132.705  0.00  0.00    -0.004 A 
ATOM     12  C   LIG A   1      -9.601   5.830 131.915  0.00  0.00    +0.022 A 
ENDROOT
BRANCH   1  14
ATOM     13  O   LIG A   1     -11.470   7.314 130.349  0.00  0.00    -0.245 OA
ATOM     14  C   LIG A   1     -10.276   7.375 130.093  0.00  0.00    +0.339 C 
BRANCH  14  15
ATOM     15  O   LIG A   1      -9.702   8.012 129.047  0.00  0.00    -0.465 OA
ATOM     16  C   LIG A   1     -10.581   8.449 128.008  0.00  0.00    +0.280 C 
ENDBRANCH  14  15
ENDBRANCH   1  14
BRANCH   3  17
ATOM     17  C   LIG A   1      -5.438   6.851 131.349  0.00  0.00    +0.066 C 
BRANCH  17  18
ATOM     18  C   LIG A   1      -4.759   6.030 130.287  0.00  0.00    -0.023 C 
ATOM     19  C   LIG A   1      -3.759   5.136 130.432  0.00  0.00    -0.079 C 
ATOM     20  C   LIG A   1      -3.100   4.766 131.733  0.00  0.00    +0.038 C 
ATOM     21  C   LIG A   1      -3.200   4.417 129.232  0.00  0.00    +0.038 C 
ENDBRANCH  17  18
ENDBRANCH   3  17
TORSDOF 4
ENDMDL
MODEL 9
REMARK VINA RESULT:      -6.6      1.702      2.723
REMARK  Name = NuBBE_158
REMARK  9 active torsions:
REMARK  status: ('A' for Active; 'I' for Inactive)
REMARK    1  A    between atoms: C_2  and  O_3
REMARK    2  A    between atoms: C_2  and  C_5
REMARK    3  A    between atoms: O_3  and  C_4
REMARK    4  A    between atoms: C_7  and  C_8
REMARK    5  A    between atoms: C_8  and  C_9
REMARK    6  A    between atoms: C_10  and  C_11
REMARK    7  A    between atoms: C_10  and  C_12
REMARK    8  A    between atoms: C_15  and  C_16
REMARK    9  A    between atoms: C_15  and  C_17
REMARK                            x       y       z     vdW  Elec       q    Type
REMARK                         _______ _______ _______ _____ _____    ______ ____
ROOT
ATOM      1  C   LIG A   1      -7.755   0.322 127.511  0.00  0.00    +0.060 A 
ATOM      2  C   LIG A   1      -8.326  -0.893 127.117  0.00  0.00    +0.022 A 
ATOM      3  C   LIG A   1      -7.890  -2.105 127.677  0.00  0.00    -0.001 A 
ATOM      4  C   LIG A   1      -6.898  -2.079 128.674  0.00  0.00    +0.128 A 
ATOM      5  O   LIG A   1      -6.533  -3.289 129.202  0.00  0.00    -0.486 OA
ATOM      6  C   LIG A   1      -5.361  -3.329 130.035  0.00  0.00    +0.105 C 
ATOM      7  C   LIG A   1      -4.118  -3.477 129.144  0.00  0.00    +0.055 C 
ATOM      8  C   LIG A   1      -5.503  -4.595 130.891  0.00  0.00    +0.055 C 
ATOM      9  C   LIG A   1      -5.287  -2.109 130.962  0.00  0.00    +0.052 C 
ATOM     10  C   LIG A   1      -5.280  -0.820 130.156  0.00  0.00    +0.043 C 
ATOM     11  C   LIG A   1      -6.343  -0.862 129.096  0.00  0.00    -0.004 A 
ATOM     12  C   LIG A   1      -6.762   0.334 128.495  0.00  0.00    +0.022 A 
ENDROOT
BRANCH   1  14
ATOM     13  O   LIG A   1      -8.695   2.517 127.575  0.00  0.00    -0.245 OA
ATOM     14  C   LIG A   1      -8.197   1.610 126.922  0.00  0.00    +0.339 C 
BRANCH  14  15
ATOM     15  O   LIG A   1      -7.944   1.611 125.593  0.00  0.00    -0.465 OA
ATOM     16  C   LIG A   1      -8.935   2.213 124.758  0.00  0.00    +0.280 C 
ENDBRANCH  14  15
ENDBRANCH   1  14
BRANCH   3  17
ATOM     17  C   LIG A   1      -8.502  -3.399 127.181  0.00  0.00    +0.066 C 
BRANCH  17  18
ATOM     18  C   LIG A   1      -9.188  -3.246 125.851  0.00  0.00    -0.023 C 
ATOM     19  C   LIG A   1      -8.662  -3.392 124.617  0.00  0.00    -0.079 C 
ATOM     20  C   LIG A   1      -7.233  -3.751 124.313  0.00  0.00    +0.038 C 
ATOM     21  C   LIG A   1      -9.519  -3.183 123.395  0.00  0.00    +0.038 C 
ENDBRANCH  17  18
ENDBRANCH   3  17
TORSDOF 4
ENDMDL
