MODEL 1
REMARK VINA RESULT:      -6.2      0.000      0.000
REMARK  Name = NuBBE_251
REMARK  6 active torsions:
REMARK  status: ('A' for Active; 'I' for Inactive)
REMARK    1  A    between atoms: O_1  and  C_2
REMARK    2  A    between atoms: C_4  and  O_5
REMARK    3  A    between atoms: C_6  and  C_7
REMARK    4  A    between atoms: C_10  and  C_11
REMARK    5  A    between atoms: C_12  and  C_13
REMARK    6  A    between atoms: C_14  and  C_15
REMARK                            x       y       z     vdW  Elec       q    Type
REMARK                         _______ _______ _______ _____ _____    ______ ____
ROOT
ATOM      1  C   LIG A   1      -8.125   2.389 123.661  0.00  0.00    +0.121 A 
ATOM      2  C   LIG A   1      -9.434   2.116 123.301  0.00  0.00    +0.091 A 
ATOM      3  C   LIG A   1      -9.793   0.795 123.028  0.00  0.00    +0.131 A 
ATOM      4  C   LIG A   1      -8.854  -0.256 123.107  0.00  0.00    +0.063 A 
ATOM      5  C   LIG A   1      -7.519   0.026 123.481  0.00  0.00    -0.008 A 
ATOM      6  C   LIG A   1      -7.182   1.369 123.745  0.00  0.00    +0.054 A 
ENDROOT
BRANCH   1   7
ATOM      7  O   LIG A   1      -7.705   3.654 123.945  0.00  0.00    -0.507 OA
ATOM      8  H   LIG A   1      -6.946   3.619 124.548  0.00  0.00    +0.292 HD
ENDBRANCH   1   7
BRANCH   3   9
ATOM      9  O   LIG A   1     -11.092   0.528 122.678  0.00  0.00    -0.506 OA
ATOM     10  H   LIG A   1     -11.122  -0.229 122.068  0.00  0.00    +0.292 HD
ENDBRANCH   3   9
BRANCH   4  11
ATOM     11  C   LIG A   1      -9.359  -1.629 122.809  0.00  0.00    +0.263 C 
ATOM     12  O   LIG A   1      -9.868  -2.383 123.625  0.00  0.00    -0.296 OA
ENDBRANCH   4  11
BRANCH   5  13
ATOM     13  C   LIG A   1      -6.452  -0.995 123.564  0.00  0.00    +0.009 C 
ATOM     14  C   LIG A   1      -6.299  -1.847 124.591  0.00  0.00    +0.000 C 
BRANCH  14  15
ATOM     15  C   LIG A   1      -5.260  -2.849 124.643  0.00  0.00    -0.004 C 
ATOM     16  C   LIG A   1      -4.949  -3.604 123.579  0.00  0.00    -0.030 C 
ATOM     17  C   LIG A   1      -3.883  -4.650 123.583  0.00  0.00    +0.035 C 
ENDBRANCH  14  15
ENDBRANCH   5  13
TORSDOF 5
ENDMDL
MODEL 2
REMARK VINA RESULT:      -6.0      9.118     10.430
REMARK  Name = NuBBE_251
REMARK  6 active torsions:
REMARK  status: ('A' for Active; 'I' for Inactive)
REMARK    1  A    between atoms: O_1  and  C_2
REMARK    2  A    between atoms: C_4  and  O_5
REMARK    3  A    between atoms: C_6  and  C_7
REMARK    4  A    between atoms: C_10  and  C_11
REMARK    5  A    between atoms: C_12  and  C_13
REMARK    6  A    between atoms: C_14  and  C_15
REMARK                            x       y       z     vdW  Elec       q    Type
REMARK                         _______ _______ _______ _____ _____    ______ ____
ROOT
ATOM      1  C   LIG A   1     -12.738   7.224 130.682  0.00  0.00    +0.121 A 
ATOM      2  C   LIG A   1     -13.253   7.314 129.399  0.00  0.00    +0.091 A 
ATOM      3  C   LIG A   1     -12.374   7.259 128.317  0.00  0.00    +0.131 A 
ATOM      4  C   LIG A   1     -10.981   7.119 128.505  0.00  0.00    +0.063 A 
ATOM      5  C   LIG A   1     -10.459   7.021 129.816  0.00  0.00    -0.008 A 
ATOM      6  C   LIG A   1     -11.369   7.086 130.891  0.00  0.00    +0.054 A 
ENDROOT
BRANCH   1   7
ATOM      7  O   LIG A   1     -13.538   7.266 131.783  0.00  0.00    -0.507 OA
ATOM      8  H   LIG A   1     -14.468   7.319 131.510  0.00  0.00    +0.292 HD
ENDBRANCH   1   7
BRANCH   3   9
ATOM      9  O   LIG A   1     -12.888   7.342 127.048  0.00  0.00    -0.506 OA
ATOM     10  H   LIG A   1     -13.220   6.471 126.768  0.00  0.00    +0.292 HD
ENDBRANCH   3   9
BRANCH   4  11
ATOM     11  C   LIG A   1     -10.142   7.056 127.272  0.00  0.00    +0.263 C 
ATOM     12  O   LIG A   1     -10.377   6.356 126.298  0.00  0.00    -0.296 OA
ENDBRANCH   4  11
BRANCH   5  13
ATOM     13  C   LIG A   1      -9.017   6.905 130.124  0.00  0.00    +0.009 C 
ATOM     14  C   LIG A   1      -8.526   6.574 131.330  0.00  0.00    +0.000 C 
BRANCH  14  15
ATOM     15  C   LIG A   1      -7.114   6.448 131.604  0.00  0.00    -0.004 C 
ATOM     16  C   LIG A   1      -6.194   7.156 130.933  0.00  0.00    -0.030 C 
ATOM     17  C   LIG A   1      -4.725   7.062 131.182  0.00  0.00    +0.035 C 
ENDBRANCH  14  15
ENDBRANCH   5  13
TORSDOF 5
ENDMDL
MODEL 3
REMARK VINA RESULT:      -6.0      1.228      3.170
REMARK  Name = NuBBE_251
REMARK  6 active torsions:
REMARK  status: ('A' for Active; 'I' for Inactive)
REMARK    1  A    between atoms: O_1  and  C_2
REMARK    2  A    between atoms: C_4  and  O_5
REMARK    3  A    between atoms: C_6  and  C_7
REMARK    4  A    between atoms: C_10  and  C_11
REMARK    5  A    between atoms: C_12  and  C_13
REMARK    6  A    between atoms: C_14  and  C_15
REMARK                            x       y       z     vdW  Elec       q    Type
REMARK                         _______ _______ _______ _____ _____    ______ ____
ROOT
ATOM      1  C   LIG A   1      -9.881   0.695 123.280  0.00  0.00    +0.121 A 
ATOM      2  C   LIG A   1      -9.844   1.873 124.007  0.00  0.00    +0.091 A 
ATOM      3  C   LIG A   1      -8.681   2.190 124.710  0.00  0.00    +0.131 A 
ATOM      4  C   LIG A   1      -7.555   1.338 124.695  0.00  0.00    +0.063 A 
ATOM      5  C   LIG A   1      -7.595   0.139 123.947  0.00  0.00    -0.008 A 
ATOM      6  C   LIG A   1      -8.785  -0.161 123.252  0.00  0.00    +0.054 A 
ENDROOT
BRANCH   1   7
ATOM      7  O   LIG A   1     -10.983   0.324 122.568  0.00  0.00    -0.507 OA
ATOM      8  H   LIG A   1     -11.494   1.112 122.323  0.00  0.00    +0.292 HD
ENDBRANCH   1   7
BRANCH   3   9
ATOM      9  O   LIG A   1      -8.644   3.361 125.423  0.00  0.00    -0.506 OA
ATOM     10  H   LIG A   1      -7.852   3.872 125.182  0.00  0.00    +0.292 HD
ENDBRANCH   3   9
BRANCH   4  11
ATOM     11  C   LIG A   1      -6.363   1.791 125.471  0.00  0.00    +0.263 C 
ATOM     12  O   LIG A   1      -5.719   2.805 125.242  0.00  0.00    -0.296 OA
ENDBRANCH   4  11
BRANCH   5  13
ATOM     13  C   LIG A   1      -6.485  -0.837 123.891  0.00  0.00    +0.009 C 
ATOM     14  C   LIG A   1      -6.378  -1.807 122.968  0.00  0.00    +0.000 C 
BRANCH  14  15
ATOM     15  C   LIG A   1      -5.275  -2.739 122.920  0.00  0.00    -0.004 C 
ATOM     16  C   LIG A   1      -5.174  -3.765 123.778  0.00  0.00    -0.030 C 
ATOM     17  C   LIG A   1      -4.057  -4.754 123.767  0.00  0.00    +0.035 C 
ENDBRANCH  14  15
ENDBRANCH   5  13
TORSDOF 5
ENDMDL
MODEL 4
REMARK VINA RESULT:      -6.0      4.372      5.435
REMARK  Name = NuBBE_251
REMARK  6 active torsions:
REMARK  status: ('A' for Active; 'I' for Inactive)
REMARK    1  A    between atoms: O_1  and  C_2
REMARK    2  A    between atoms: C_4  and  O_5
REMARK    3  A    between atoms: C_6  and  C_7
REMARK    4  A    between atoms: C_10  and  C_11
REMARK    5  A    between atoms: C_12  and  C_13
REMARK    6  A    between atoms: C_14  and  C_15
REMARK                            x       y       z     vdW  Elec       q    Type
REMARK                         _______ _______ _______ _____ _____    ______ ____
ROOT
ATOM      1  C   LIG A   1      -5.990   4.634 120.064  0.00  0.00    +0.121 A 
ATOM      2  C   LIG A   1      -7.279   4.382 119.627  0.00  0.00    +0.091 A 
ATOM      3  C   LIG A   1      -8.178   3.772 120.504  0.00  0.00    +0.131 A 
ATOM      4  C   LIG A   1      -7.796   3.408 121.814  0.00  0.00    +0.063 A 
ATOM      5  C   LIG A   1      -6.480   3.672 122.258  0.00  0.00    -0.008 A 
ATOM      6  C   LIG A   1      -5.592   4.283 121.350  0.00  0.00    +0.054 A 
ENDROOT
BRANCH   1   7
ATOM      7  O   LIG A   1      -5.062   5.229 119.263  0.00  0.00    -0.507 OA
ATOM      8  H   LIG A   1      -4.963   6.162 119.515  0.00  0.00    +0.292 HD
ENDBRANCH   1   7
BRANCH   3   9
ATOM      9  O   LIG A   1      -9.456   3.530 120.071  0.00  0.00    -0.506 OA
ATOM     10  H   LIG A   1      -9.853   2.812 120.593  0.00  0.00    +0.292 HD
ENDBRANCH   3   9
BRANCH   4  11
ATOM     11  C   LIG A   1      -8.848   2.777 122.666  0.00  0.00    +0.263 C 
ATOM     12  O   LIG A   1      -9.497   1.786 122.363  0.00  0.00    -0.296 OA
ENDBRANCH   4  11
BRANCH   5  13
ATOM     13  C   LIG A   1      -5.971   3.303 123.598  0.00  0.00    +0.009 C 
ATOM     14  C   LIG A   1      -5.319   4.145 124.416  0.00  0.00    +0.000 C 
BRANCH  14  15
ATOM     15  C   LIG A   1      -4.846   3.769 125.729  0.00  0.00    -0.004 C 
ATOM     16  C   LIG A   1      -3.540   3.741 126.032  0.00  0.00    -0.030 C 
ATOM     17  C   LIG A   1      -3.003   3.362 127.372  0.00  0.00    +0.035 C 
ENDBRANCH  14  15
ENDBRANCH   5  13
TORSDOF 5
ENDMDL
MODEL 5
REMARK VINA RESULT:      -5.8      3.637      5.438
REMARK  Name = NuBBE_251
REMARK  6 active torsions:
REMARK  status: ('A' for Active; 'I' for Inactive)
REMARK    1  A    between atoms: O_1  and  C_2
REMARK    2  A    between atoms: C_4  and  O_5
REMARK    3  A    between atoms: C_6  and  C_7
REMARK    4  A    between atoms: C_10  and  C_11
REMARK    5  A    between atoms: C_12  and  C_13
REMARK    6  A    between atoms: C_14  and  C_15
REMARK                            x       y       z     vdW  Elec       q    Type
REMARK                         _______ _______ _______ _____ _____    ______ ____
ROOT
ATOM      1  C   LIG A   1      -9.279  -3.118 123.713  0.00  0.00    +0.121 A 
ATOM      2  C   LIG A   1      -8.362  -2.503 122.877  0.00  0.00    +0.091 A 
ATOM      3  C   LIG A   1      -7.210  -1.948 123.437  0.00  0.00    +0.131 A 
ATOM      4  C   LIG A   1      -6.969  -1.999 124.828  0.00  0.00    +0.063 A 
ATOM      5  C   LIG A   1      -7.905  -2.633 125.677  0.00  0.00    -0.008 A 
ATOM      6  C   LIG A   1      -9.063  -3.180 125.086  0.00  0.00    +0.054 A 
ENDROOT
BRANCH   1   7
ATOM      7  O   LIG A   1     -10.422  -3.684 123.233  0.00  0.00    -0.507 OA
ATOM      8  H   LIG A   1     -10.462  -3.573 122.270  0.00  0.00    +0.292 HD
ENDBRANCH   1   7
BRANCH   3   9
ATOM      9  O   LIG A   1      -6.300  -1.346 122.606  0.00  0.00    -0.506 OA
ATOM     10  H   LIG A   1      -5.944  -0.546 123.029  0.00  0.00    +0.292 HD
ENDBRANCH   3   9
BRANCH   4  11
ATOM     11  C   LIG A   1      -5.696  -1.386 125.309  0.00  0.00    +0.263 C 
ATOM     12  O   LIG A   1      -5.478  -0.185 125.385  0.00  0.00    -0.296 OA
ENDBRANCH   4  11
BRANCH   5  13
ATOM     13  C   LIG A   1      -7.764  -2.713 127.148  0.00  0.00    +0.009 C 
ATOM     14  C   LIG A   1      -8.575  -3.426 127.947  0.00  0.00    +0.000 C 
BRANCH  14  15
ATOM     15  C   LIG A   1      -8.409  -3.506 129.379  0.00  0.00    -0.004 C 
ATOM     16  C   LIG A   1      -7.346  -2.974 130.001  0.00  0.00    -0.030 C 
ATOM     17  C   LIG A   1      -7.130  -3.028 131.477  0.00  0.00    +0.035 C 
ENDBRANCH  14  15
ENDBRANCH   5  13
TORSDOF 5
ENDMDL
MODEL 6
REMARK VINA RESULT:      -5.4      2.508      2.975
REMARK  Name = NuBBE_251
REMARK  6 active torsions:
REMARK  status: ('A' for Active; 'I' for Inactive)
REMARK    1  A    between atoms: O_1  and  C_2
REMARK    2  A    between atoms: C_4  and  O_5
REMARK    3  A    between atoms: C_6  and  C_7
REMARK    4  A    between atoms: C_10  and  C_11
REMARK    5  A    between atoms: C_12  and  C_13
REMARK    6  A    between atoms: C_14  and  C_15
REMARK                            x       y       z     vdW  Elec       q    Type
REMARK                         _______ _______ _______ _____ _____    ______ ____
ROOT
ATOM      1  C   LIG A   1      -9.076   2.225 124.634  0.00  0.00    +0.121 A 
ATOM      2  C   LIG A   1      -9.714   1.814 123.476  0.00  0.00    +0.091 A 
ATOM      3  C   LIG A   1      -9.643   0.468 123.112  0.00  0.00    +0.131 A 
ATOM      4  C   LIG A   1      -8.935  -0.470 123.895  0.00  0.00    +0.063 A 
ATOM      5  C   LIG A   1      -8.289  -0.047 125.079  0.00  0.00    -0.008 A 
ATOM      6  C   LIG A   1      -8.371   1.319 125.420  0.00  0.00    +0.054 A 
ENDROOT
BRANCH   1   7
ATOM      7  O   LIG A   1      -9.107   3.522 125.051  0.00  0.00    -0.507 OA
ATOM      8  H   LIG A   1      -8.228   3.921 124.945  0.00  0.00    +0.292 HD
ENDBRANCH   1   7
BRANCH   3   9
ATOM      9  O   LIG A   1     -10.283   0.063 121.969  0.00  0.00    -0.506 OA
ATOM     10  H   LIG A   1      -9.784   0.357 121.188  0.00  0.00    +0.292 HD
ENDBRANCH   3   9
BRANCH   4  11
ATOM     11  C   LIG A   1      -8.942  -1.884 123.414  0.00  0.00    +0.263 C 
ATOM     12  O   LIG A   1      -9.923  -2.614 123.393  0.00  0.00    -0.296 OA
ENDBRANCH   4  11
BRANCH   5  13
ATOM     13  C   LIG A   1      -7.495  -0.941 125.951  0.00  0.00    +0.009 C 
ATOM     14  C   LIG A   1      -7.994  -1.602 127.009  0.00  0.00    +0.000 C 
BRANCH  14  15
ATOM     15  C   LIG A   1      -7.205  -2.485 127.837  0.00  0.00    -0.004 C 
ATOM     16  C   LIG A   1      -7.616  -2.875 129.052  0.00  0.00    -0.030 C 
ATOM     17  C   LIG A   1      -6.839  -3.787 129.942  0.00  0.00    +0.035 C 
ENDBRANCH  14  15
ENDBRANCH   5  13
TORSDOF 5
ENDMDL
MODEL 7
REMARK VINA RESULT:      -5.4      3.375      3.766
REMARK  Name = NuBBE_251
REMARK  6 active torsions:
REMARK  status: ('A' for Active; 'I' for Inactive)
REMARK    1  A    between atoms: O_1  and  C_2
REMARK    2  A    between atoms: C_4  and  O_5
REMARK    3  A    between atoms: C_6  and  C_7
REMARK    4  A    between atoms: C_10  and  C_11
REMARK    5  A    between atoms: C_12  and  C_13
REMARK    6  A    between atoms: C_14  and  C_15
REMARK                            x       y       z     vdW  Elec       q    Type
REMARK                         _______ _______ _______ _____ _____    ______ ____
ROOT
ATOM      1  C   LIG A   1      -8.820   0.987 125.858  0.00  0.00    +0.121 A 
ATOM      2  C   LIG A   1      -9.289   0.756 124.575  0.00  0.00    +0.091 A 
ATOM      3  C   LIG A   1      -9.314  -0.554 124.095  0.00  0.00    +0.131 A 
ATOM      4  C   LIG A   1      -8.870  -1.637 124.885  0.00  0.00    +0.063 A 
ATOM      5  C   LIG A   1      -8.398  -1.398 126.197  0.00  0.00    -0.008 A 
ATOM      6  C   LIG A   1      -8.378  -0.065 126.654  0.00  0.00    +0.054 A 
ENDROOT
BRANCH   1   7
ATOM      7  O   LIG A   1      -8.771   2.239 126.392  0.00  0.00    -0.507 OA
ATOM      8  H   LIG A   1      -9.477   2.785 126.009  0.00  0.00    +0.292 HD
ENDBRANCH   1   7
BRANCH   3   9
ATOM      9  O   LIG A   1      -9.786  -0.779 122.827  0.00  0.00    -0.506 OA
ATOM     10  H   LIG A   1      -9.105  -0.543 122.173  0.00  0.00    +0.292 HD
ENDBRANCH   3   9
BRANCH   4  11
ATOM     11  C   LIG A   1      -8.960  -2.995 124.271  0.00  0.00    +0.263 C 
ATOM     12  O   LIG A   1      -9.890  -3.396 123.585  0.00  0.00    -0.296 OA
ENDBRANCH   4  11
BRANCH   5  13
ATOM     13  C   LIG A   1      -7.882  -2.456 127.093  0.00  0.00    +0.009 C 
ATOM     14  C   LIG A   1      -8.085  -2.486 128.421  0.00  0.00    +0.000 C 
BRANCH  14  15
ATOM     15  C   LIG A   1      -7.587  -3.539 129.276  0.00  0.00    -0.004 C 
ATOM     16  C   LIG A   1      -6.312  -3.573 129.691  0.00  0.00    -0.030 C 
ATOM     17  C   LIG A   1      -5.753  -4.637 130.576  0.00  0.00    +0.035 C 
ENDBRANCH  14  15
ENDBRANCH   5  13
TORSDOF 5
ENDMDL
MODEL 8
REMARK VINA RESULT:      -5.3      2.676      4.502
REMARK  Name = NuBBE_251
REMARK  6 active torsions:
REMARK  status: ('A' for Active; 'I' for Inactive)
REMARK    1  A    between atoms: O_1  and  C_2
REMARK    2  A    between atoms: C_4  and  O_5
REMARK    3  A    between atoms: C_6  and  C_7
REMARK    4  A    between atoms: C_10  and  C_11
REMARK    5  A    between atoms: C_12  and  C_13
REMARK    6  A    between atoms: C_14  and  C_15
REMARK                            x       y       z     vdW  Elec       q    Type
REMARK                         _______ _______ _______ _____ _____    ______ ____
ROOT
ATOM      1  C   LIG A   1      -4.421   2.510 126.276  0.00  0.00    +0.121 A 
ATOM      2  C   LIG A   1      -4.662   3.683 125.581  0.00  0.00    +0.091 A 
ATOM      3  C   LIG A   1      -5.714   3.716 124.663  0.00  0.00    +0.131 A 
ATOM      4  C   LIG A   1      -6.525   2.583 124.432  0.00  0.00    +0.063 A 
ATOM      5  C   LIG A   1      -6.279   1.389 125.148  0.00  0.00    -0.008 A 
ATOM      6  C   LIG A   1      -5.207   1.382 126.063  0.00  0.00    +0.054 A 
ENDROOT
BRANCH   1   7
ATOM      7  O   LIG A   1      -3.414   2.408 127.188  0.00  0.00    -0.507 OA
ATOM      8  H   LIG A   1      -2.928   1.580 127.047  0.00  0.00    +0.292 HD
ENDBRANCH   1   7
BRANCH   3   9
ATOM      9  O   LIG A   1      -5.954   4.882 123.982  0.00  0.00    -0.506 OA
ATOM     10  H   LIG A   1      -6.268   5.567 124.598  0.00  0.00    +0.292 HD
ENDBRANCH   3   9
BRANCH   4  11
ATOM     11  C   LIG A   1      -7.629   2.743 123.440  0.00  0.00    +0.263 C 
ATOM     12  O   LIG A   1      -8.658   3.376 123.629  0.00  0.00    -0.296 OA
ENDBRANCH   4  11
BRANCH   5  13
ATOM     13  C   LIG A   1      -7.048   0.139 124.957  0.00  0.00    +0.009 C 
ATOM     14  C   LIG A   1      -6.645  -0.885 124.187  0.00  0.00    +0.000 C 
BRANCH  14  15
ATOM     15  C   LIG A   1      -7.403  -2.105 124.029  0.00  0.00    -0.004 C 
ATOM     16  C   LIG A   1      -8.678  -2.100 123.613  0.00  0.00    -0.030 C 
ATOM     17  C   LIG A   1      -9.500  -3.333 123.433  0.00  0.00    +0.035 C 
ENDBRANCH  14  15
ENDBRANCH   5  13
TORSDOF 5
ENDMDL
MODEL 9
REMARK VINA RESULT:      -5.3      3.127      4.410
REMARK  Name = NuBBE_251
REMARK  6 active torsions:
REMARK  status: ('A' for Active; 'I' for Inactive)
REMARK    1  A    between atoms: O_1  and  C_2
REMARK    2  A    between atoms: C_4  and  O_5
REMARK    3  A    between atoms: C_6  and  C_7
REMARK    4  A    between atoms: C_10  and  C_11
REMARK    5  A    between atoms: C_12  and  C_13
REMARK    6  A    between atoms: C_14  and  C_15
REMARK                            x       y       z     vdW  Elec       q    Type
REMARK                         _______ _______ _______ _____ _____    ______ ____
ROOT
ATOM      1  C   LIG A   1      -8.478   2.992 122.544  0.00  0.00    +0.121 A 
ATOM      2  C   LIG A   1      -9.364   1.987 122.893  0.00  0.00    +0.091 A 
ATOM      3  C   LIG A   1      -9.049   1.160 123.973  0.00  0.00    +0.131 A 
ATOM      4  C   LIG A   1      -7.852   1.326 124.704  0.00  0.00    +0.063 A 
ATOM      5  C   LIG A   1      -6.953   2.357 124.347  0.00  0.00    -0.008 A 
ATOM      6  C   LIG A   1      -7.292   3.174 123.249  0.00  0.00    +0.054 A 
ENDROOT
BRANCH   1   7
ATOM      7  O   LIG A   1      -8.723   3.838 121.504  0.00  0.00    -0.507 OA
ATOM      8  H   LIG A   1      -7.910   3.966 120.989  0.00  0.00    +0.292 HD
ENDBRANCH   1   7
BRANCH   3   9
ATOM      9  O   LIG A   1      -9.933   0.171 124.321  0.00  0.00    -0.506 OA
ATOM     10  H   LIG A   1     -10.492  -0.058 123.558  0.00  0.00    +0.292 HD
ENDBRANCH   3   9
BRANCH   4  11
ATOM     11  C   LIG A   1      -7.632   0.393 125.848  0.00  0.00    +0.263 C 
ATOM     12  O   LIG A   1      -7.580  -0.826 125.761  0.00  0.00    -0.296 OA
ENDBRANCH   4  11
BRANCH   5  13
ATOM     13  C   LIG A   1      -5.660   2.596 125.026  0.00  0.00    +0.009 C 
ATOM     14  C   LIG A   1      -5.261   3.791 125.492  0.00  0.00    +0.000 C 
BRANCH  14  15
ATOM     15  C   LIG A   1      -4.002   3.999 126.169  0.00  0.00    -0.004 C 
ATOM     16  C   LIG A   1      -3.151   2.991 126.411  0.00  0.00    -0.030 C 
ATOM     17  C   LIG A   1      -1.839   3.156 127.104  0.00  0.00    +0.035 C 
ENDBRANCH  14  15
ENDBRANCH   5  13
TORSDOF 5
ENDMDL
