MODEL 1
REMARK VINA RESULT:      -7.1      0.000      0.000
REMARK  Name = NuBBE_1839
REMARK  12 active torsions:
REMARK  status: ('A' for Active; 'I' for Inactive)
REMARK    1  A    between atoms: C_1  and  O_2
REMARK    2  A    between atoms: O_2  and  C_3
REMARK    3  A    between atoms: C_6  and  C_8
REMARK    4  A    between atoms: C_10  and  O_11
REMARK    5  A    between atoms: O_11  and  C_12
REMARK    6  A    between atoms: C_13  and  O_14
REMARK    7  A    between atoms: O_14  and  C_15
REMARK    8  A    between atoms: C_16  and  O_17
REMARK    9  A    between atoms: O_17  and  C_18
REMARK   10  A    between atoms: C_20  and  C_22
REMARK   11  A    between atoms: C_25  and  C_26
REMARK   12  A    between atoms: C_26  and  C_27
REMARK                            x       y       z     vdW  Elec       q    Type
REMARK                         _______ _______ _______ _____ _____    ______ ____
ROOT
ATOM      1  C   LIG A   1      -7.107  -1.480 126.261  0.00  0.00    +0.151 C 
ATOM      2  C   LIG A   1      -8.299  -0.822 125.628  0.00  0.00    +0.138 C 
ATOM      3  O   LIG A   1      -8.936   0.086 126.462  0.00  0.00    -0.485 OA
ATOM      4  C   LIG A   1      -8.046   0.214 127.599  0.00  0.00    +0.210 C 
ATOM      5  C   LIG A   1      -6.668  -0.281 127.109  0.00  0.00    +0.074 C 
ATOM      6  C   LIG A   1      -5.694  -0.533 128.254  0.00  0.00    +0.015 C 
ATOM      7  C   LIG A   1      -8.623  -0.941 124.334  0.00  0.00    +0.095 C 
ATOM      8  C   LIG A   1      -7.741  -1.721 123.441  0.00  0.00    +0.185 C 
ATOM      9  C   LIG A   1      -6.379  -2.096 123.945  0.00  0.00    +0.002 C 
ATOM     10  C   LIG A   1      -6.097  -1.961 125.258  0.00  0.00    +0.023 C 
ATOM     11  O   LIG A   1      -8.119  -2.000 122.298  0.00  0.00    -0.287 OA
ENDROOT
BRANCH   4  12
ATOM     12  C   LIG A   1      -8.141   1.631 128.128  0.00  0.00    +0.000 A 
ATOM     13  C   LIG A   1      -7.817   2.695 127.275  0.00  0.00    +0.057 A 
ATOM     14  C   LIG A   1      -7.901   4.028 127.700  0.00  0.00    +0.166 A 
ATOM     15  C   LIG A   1      -8.320   4.327 129.008  0.00  0.00    +0.203 A 
ATOM     16  C   LIG A   1      -8.640   3.269 129.878  0.00  0.00    +0.166 A 
ATOM     17  C   LIG A   1      -8.537   1.939 129.437  0.00  0.00    +0.057 A 
BRANCH  14  18
ATOM     18  O   LIG A   1      -7.589   4.930 126.714  0.00  0.00    -0.491 OA
ATOM     19  C   LIG A   1      -7.358   4.404 125.414  0.00  0.00    +0.277 C 
ENDBRANCH  14  18
BRANCH  15  20
ATOM     20  O   LIG A   1      -8.491   5.653 129.328  0.00  0.00    -0.488 OA
ATOM     21  C   LIG A   1      -9.792   6.200 129.125  0.00  0.00    +0.277 C 
ENDBRANCH  15  20
BRANCH  16  22
ATOM     22  O   LIG A   1      -9.165   3.590 131.104  0.00  0.00    -0.491 OA
ATOM     23  C   LIG A   1      -9.476   2.509 131.970  0.00  0.00    +0.277 C 
ENDBRANCH  16  22
ENDBRANCH   4  12
BRANCH   1  25
ATOM     24  C   LIG A   1      -8.597  -3.356 126.641  0.00  0.00    +0.195 C 
ATOM     25  O   LIG A   1      -7.499  -2.569 127.111  0.00  0.00    -0.364 OA
ENDBRANCH   1  25
BRANCH   9  26
ATOM     26  C   LIG A   1      -5.413  -2.652 122.936  0.00  0.00    +0.065 C 
BRANCH  26  27
ATOM     27  C   LIG A   1      -4.376  -3.523 123.589  0.00  0.00    -0.030 C 
ATOM     28  C   LIG A   1      -4.372  -4.860 123.507  0.00  0.00    +0.004 C 
ENDBRANCH  26  27
ENDBRANCH   9  26
TORSDOF 7
ENDMDL
MODEL 2
REMARK VINA RESULT:      -7.0      0.914      2.465
REMARK  Name = NuBBE_1839
REMARK  12 active torsions:
REMARK  status: ('A' for Active; 'I' for Inactive)
REMARK    1  A    between atoms: C_1  and  O_2
REMARK    2  A    between atoms: O_2  and  C_3
REMARK    3  A    between atoms: C_6  and  C_8
REMARK    4  A    between atoms: C_10  and  O_11
REMARK    5  A    between atoms: O_11  and  C_12
REMARK    6  A    between atoms: C_13  and  O_14
REMARK    7  A    between atoms: O_14  and  C_15
REMARK    8  A    between atoms: C_16  and  O_17
REMARK    9  A    between atoms: O_17  and  C_18
REMARK   10  A    between atoms: C_20  and  C_22
REMARK   11  A    between atoms: C_25  and  C_26
REMARK   12  A    between atoms: C_26  and  C_27
REMARK                            x       y       z     vdW  Elec       q    Type
REMARK                         _______ _______ _______ _____ _____    ______ ____
ROOT
ATOM      1  C   LIG A   1      -7.035  -1.485 126.262  0.00  0.00    +0.151 C 
ATOM      2  C   LIG A   1      -8.195  -0.771 125.631  0.00  0.00    +0.138 C 
ATOM      3  O   LIG A   1      -8.768   0.187 126.457  0.00  0.00    -0.485 OA
ATOM      4  C   LIG A   1      -7.856   0.284 127.579  0.00  0.00    +0.210 C 
ATOM      5  C   LIG A   1      -6.516  -0.298 127.082  0.00  0.00    +0.074 C 
ATOM      6  C   LIG A   1      -5.543  -0.585 128.219  0.00  0.00    +0.015 C 
ATOM      7  C   LIG A   1      -8.543  -0.894 124.345  0.00  0.00    +0.095 C 
ATOM      8  C   LIG A   1      -7.719  -1.739 123.455  0.00  0.00    +0.185 C 
ATOM      9  C   LIG A   1      -6.374  -2.182 123.948  0.00  0.00    +0.002 C 
ATOM     10  C   LIG A   1      -6.067  -2.041 125.255  0.00  0.00    +0.023 C 
ATOM     11  O   LIG A   1      -8.128  -2.016 122.322  0.00  0.00    -0.287 OA
ENDROOT
BRANCH   4  12
ATOM     12  C   LIG A   1      -7.863   1.713 128.084  0.00  0.00    +0.000 A 
ATOM     13  C   LIG A   1      -8.716   2.051 129.144  0.00  0.00    +0.057 A 
ATOM     14  C   LIG A   1      -8.756   3.351 129.667  0.00  0.00    +0.166 A 
ATOM     15  C   LIG A   1      -7.929   4.354 129.131  0.00  0.00    +0.203 A 
ATOM     16  C   LIG A   1      -7.075   4.031 128.061  0.00  0.00    +0.166 A 
ATOM     17  C   LIG A   1      -7.058   2.725 127.543  0.00  0.00    +0.057 A 
BRANCH  14  18
ATOM     18  O   LIG A   1      -9.616   3.480 130.729  0.00  0.00    -0.491 OA
ATOM     19  C   LIG A   1      -9.871   2.309 131.492  0.00  0.00    +0.277 C 
ENDBRANCH  14  18
BRANCH  15  20
ATOM     20  O   LIG A   1      -7.931   5.576 129.759  0.00  0.00    -0.488 OA
ATOM     21  C   LIG A   1      -7.053   5.728 130.871  0.00  0.00    +0.277 C 
ENDBRANCH  15  20
BRANCH  16  22
ATOM     22  O   LIG A   1      -6.190   4.991 127.641  0.00  0.00    -0.491 OA
ATOM     23  C   LIG A   1      -4.818   4.767 127.930  0.00  0.00    +0.277 C 
ENDBRANCH  16  22
ENDBRANCH   4  12
BRANCH   1  25
ATOM     24  C   LIG A   1      -8.588  -3.302 126.668  0.00  0.00    +0.195 C 
ATOM     25  O   LIG A   1      -7.476  -2.535 127.137  0.00  0.00    -0.364 OA
ENDBRANCH   1  25
BRANCH   9  26
ATOM     26  C   LIG A   1      -5.455  -2.811 122.938  0.00  0.00    +0.065 C 
BRANCH  26  27
ATOM     27  C   LIG A   1      -4.396  -3.646 123.602  0.00  0.00    -0.030 C 
ATOM     28  C   LIG A   1      -4.329  -4.980 123.497  0.00  0.00    +0.004 C 
ENDBRANCH  26  27
ENDBRANCH   9  26
TORSDOF 7
ENDMDL
MODEL 3
REMARK VINA RESULT:      -7.0      2.764      3.228
REMARK  Name = NuBBE_1839
REMARK  12 active torsions:
REMARK  status: ('A' for Active; 'I' for Inactive)
REMARK    1  A    between atoms: C_1  and  O_2
REMARK    2  A    between atoms: O_2  and  C_3
REMARK    3  A    between atoms: C_6  and  C_8
REMARK    4  A    between atoms: C_10  and  O_11
REMARK    5  A    between atoms: O_11  and  C_12
REMARK    6  A    between atoms: C_13  and  O_14
REMARK    7  A    between atoms: O_14  and  C_15
REMARK    8  A    between atoms: C_16  and  O_17
REMARK    9  A    between atoms: O_17  and  C_18
REMARK   10  A    between atoms: C_20  and  C_22
REMARK   11  A    between atoms: C_25  and  C_26
REMARK   12  A    between atoms: C_26  and  C_27
REMARK                            x       y       z     vdW  Elec       q    Type
REMARK                         _______ _______ _______ _____ _____    ______ ____
ROOT
ATOM      1  C   LIG A   1      -6.846  -0.905 126.632  0.00  0.00    +0.151 C 
ATOM      2  C   LIG A   1      -7.293   0.125 125.635  0.00  0.00    +0.138 C 
ATOM      3  O   LIG A   1      -7.226   1.425 126.118  0.00  0.00    -0.485 OA
ATOM      4  C   LIG A   1      -6.520   1.303 127.378  0.00  0.00    +0.210 C 
ATOM      5  C   LIG A   1      -5.773  -0.046 127.312  0.00  0.00    +0.074 C 
ATOM      6  C   LIG A   1      -5.253  -0.496 128.672  0.00  0.00    +0.015 C 
ATOM      7  C   LIG A   1      -7.555  -0.138 124.349  0.00  0.00    +0.095 C 
ATOM      8  C   LIG A   1      -7.350  -1.511 123.841  0.00  0.00    +0.185 C 
ATOM      9  C   LIG A   1      -6.583  -2.474 124.697  0.00  0.00    +0.002 C 
ATOM     10  C   LIG A   1      -6.344  -2.167 125.990  0.00  0.00    +0.023 C 
ATOM     11  O   LIG A   1      -7.764  -1.816 122.717  0.00  0.00    -0.287 OA
ENDROOT
BRANCH   4  12
ATOM     12  C   LIG A   1      -5.698   2.558 127.593  0.00  0.00    +0.000 A 
ATOM     13  C   LIG A   1      -4.515   2.725 126.859  0.00  0.00    +0.057 A 
ATOM     14  C   LIG A   1      -3.719   3.870 127.000  0.00  0.00    +0.166 A 
ATOM     15  C   LIG A   1      -4.099   4.888 127.892  0.00  0.00    +0.203 A 
ATOM     16  C   LIG A   1      -5.278   4.730 128.643  0.00  0.00    +0.166 A 
ATOM     17  C   LIG A   1      -6.055   3.569 128.496  0.00  0.00    +0.057 A 
BRANCH  14  18
ATOM     18  O   LIG A   1      -2.629   3.876 126.168  0.00  0.00    -0.491 OA
ATOM     19  C   LIG A   1      -1.561   2.999 126.503  0.00  0.00    +0.277 C 
ENDBRANCH  14  18
BRANCH  15  20
ATOM     20  O   LIG A   1      -3.340   6.034 127.902  0.00  0.00    -0.488 OA
ATOM     21  C   LIG A   1      -2.284   6.096 128.858  0.00  0.00    +0.277 C 
ENDBRANCH  15  20
BRANCH  16  22
ATOM     22  O   LIG A   1      -5.691   5.789 129.410  0.00  0.00    -0.491 OA
ATOM     23  C   LIG A   1      -6.426   5.480 130.585  0.00  0.00    +0.277 C 
ENDBRANCH  16  22
ENDBRANCH   4  12
BRANCH   1  25
ATOM     24  C   LIG A   1      -8.093  -2.614 127.818  0.00  0.00    +0.195 C 
ATOM     25  O   LIG A   1      -7.891  -1.221 127.565  0.00  0.00    -0.364 OA
ENDBRANCH   1  25
BRANCH   9  26
ATOM     26  C   LIG A   1      -6.164  -3.767 124.054  0.00  0.00    +0.065 C 
BRANCH  26  27
ATOM     27  C   LIG A   1      -4.733  -3.715 123.596  0.00  0.00    -0.030 C 
ATOM     28  C   LIG A   1      -3.935  -4.789 123.527  0.00  0.00    +0.004 C 
ENDBRANCH  26  27
ENDBRANCH   9  26
TORSDOF 7
ENDMDL
MODEL 4
REMARK VINA RESULT:      -6.9      6.688     10.121
REMARK  Name = NuBBE_1839
REMARK  12 active torsions:
REMARK  status: ('A' for Active; 'I' for Inactive)
REMARK    1  A    between atoms: C_1  and  O_2
REMARK    2  A    between atoms: O_2  and  C_3
REMARK    3  A    between atoms: C_6  and  C_8
REMARK    4  A    between atoms: C_10  and  O_11
REMARK    5  A    between atoms: O_11  and  C_12
REMARK    6  A    between atoms: C_13  and  O_14
REMARK    7  A    between atoms: O_14  and  C_15
REMARK    8  A    between atoms: C_16  and  O_17
REMARK    9  A    between atoms: O_17  and  C_18
REMARK   10  A    between atoms: C_20  and  C_22
REMARK   11  A    between atoms: C_25  and  C_26
REMARK   12  A    between atoms: C_26  and  C_27
REMARK                            x       y       z     vdW  Elec       q    Type
REMARK                         _______ _______ _______ _____ _____    ______ ____
ROOT
ATOM      1  C   LIG A   1      -9.022   6.018 130.965  0.00  0.00    +0.151 C 
ATOM      2  C   LIG A   1      -9.915   5.729 132.137  0.00  0.00    +0.138 C 
ATOM      3  O   LIG A   1      -9.232   5.253 133.247  0.00  0.00    -0.485 OA
ATOM      4  C   LIG A   1      -7.833   5.424 132.908  0.00  0.00    +0.210 C 
ATOM      5  C   LIG A   1      -7.802   6.473 131.776  0.00  0.00    +0.074 C 
ATOM      6  C   LIG A   1      -6.454   6.531 131.068  0.00  0.00    +0.015 C 
ATOM      7  C   LIG A   1     -11.210   6.062 132.194  0.00  0.00    +0.095 C 
ATOM      8  C   LIG A   1     -11.810   6.808 131.067  0.00  0.00    +0.185 C 
ATOM      9  C   LIG A   1     -10.889   7.415 130.052  0.00  0.00    +0.002 C 
ATOM     10  C   LIG A   1      -9.590   7.047 130.031  0.00  0.00    +0.023 C 
ATOM     11  O   LIG A   1     -13.036   6.956 131.015  0.00  0.00    -0.287 OA
ENDROOT
BRANCH   4  12
ATOM     12  C   LIG A   1      -7.063   5.730 134.177  0.00  0.00    +0.000 A 
ATOM     13  C   LIG A   1      -7.776   5.942 135.366  0.00  0.00    +0.057 A 
ATOM     14  C   LIG A   1      -7.122   6.213 136.576  0.00  0.00    +0.166 A 
ATOM     15  C   LIG A   1      -5.718   6.276 136.620  0.00  0.00    +0.203 A 
ATOM     16  C   LIG A   1      -4.990   6.075 135.434  0.00  0.00    +0.166 A 
ATOM     17  C   LIG A   1      -5.665   5.817 134.229  0.00  0.00    +0.057 A 
BRANCH  14  18
ATOM     18  O   LIG A   1      -7.981   6.345 137.637  0.00  0.00    -0.491 OA
ATOM     19  C   LIG A   1      -8.691   7.573 137.738  0.00  0.00    +0.277 C 
ENDBRANCH  14  18
BRANCH  15  20
ATOM     20  O   LIG A   1      -5.133   6.431 137.854  0.00  0.00    -0.488 OA
ATOM     21  C   LIG A   1      -4.909   7.768 138.295  0.00  0.00    +0.277 C 
ENDBRANCH  15  20
BRANCH  16  22
ATOM     22  O   LIG A   1      -3.623   6.016 135.528  0.00  0.00    -0.491 OA
ATOM     23  C   LIG A   1      -2.905   7.182 135.151  0.00  0.00    +0.277 C 
ENDBRANCH  16  22
ENDBRANCH   4  12
BRANCH   1  25
ATOM     24  C   LIG A   1      -9.754   3.846 130.174  0.00  0.00    +0.195 C 
ATOM     25  O   LIG A   1      -8.711   4.822 130.234  0.00  0.00    -0.364 OA
ENDBRANCH   1  25
BRANCH   9  26
ATOM     26  C   LIG A   1     -11.500   8.381 129.075  0.00  0.00    +0.065 C 
BRANCH  26  27
ATOM     27  C   LIG A   1     -10.748   8.397 127.774  0.00  0.00    -0.030 C 
ATOM     28  C   LIG A   1     -11.090   7.657 126.710  0.00  0.00    +0.004 C 
ENDBRANCH  26  27
ENDBRANCH   9  26
TORSDOF 7
ENDMDL
MODEL 5
REMARK VINA RESULT:      -6.8      6.688      9.864
REMARK  Name = NuBBE_1839
REMARK  12 active torsions:
REMARK  status: ('A' for Active; 'I' for Inactive)
REMARK    1  A    between atoms: C_1  and  O_2
REMARK    2  A    between atoms: O_2  and  C_3
REMARK    3  A    between atoms: C_6  and  C_8
REMARK    4  A    between atoms: C_10  and  O_11
REMARK    5  A    between atoms: O_11  and  C_12
REMARK    6  A    between atoms: C_13  and  O_14
REMARK    7  A    between atoms: O_14  and  C_15
REMARK    8  A    between atoms: C_16  and  O_17
REMARK    9  A    between atoms: O_17  and  C_18
REMARK   10  A    between atoms: C_20  and  C_22
REMARK   11  A    between atoms: C_25  and  C_26
REMARK   12  A    between atoms: C_26  and  C_27
REMARK                            x       y       z     vdW  Elec       q    Type
REMARK                         _______ _______ _______ _____ _____    ______ ____
ROOT
ATOM      1  C   LIG A   1      -9.058   6.024 130.970  0.00  0.00    +0.151 C 
ATOM      2  C   LIG A   1      -9.969   5.713 132.122  0.00  0.00    +0.138 C 
ATOM      3  O   LIG A   1      -9.303   5.216 133.233  0.00  0.00    -0.485 OA
ATOM      4  C   LIG A   1      -7.900   5.394 132.920  0.00  0.00    +0.210 C 
ATOM      5  C   LIG A   1      -7.851   6.464 131.808  0.00  0.00    +0.074 C 
ATOM      6  C   LIG A   1      -6.492   6.536 131.122  0.00  0.00    +0.015 C 
ATOM      7  C   LIG A   1     -11.265   6.044 132.164  0.00  0.00    +0.095 C 
ATOM      8  C   LIG A   1     -11.848   6.812 131.043  0.00  0.00    +0.185 C 
ATOM      9  C   LIG A   1     -10.911   7.438 130.054  0.00  0.00    +0.002 C 
ATOM     10  C   LIG A   1      -9.612   7.071 130.046  0.00  0.00    +0.023 C 
ATOM     11  O   LIG A   1     -13.073   6.960 130.974  0.00  0.00    -0.287 OA
ENDROOT
BRANCH   4  12
ATOM     12  C   LIG A   1      -7.150   5.677 134.207  0.00  0.00    +0.000 A 
ATOM     13  C   LIG A   1      -5.761   5.854 134.154  0.00  0.00    +0.057 A 
ATOM     14  C   LIG A   1      -5.013   6.134 135.307  0.00  0.00    +0.166 A 
ATOM     15  C   LIG A   1      -5.653   6.247 136.554  0.00  0.00    +0.203 A 
ATOM     16  C   LIG A   1      -7.045   6.062 136.622  0.00  0.00    +0.166 A 
ATOM     17  C   LIG A   1      -7.775   5.770 135.458  0.00  0.00    +0.057 A 
BRANCH  14  18
ATOM     18  O   LIG A   1      -3.678   6.320 135.052  0.00  0.00    -0.491 OA
ATOM     19  C   LIG A   1      -3.343   7.002 133.850  0.00  0.00    +0.277 C 
ENDBRANCH  14  18
BRANCH  15  20
ATOM     20  O   LIG A   1      -4.883   6.635 137.624  0.00  0.00    -0.488 OA
ATOM     21  C   LIG A   1      -4.713   8.036 137.818  0.00  0.00    +0.277 C 
ENDBRANCH  15  20
BRANCH  16  22
ATOM     22  O   LIG A   1      -7.660   6.301 137.825  0.00  0.00    -0.491 OA
ATOM     23  C   LIG A   1      -8.519   7.430 137.892  0.00  0.00    +0.277 C 
ENDBRANCH  16  22
ENDBRANCH   4  12
BRANCH   1  25
ATOM     24  C   LIG A   1      -9.776   3.867 130.127  0.00  0.00    +0.195 C 
ATOM     25  O   LIG A   1      -8.735   4.842 130.221  0.00  0.00    -0.364 OA
ENDBRANCH   1  25
BRANCH   9  26
ATOM     26  C   LIG A   1     -11.507   8.422 129.085  0.00  0.00    +0.065 C 
BRANCH  26  27
ATOM     27  C   LIG A   1     -10.794   8.392 127.762  0.00  0.00    -0.030 C 
ATOM     28  C   LIG A   1     -11.202   7.662 126.716  0.00  0.00    +0.004 C 
ENDBRANCH  26  27
ENDBRANCH   9  26
TORSDOF 7
ENDMDL
MODEL 6
REMARK VINA RESULT:      -6.7      4.387      8.524
REMARK  Name = NuBBE_1839
REMARK  12 active torsions:
REMARK  status: ('A' for Active; 'I' for Inactive)
REMARK    1  A    between atoms: C_1  and  O_2
REMARK    2  A    between atoms: O_2  and  C_3
REMARK    3  A    between atoms: C_6  and  C_8
REMARK    4  A    between atoms: C_10  and  O_11
REMARK    5  A    between atoms: O_11  and  C_12
REMARK    6  A    between atoms: C_13  and  O_14
REMARK    7  A    between atoms: O_14  and  C_15
REMARK    8  A    between atoms: C_16  and  O_17
REMARK    9  A    between atoms: O_17  and  C_18
REMARK   10  A    between atoms: C_20  and  C_22
REMARK   11  A    between atoms: C_25  and  C_26
REMARK   12  A    between atoms: C_26  and  C_27
REMARK                            x       y       z     vdW  Elec       q    Type
REMARK                         _______ _______ _______ _____ _____    ______ ____
ROOT
ATOM      1  C   LIG A   1      -3.458   4.724 128.618  0.00  0.00    +0.151 C 
ATOM      2  C   LIG A   1      -4.895   5.145 128.727  0.00  0.00    +0.138 C 
ATOM      3  O   LIG A   1      -5.557   5.171 127.507  0.00  0.00    -0.485 OA
ATOM      4  C   LIG A   1      -4.628   4.553 126.582  0.00  0.00    +0.210 C 
ATOM      5  C   LIG A   1      -3.645   3.743 127.454  0.00  0.00    +0.074 C 
ATOM      6  C   LIG A   1      -2.405   3.301 126.685  0.00  0.00    +0.015 C 
ATOM      7  C   LIG A   1      -5.545   5.302 129.887  0.00  0.00    +0.095 C 
ATOM      8  C   LIG A   1      -4.842   4.999 131.152  0.00  0.00    +0.185 C 
ATOM      9  C   LIG A   1      -3.543   4.253 131.076  0.00  0.00    +0.002 C 
ATOM     10  C   LIG A   1      -2.922   4.121 129.885  0.00  0.00    +0.023 C 
ATOM     11  O   LIG A   1      -5.356   5.317 132.229  0.00  0.00    -0.287 OA
ENDROOT
BRANCH   4  12
ATOM     12  C   LIG A   1      -5.421   3.806 125.529  0.00  0.00    +0.000 A 
ATOM     13  C   LIG A   1      -6.177   2.691 125.918  0.00  0.00    +0.057 A 
ATOM     14  C   LIG A   1      -6.946   1.968 124.995  0.00  0.00    +0.166 A 
ATOM     15  C   LIG A   1      -6.974   2.354 123.643  0.00  0.00    +0.203 A 
ATOM     16  C   LIG A   1      -6.212   3.465 123.237  0.00  0.00    +0.166 A 
ATOM     17  C   LIG A   1      -5.439   4.169 124.176  0.00  0.00    +0.057 A 
BRANCH  14  18
ATOM     18  O   LIG A   1      -7.652   0.940 125.567  0.00  0.00    -0.491 OA
ATOM     19  C   LIG A   1      -8.583   1.290 126.583  0.00  0.00    +0.277 C 
ENDBRANCH  14  18
BRANCH  15  20
ATOM     20  O   LIG A   1      -7.832   1.676 122.811  0.00  0.00    -0.488 OA
ATOM     21  C   LIG A   1      -9.186   2.122 122.785  0.00  0.00    +0.277 C 
ENDBRANCH  15  20
BRANCH  16  22
ATOM     22  O   LIG A   1      -6.356   3.895 121.943  0.00  0.00    -0.491 OA
ATOM     23  C   LIG A   1      -5.166   4.240 121.248  0.00  0.00    +0.277 C 
ENDBRANCH  16  22
ENDBRANCH   4  12
BRANCH   1  25
ATOM     24  C   LIG A   1      -1.994   6.543 129.274  0.00  0.00    +0.195 C 
ATOM     25  O   LIG A   1      -2.620   5.818 128.212  0.00  0.00    -0.364 OA
ENDBRANCH   1  25
BRANCH   9  26
ATOM     26  C   LIG A   1      -2.986   3.730 132.371  0.00  0.00    +0.065 C 
BRANCH  26  27
ATOM     27  C   LIG A   1      -1.657   4.355 132.690  0.00  0.00    -0.030 C 
ATOM     28  C   LIG A   1      -1.497   5.654 132.977  0.00  0.00    +0.004 C 
ENDBRANCH  26  27
ENDBRANCH   9  26
TORSDOF 7
ENDMDL
MODEL 7
REMARK VINA RESULT:      -6.7      3.064      6.401
REMARK  Name = NuBBE_1839
REMARK  12 active torsions:
REMARK  status: ('A' for Active; 'I' for Inactive)
REMARK    1  A    between atoms: C_1  and  O_2
REMARK    2  A    between atoms: O_2  and  C_3
REMARK    3  A    between atoms: C_6  and  C_8
REMARK    4  A    between atoms: C_10  and  O_11
REMARK    5  A    between atoms: O_11  and  C_12
REMARK    6  A    between atoms: C_13  and  O_14
REMARK    7  A    between atoms: O_14  and  C_15
REMARK    8  A    between atoms: C_16  and  O_17
REMARK    9  A    between atoms: O_17  and  C_18
REMARK   10  A    between atoms: C_20  and  C_22
REMARK   11  A    between atoms: C_25  and  C_26
REMARK   12  A    between atoms: C_26  and  C_27
REMARK                            x       y       z     vdW  Elec       q    Type
REMARK                         _______ _______ _______ _____ _____    ______ ____
ROOT
ATOM      1  C   LIG A   1      -7.309   2.106 124.479  0.00  0.00    +0.151 C 
ATOM      2  C   LIG A   1      -7.295   2.796 125.813  0.00  0.00    +0.138 C 
ATOM      3  O   LIG A   1      -7.619   1.958 126.870  0.00  0.00    -0.485 OA
ATOM      4  C   LIG A   1      -7.642   0.633 126.284  0.00  0.00    +0.210 C 
ATOM      5  C   LIG A   1      -6.827   0.738 124.978  0.00  0.00    +0.074 C 
ATOM      6  C   LIG A   1      -7.024  -0.466 124.064  0.00  0.00    +0.015 C 
ATOM      7  C   LIG A   1      -6.839   4.039 126.010  0.00  0.00    +0.095 C 
ATOM      8  C   LIG A   1      -6.260   4.782 124.870  0.00  0.00    +0.185 C 
ATOM      9  C   LIG A   1      -5.937   4.019 123.621  0.00  0.00    +0.002 C 
ATOM     10  C   LIG A   1      -6.421   2.768 123.464  0.00  0.00    +0.023 C 
ATOM     11  O   LIG A   1      -6.012   5.987 124.988  0.00  0.00    -0.287 OA
ENDROOT
BRANCH   4  12
ATOM     12  C   LIG A   1      -7.180  -0.365 127.327  0.00  0.00    +0.000 A 
ATOM     13  C   LIG A   1      -6.047  -0.063 128.095  0.00  0.00    +0.057 A 
ATOM     14  C   LIG A   1      -5.579  -0.936 129.088  0.00  0.00    +0.166 A 
ATOM     15  C   LIG A   1      -6.249  -2.147 129.335  0.00  0.00    +0.203 A 
ATOM     16  C   LIG A   1      -7.383  -2.467 128.566  0.00  0.00    +0.166 A 
ATOM     17  C   LIG A   1      -7.828  -1.584 127.568  0.00  0.00    +0.057 A 
BRANCH  14  18
ATOM     18  O   LIG A   1      -4.488  -0.451 129.763  0.00  0.00    -0.491 OA
ATOM     19  C   LIG A   1      -4.354   0.962 129.833  0.00  0.00    +0.277 C 
ENDBRANCH  14  18
BRANCH  15  20
ATOM     20  O   LIG A   1      -5.811  -2.905 130.395  0.00  0.00    -0.488 OA
ATOM     21  C   LIG A   1      -4.844  -3.912 130.107  0.00  0.00    +0.277 C 
ENDBRANCH  15  20
BRANCH  16  22
ATOM     22  O   LIG A   1      -8.089  -3.590 128.912  0.00  0.00    -0.491 OA
ATOM     23  C   LIG A   1      -9.027  -4.074 127.961  0.00  0.00    +0.277 C 
ENDBRANCH  16  22
ENDBRANCH   4  12
BRANCH   1  25
ATOM     24  C   LIG A   1      -8.832   2.517 122.637  0.00  0.00    +0.195 C 
ATOM     25  O   LIG A   1      -8.642   2.000 123.957  0.00  0.00    -0.364 OA
ENDBRANCH   1  25
BRANCH   9  26
ATOM     26  C   LIG A   1      -5.115   4.733 122.584  0.00  0.00    +0.065 C 
BRANCH  26  27
ATOM     27  C   LIG A   1      -5.228   4.070 121.240  0.00  0.00    -0.030 C 
ATOM     28  C   LIG A   1      -5.543   4.724 120.114  0.00  0.00    +0.004 C 
ENDBRANCH  26  27
ENDBRANCH   9  26
TORSDOF 7
ENDMDL
MODEL 8
REMARK VINA RESULT:      -6.6      4.435      8.446
REMARK  Name = NuBBE_1839
REMARK  12 active torsions:
REMARK  status: ('A' for Active; 'I' for Inactive)
REMARK    1  A    between atoms: C_1  and  O_2
REMARK    2  A    between atoms: O_2  and  C_3
REMARK    3  A    between atoms: C_6  and  C_8
REMARK    4  A    between atoms: C_10  and  O_11
REMARK    5  A    between atoms: O_11  and  C_12
REMARK    6  A    between atoms: C_13  and  O_14
REMARK    7  A    between atoms: O_14  and  C_15
REMARK    8  A    between atoms: C_16  and  O_17
REMARK    9  A    between atoms: O_17  and  C_18
REMARK   10  A    between atoms: C_20  and  C_22
REMARK   11  A    between atoms: C_25  and  C_26
REMARK   12  A    between atoms: C_26  and  C_27
REMARK                            x       y       z     vdW  Elec       q    Type
REMARK                         _______ _______ _______ _____ _____    ______ ____
ROOT
ATOM      1  C   LIG A   1      -3.332   4.955 128.573  0.00  0.00    +0.151 C 
ATOM      2  C   LIG A   1      -4.797   5.217 128.772  0.00  0.00    +0.138 C 
ATOM      3  O   LIG A   1      -5.555   5.004 127.630  0.00  0.00    -0.485 OA
ATOM      4  C   LIG A   1      -4.635   4.380 126.699  0.00  0.00    +0.210 C 
ATOM      5  C   LIG A   1      -3.488   3.813 127.562  0.00  0.00    +0.074 C 
ATOM      6  C   LIG A   1      -2.270   3.420 126.734  0.00  0.00    +0.015 C 
ATOM      7  C   LIG A   1      -5.362   5.451 129.963  0.00  0.00    +0.095 C 
ATOM      8  C   LIG A   1      -4.524   5.403 131.179  0.00  0.00    +0.185 C 
ATOM      9  C   LIG A   1      -3.152   4.809 131.067  0.00  0.00    +0.002 C 
ATOM     10  C   LIG A   1      -2.620   4.593 129.845  0.00  0.00    +0.023 C 
ATOM     11  O   LIG A   1      -4.983   5.800 132.255  0.00  0.00    -0.287 OA
ENDROOT
BRANCH   4  12
ATOM     12  C   LIG A   1      -5.411   3.412 125.829  0.00  0.00    +0.000 A 
ATOM     13  C   LIG A   1      -5.834   3.833 124.561  0.00  0.00    +0.057 A 
ATOM     14  C   LIG A   1      -6.541   2.980 123.702  0.00  0.00    +0.166 A 
ATOM     15  C   LIG A   1      -6.841   1.666 124.103  0.00  0.00    +0.203 A 
ATOM     16  C   LIG A   1      -6.430   1.232 125.377  0.00  0.00    +0.166 A 
ATOM     17  C   LIG A   1      -5.734   2.107 126.227  0.00  0.00    +0.057 A 
BRANCH  14  18
ATOM     18  O   LIG A   1      -6.830   3.552 122.489  0.00  0.00    -0.491 OA
ATOM     19  C   LIG A   1      -5.764   3.642 121.553  0.00  0.00    +0.277 C 
ENDBRANCH  14  18
BRANCH  15  20
ATOM     20  O   LIG A   1      -7.434   0.844 123.175  0.00  0.00    -0.488 OA
ATOM     21  C   LIG A   1      -8.855   0.740 123.225  0.00  0.00    +0.277 C 
ENDBRANCH  15  20
BRANCH  16  22
ATOM     22  O   LIG A   1      -6.624  -0.088 125.692  0.00  0.00    -0.491 OA
ATOM     23  C   LIG A   1      -5.483  -0.933 125.636  0.00  0.00    +0.277 C 
ENDBRANCH  16  22
ENDBRANCH   4  12
BRANCH   1  25
ATOM     24  C   LIG A   1      -3.077   7.363 128.432  0.00  0.00    +0.195 C 
ATOM     25  O   LIG A   1      -2.677   6.075 127.956  0.00  0.00    -0.364 OA
ENDBRANCH   1  25
BRANCH   9  26
ATOM     26  C   LIG A   1      -2.427   4.532 132.355  0.00  0.00    +0.065 C 
BRANCH  26  27
ATOM     27  C   LIG A   1      -1.093   5.225 132.396  0.00  0.00    -0.030 C 
ATOM     28  C   LIG A   1      -0.950   6.553 132.493  0.00  0.00    +0.004 C 
ENDBRANCH  26  27
ENDBRANCH   9  26
TORSDOF 7
ENDMDL
MODEL 9
REMARK VINA RESULT:      -6.5      2.991      6.346
REMARK  Name = NuBBE_1839
REMARK  12 active torsions:
REMARK  status: ('A' for Active; 'I' for Inactive)
REMARK    1  A    between atoms: C_1  and  O_2
REMARK    2  A    between atoms: O_2  and  C_3
REMARK    3  A    between atoms: C_6  and  C_8
REMARK    4  A    between atoms: C_10  and  O_11
REMARK    5  A    between atoms: O_11  and  C_12
REMARK    6  A    between atoms: C_13  and  O_14
REMARK    7  A    between atoms: O_14  and  C_15
REMARK    8  A    between atoms: C_16  and  O_17
REMARK    9  A    between atoms: O_17  and  C_18
REMARK   10  A    between atoms: C_20  and  C_22
REMARK   11  A    between atoms: C_25  and  C_26
REMARK   12  A    between atoms: C_26  and  C_27
REMARK                            x       y       z     vdW  Elec       q    Type
REMARK                         _______ _______ _______ _____ _____    ______ ____
ROOT
ATOM      1  C   LIG A   1      -7.459   2.072 124.700  0.00  0.00    +0.151 C 
ATOM      2  C   LIG A   1      -7.394   2.813 126.005  0.00  0.00    +0.138 C 
ATOM      3  O   LIG A   1      -7.703   2.023 127.103  0.00  0.00    -0.485 OA
ATOM      4  C   LIG A   1      -7.768   0.677 126.570  0.00  0.00    +0.210 C 
ATOM      5  C   LIG A   1      -6.989   0.716 125.238  0.00  0.00    +0.074 C 
ATOM      6  C   LIG A   1      -7.235  -0.519 124.379  0.00  0.00    +0.015 C 
ATOM      7  C   LIG A   1      -6.909   4.053 126.140  0.00  0.00    +0.095 C 
ATOM      8  C   LIG A   1      -6.350   4.740 124.956  0.00  0.00    +0.185 C 
ATOM      9  C   LIG A   1      -6.078   3.922 123.729  0.00  0.00    +0.002 C 
ATOM     10  C   LIG A   1      -6.589   2.676 123.635  0.00  0.00    +0.023 C 
ATOM     11  O   LIG A   1      -6.076   5.943 125.019  0.00  0.00    -0.287 OA
ENDROOT
BRANCH   4  12
ATOM     12  C   LIG A   1      -7.294  -0.288 127.638  0.00  0.00    +0.000 A 
ATOM     13  C   LIG A   1      -7.989  -1.493 127.817  0.00  0.00    +0.057 A 
ATOM     14  C   LIG A   1      -7.590  -2.434 128.777  0.00  0.00    +0.166 A 
ATOM     15  C   LIG A   1      -6.470  -2.185 129.588  0.00  0.00    +0.203 A 
ATOM     16  C   LIG A   1      -5.769  -0.976 129.426  0.00  0.00    +0.166 A 
ATOM     17  C   LIG A   1      -6.191  -0.040 128.467  0.00  0.00    +0.057 A 
BRANCH  14  18
ATOM     18  O   LIG A   1      -8.362  -3.569 128.773  0.00  0.00    -0.491 OA
ATOM     19  C   LIG A   1      -8.970  -3.927 127.539  0.00  0.00    +0.277 C 
ENDBRANCH  14  18
BRANCH  15  20
ATOM     20  O   LIG A   1      -6.063  -3.193 130.429  0.00  0.00    -0.488 OA
ATOM     21  C   LIG A   1      -6.569  -3.161 131.761  0.00  0.00    +0.277 C 
ENDBRANCH  15  20
BRANCH  16  22
ATOM     22  O   LIG A   1      -4.609  -0.813 130.140  0.00  0.00    -0.491 OA
ATOM     23  C   LIG A   1      -4.183   0.522 130.371  0.00  0.00    +0.277 C 
ENDBRANCH  16  22
ENDBRANCH   4  12
BRANCH   1  25
ATOM     24  C   LIG A   1      -8.987   2.211 122.821  0.00  0.00    +0.195 C 
ATOM     25  O   LIG A   1      -8.809   1.972 124.220  0.00  0.00    -0.364 OA
ENDBRANCH   1  25
BRANCH   9  26
ATOM     26  C   LIG A   1      -5.273   4.580 122.642  0.00  0.00    +0.065 C 
BRANCH  26  27
ATOM     27  C   LIG A   1      -5.413   3.849 121.336  0.00  0.00    -0.030 C 
ATOM     28  C   LIG A   1      -5.788   4.438 120.192  0.00  0.00    +0.004 C 
ENDBRANCH  26  27
ENDBRANCH   9  26
TORSDOF 7
ENDMDL
