MODEL 1
REMARK VINA RESULT:      -9.7      0.000      0.000
REMARK  Name = NuBBE_1294
REMARK  15 active torsions:
REMARK  status: ('A' for Active; 'I' for Inactive)
REMARK    1  A    between atoms: C_2  and  O_3
REMARK    2  A    between atoms: C_2  and  C_52
REMARK    3  A    between atoms: O_3  and  C_4
REMARK    4  A    between atoms: C_6  and  C_51
REMARK    5  A    between atoms: C_8  and  C_9
REMARK    6  A    between atoms: C_10  and  O_13
REMARK    7  A    between atoms: O_13  and  C_14
REMARK    8  A    between atoms: C_14  and  C_15
REMARK    9  A    between atoms: C_21  and  O_40
REMARK   10  A    between atoms: C_23  and  C_39
REMARK   11  A    between atoms: C_27  and  C_38
REMARK   12  A    between atoms: C_31  and  C_33
REMARK   13  A    between atoms: O_40  and  C_41
REMARK   14  A    between atoms: C_41  and  C_42
REMARK   15  A    between atoms: C_43  and  C_44
REMARK                            x       y       z     vdW  Elec       q    Type
REMARK                         _______ _______ _______ _____ _____    ______ ____
ROOT
ATOM      1  C   LIG A   1      -5.400   2.047 129.543  0.00  0.00    +0.186 C 
ATOM      2  C   LIG A   1      -5.314   1.779 127.998  0.00  0.00    +0.015 C 
ATOM      3  C   LIG A   1      -5.818   2.973 127.192  0.00  0.00    +0.043 C 
ATOM      4  C   LIG A   1      -6.460   4.190 127.837  0.00  0.00    +0.034 C 
ATOM      5  C   LIG A   1      -7.897   4.127 128.401  0.00  0.00    +0.017 C 
ATOM      6  C   LIG A   1      -5.486   4.637 128.934  0.00  0.00    +0.188 C 
ATOM      7  C   LIG A   1      -5.381   3.532 130.015  0.00  0.00    +0.090 C 
ATOM      8  C   LIG A   1      -6.578   5.017 126.546  0.00  0.00    +0.171 C 
ATOM      9  O   LIG A   1      -7.057   4.057 125.560  0.00  0.00    -0.372 OA
ATOM     10  C   LIG A   1      -6.616   2.726 125.952  0.00  0.00    +0.164 C 
ATOM     11  C   LIG A   1      -7.785   1.717 126.057  0.00  0.00    +0.216 C 
ATOM     12  C   LIG A   1      -7.520   0.496 127.061  0.00  0.00    +0.032 C 
ATOM     13  C   LIG A   1      -5.983   0.444 127.439  0.00  0.00    +0.012 C 
ATOM     14  C   LIG A   1      -5.619  -0.826 128.236  0.00  0.00    +0.006 C 
ATOM     15  C   LIG A   1      -5.861  -2.076 127.386  0.00  0.00    +0.012 C 
ATOM     16  C   LIG A   1      -7.322  -2.188 126.935  0.00  0.00    -0.003 C 
ATOM     17  C   LIG A   1      -7.981  -0.869 126.527  0.00  0.00    -0.057 C 
ATOM     18  C   LIG A   1      -8.983  -1.131 125.663  0.00  0.00    -0.026 C 
ATOM     19  C   LIG A   1      -8.999  -2.568 125.227  0.00  0.00    +0.036 C 
ATOM     20  C   LIG A   1      -7.581  -3.033 125.640  0.00  0.00    +0.036 C 
ATOM     21  C   LIG A   1      -8.106  -2.836 128.119  0.00  0.00    +0.016 C 
ATOM     22  C   LIG A   1      -8.393   0.698 128.321  0.00  0.00    +0.020 C 
ATOM     23  C   LIG A   1      -3.777   1.653 127.626  0.00  0.00    +0.015 C 
ENDROOT
BRANCH  20  24
ATOM     24  C   LIG A   1      -6.626  -2.829 124.471  0.00  0.00    -0.005 A 
ATOM     25  C   LIG A   1      -6.796  -2.081 123.319  0.00  0.00    +0.198 A 
ATOM     26  O   LIG A   1      -5.734  -2.191 122.489  0.00  0.00    -0.471 OA
ATOM     27  C   LIG A   1      -4.867  -3.047 123.079  0.00  0.00    +0.195 A 
ATOM     28  C   LIG A   1      -5.362  -3.469 124.292  0.00  0.00    +0.045 A 
ENDBRANCH  20  24
BRANCH   1  29
ATOM     29  O   LIG A   1      -4.255   1.380 130.136  0.00  0.00    -0.461 OA
BRANCH  29  31
ATOM     30  O   LIG A   1      -3.492   1.582 132.287  0.00  0.00    -0.251 OA
ATOM     31  C   LIG A   1      -4.252   1.091 131.452  0.00  0.00    +0.304 C 
ATOM     32  C   LIG A   1      -5.373   0.146 131.758  0.00  0.00    +0.136 C 
ENDBRANCH  29  31
ENDBRANCH   1  29
BRANCH   6  33
ATOM     33  O   LIG A   1      -6.001   5.826 129.559  0.00  0.00    -0.461 OA
BRANCH  33  34
ATOM     34  C   LIG A   1      -5.287   6.320 130.603  0.00  0.00    +0.304 C 
ATOM     35  C   LIG A   1      -6.203   6.568 131.762  0.00  0.00    +0.136 C 
ATOM     36  O   LIG A   1      -4.096   6.601 130.583  0.00  0.00    -0.251 OA
ENDBRANCH  33  34
ENDBRANCH   6  33
BRANCH  11  37
ATOM     37  O   LIG A   1      -7.949   1.302 124.670  0.00  0.00    -0.455 OA
BRANCH  37  38
ATOM     38  C   LIG A   1      -9.000   1.886 124.035  0.00  0.00    +0.332 C 
ATOM     39  O   LIG A   1     -10.150   1.962 124.448  0.00  0.00    -0.246 OA
BRANCH  38  40
ATOM     40  C   LIG A   1      -8.567   2.608 122.827  0.00  0.00    +0.092 C 
ATOM     41  C   LIG A   1      -7.292   2.836 122.482  0.00  0.00    +0.015 C 
BRANCH  41  42
ATOM     42  C   LIG A   1      -6.924   3.638 121.307  0.00  0.00    -0.025 A 
ATOM     43  C   LIG A   1      -7.856   3.822 120.279  0.00  0.00    +0.008 A 
ATOM     44  C   LIG A   1      -7.515   4.550 119.135  0.00  0.00    +0.001 A 
ATOM     45  C   LIG A   1      -6.236   5.087 119.001  0.00  0.00    +0.000 A 
ATOM     46  C   LIG A   1      -5.295   4.897 120.008  0.00  0.00    +0.001 A 
ATOM     47  C   LIG A   1      -5.635   4.172 121.151  0.00  0.00    +0.008 A 
ENDBRANCH  41  42
ENDBRANCH  38  40
ENDBRANCH  37  38
ENDBRANCH  11  37
TORSDOF 9
ENDMDL
MODEL 2
REMARK VINA RESULT:      -9.5      5.442     10.675
REMARK  Name = NuBBE_1294
REMARK  15 active torsions:
REMARK  status: ('A' for Active; 'I' for Inactive)
REMARK    1  A    between atoms: C_2  and  O_3
REMARK    2  A    between atoms: C_2  and  C_52
REMARK    3  A    between atoms: O_3  and  C_4
REMARK    4  A    between atoms: C_6  and  C_51
REMARK    5  A    between atoms: C_8  and  C_9
REMARK    6  A    between atoms: C_10  and  O_13
REMARK    7  A    between atoms: O_13  and  C_14
REMARK    8  A    between atoms: C_14  and  C_15
REMARK    9  A    between atoms: C_21  and  O_40
REMARK   10  A    between atoms: C_23  and  C_39
REMARK   11  A    between atoms: C_27  and  C_38
REMARK   12  A    between atoms: C_31  and  C_33
REMARK   13  A    between atoms: O_40  and  C_41
REMARK   14  A    between atoms: C_41  and  C_42
REMARK   15  A    between atoms: C_43  and  C_44
REMARK                            x       y       z     vdW  Elec       q    Type
REMARK                         _______ _______ _______ _____ _____    ______ ____
ROOT
ATOM      1  C   LIG A   1      -3.180   5.637 130.377  0.00  0.00    +0.186 C 
ATOM      2  C   LIG A   1      -4.441   6.217 131.112  0.00  0.00    +0.015 C 
ATOM      3  C   LIG A   1      -4.113   6.640 132.541  0.00  0.00    +0.043 C 
ATOM      4  C   LIG A   1      -2.764   6.376 133.189  0.00  0.00    +0.034 C 
ATOM      5  C   LIG A   1      -2.369   4.957 133.655  0.00  0.00    +0.017 C 
ATOM      6  C   LIG A   1      -1.720   6.912 132.202  0.00  0.00    +0.188 C 
ATOM      7  C   LIG A   1      -1.780   6.092 130.889  0.00  0.00    +0.090 C 
ATOM      8  C   LIG A   1      -3.051   7.151 134.486  0.00  0.00    +0.171 C 
ATOM      9  O   LIG A   1      -4.408   6.754 134.838  0.00  0.00    -0.372 OA
ATOM     10  C   LIG A   1      -5.117   6.388 133.621  0.00  0.00    +0.164 C 
ATOM     11  C   LIG A   1      -5.733   4.969 133.691  0.00  0.00    +0.216 C 
ATOM     12  C   LIG A   1      -5.935   4.261 132.268  0.00  0.00    +0.032 C 
ATOM     13  C   LIG A   1      -5.769   5.333 131.114  0.00  0.00    +0.012 C 
ATOM     14  C   LIG A   1      -6.153   4.767 129.731  0.00  0.00    +0.006 C 
ATOM     15  C   LIG A   1      -7.634   4.383 129.704  0.00  0.00    +0.012 C 
ATOM     16  C   LIG A   1      -7.972   3.333 130.769  0.00  0.00    -0.003 C 
ATOM     17  C   LIG A   1      -7.274   3.523 132.118  0.00  0.00    -0.057 C 
ATOM     18  C   LIG A   1      -8.023   2.949 133.081  0.00  0.00    -0.026 C 
ATOM     19  C   LIG A   1      -9.362   2.502 132.572  0.00  0.00    +0.036 C 
ATOM     20  C   LIG A   1      -9.467   3.287 131.242  0.00  0.00    +0.036 C 
ATOM     21  C   LIG A   1      -7.598   1.945 130.163  0.00  0.00    +0.016 C 
ATOM     22  C   LIG A   1      -4.889   3.131 132.129  0.00  0.00    +0.020 C 
ATOM     23  C   LIG A   1      -4.845   7.559 130.369  0.00  0.00    +0.015 C 
ENDROOT
BRANCH  20  24
ATOM     24  C   LIG A   1     -10.159   4.620 131.499  0.00  0.00    -0.005 A 
ATOM     25  C   LIG A   1     -10.004   5.499 132.556  0.00  0.00    +0.198 A 
ATOM     26  O   LIG A   1     -10.839   6.558 132.453  0.00  0.00    -0.471 OA
ATOM     27  C   LIG A   1     -11.578   6.362 131.337  0.00  0.00    +0.195 A 
ATOM     28  C   LIG A   1     -11.207   5.192 130.715  0.00  0.00    +0.045 A 
ENDBRANCH  20  24
BRANCH   1  29
ATOM     29  O   LIG A   1      -3.296   6.043 128.989  0.00  0.00    -0.461 OA
BRANCH  29  31
ATOM     30  O   LIG A   1      -2.254   4.266 127.985  0.00  0.00    -0.251 OA
ATOM     31  C   LIG A   1      -3.124   5.137 128.006  0.00  0.00    +0.304 C 
ATOM     32  C   LIG A   1      -4.209   5.296 126.985  0.00  0.00    +0.136 C 
ENDBRANCH  29  31
ENDBRANCH   1  29
BRANCH   6  33
ATOM     33  O   LIG A   1      -0.411   6.748 132.773  0.00  0.00    -0.461 OA
BRANCH  33  34
ATOM     34  C   LIG A   1       0.084   7.802 133.471  0.00  0.00    +0.304 C 
ATOM     35  C   LIG A   1       0.532   7.340 134.824  0.00  0.00    +0.136 C 
ATOM     36  O   LIG A   1       0.091   8.966 133.094  0.00  0.00    -0.251 OA
ENDBRANCH  33  34
ENDBRANCH   6  33
BRANCH  11  37
ATOM     37  O   LIG A   1      -6.982   5.220 134.398  0.00  0.00    -0.455 OA
BRANCH  37  38
ATOM     38  C   LIG A   1      -6.876   5.170 135.753  0.00  0.00    +0.332 C 
ATOM     39  O   LIG A   1      -6.105   4.471 136.397  0.00  0.00    -0.246 OA
BRANCH  38  40
ATOM     40  C   LIG A   1      -7.690   6.214 136.396  0.00  0.00    +0.092 C 
ATOM     41  C   LIG A   1      -7.214   7.174 137.202  0.00  0.00    +0.015 C 
BRANCH  41  42
ATOM     42  C   LIG A   1      -8.089   8.137 137.885  0.00  0.00    -0.025 A 
ATOM     43  C   LIG A   1      -9.423   8.263 137.480  0.00  0.00    +0.008 A 
ATOM     44  C   LIG A   1     -10.264   9.200 138.089  0.00  0.00    +0.001 A 
ATOM     45  C   LIG A   1      -9.776  10.028 139.098  0.00  0.00    +0.000 A 
ATOM     46  C   LIG A   1      -8.447   9.924 139.499  0.00  0.00    +0.001 A 
ATOM     47  C   LIG A   1      -7.608   8.989 138.891  0.00  0.00    +0.008 A 
ENDBRANCH  41  42
ENDBRANCH  38  40
ENDBRANCH  37  38
ENDBRANCH  11  37
TORSDOF 9
ENDMDL
MODEL 3
REMARK VINA RESULT:      -9.3      3.570      8.944
REMARK  Name = NuBBE_1294
REMARK  15 active torsions:
REMARK  status: ('A' for Active; 'I' for Inactive)
REMARK    1  A    between atoms: C_2  and  O_3
REMARK    2  A    between atoms: C_2  and  C_52
REMARK    3  A    between atoms: O_3  and  C_4
REMARK    4  A    between atoms: C_6  and  C_51
REMARK    5  A    between atoms: C_8  and  C_9
REMARK    6  A    between atoms: C_10  and  O_13
REMARK    7  A    between atoms: O_13  and  C_14
REMARK    8  A    between atoms: C_14  and  C_15
REMARK    9  A    between atoms: C_21  and  O_40
REMARK   10  A    between atoms: C_23  and  C_39
REMARK   11  A    between atoms: C_27  and  C_38
REMARK   12  A    between atoms: C_31  and  C_33
REMARK   13  A    between atoms: O_40  and  C_41
REMARK   14  A    between atoms: C_41  and  C_42
REMARK   15  A    between atoms: C_43  and  C_44
REMARK                            x       y       z     vdW  Elec       q    Type
REMARK                         _______ _______ _______ _____ _____    ______ ____
ROOT
ATOM      1  C   LIG A   1      -4.593   3.256 128.218  0.00  0.00    +0.186 C 
ATOM      2  C   LIG A   1      -4.974   2.616 129.601  0.00  0.00    +0.015 C 
ATOM      3  C   LIG A   1      -6.423   2.137 129.618  0.00  0.00    +0.043 C 
ATOM      4  C   LIG A   1      -7.392   2.402 128.478  0.00  0.00    +0.034 C 
ATOM      5  C   LIG A   1      -7.993   3.808 128.255  0.00  0.00    +0.017 C 
ATOM      6  C   LIG A   1      -6.671   1.934 127.208  0.00  0.00    +0.188 C 
ATOM      7  C   LIG A   1      -5.416   2.810 126.971  0.00  0.00    +0.090 C 
ATOM      8  C   LIG A   1      -8.548   1.563 129.047  0.00  0.00    +0.171 C 
ATOM      9  O   LIG A   1      -8.571   1.914 130.461  0.00  0.00    -0.372 OA
ATOM     10  C   LIG A   1      -7.232   2.318 130.863  0.00  0.00    +0.164 C 
ATOM     11  C   LIG A   1      -7.203   3.718 131.523  0.00  0.00    +0.216 C 
ATOM     12  C   LIG A   1      -5.801   4.484 131.395  0.00  0.00    +0.032 C 
ATOM     13  C   LIG A   1      -4.684   3.470 130.917  0.00  0.00    +0.012 C 
ATOM     14  C   LIG A   1      -3.271   4.087 130.969  0.00  0.00    +0.006 C 
ATOM     15  C   LIG A   1      -2.896   4.439 132.411  0.00  0.00    +0.012 C 
ATOM     16  C   LIG A   1      -3.885   5.433 133.033  0.00  0.00    -0.003 C 
ATOM     17  C   LIG A   1      -5.355   5.199 132.680  0.00  0.00    -0.057 C 
ATOM     18  C   LIG A   1      -6.126   5.713 133.659  0.00  0.00    -0.026 C 
ATOM     19  C   LIG A   1      -5.321   6.152 134.848  0.00  0.00    +0.036 C 
ATOM     20  C   LIG A   1      -3.977   5.425 134.599  0.00  0.00    +0.036 C 
ATOM     21  C   LIG A   1      -3.441   6.855 132.567  0.00  0.00    +0.016 C 
ATOM     22  C   LIG A   1      -5.966   5.643 130.384  0.00  0.00    +0.020 C 
ATOM     23  C   LIG A   1      -4.104   1.300 129.767  0.00  0.00    +0.015 C 
ENDROOT
BRANCH  20  24
ATOM     24  C   LIG A   1      -4.006   4.067 135.288  0.00  0.00    -0.005 A 
ATOM     25  C   LIG A   1      -3.834   3.758 136.626  0.00  0.00    +0.198 A 
ATOM     26  O   LIG A   1      -3.877   2.424 136.842  0.00  0.00    -0.471 OA
ATOM     27  C   LIG A   1      -4.044   1.841 135.633  0.00  0.00    +0.195 A 
ATOM     28  C   LIG A   1      -4.127   2.797 134.646  0.00  0.00    +0.045 A 
ENDBRANCH  20  24
BRANCH   1  29
ATOM     29  O   LIG A   1      -3.205   2.910 127.978  0.00  0.00    -0.461 OA
BRANCH  29  31
ATOM     30  O   LIG A   1      -2.340   4.999 127.604  0.00  0.00    -0.251 OA
ATOM     31  C   LIG A   1      -2.387   3.791 127.369  0.00  0.00    +0.304 C 
ATOM     32  C   LIG A   1      -1.481   3.061 126.424  0.00  0.00    +0.136 C 
ENDBRANCH  29  31
ENDBRANCH   1  29
BRANCH   6  33
ATOM     33  O   LIG A   1      -7.552   2.101 126.083  0.00  0.00    -0.461 OA
BRANCH  33  34
ATOM     34  C   LIG A   1      -7.879   0.978 125.395  0.00  0.00    +0.304 C 
ATOM     35  C   LIG A   1      -9.342   0.702 125.552  0.00  0.00    +0.136 C 
ATOM     36  O   LIG A   1      -7.092   0.251 124.802  0.00  0.00    -0.251 OA
ENDBRANCH  33  34
ENDBRANCH   6  33
BRANCH  11  37
ATOM     37  O   LIG A   1      -7.571   3.408 132.899  0.00  0.00    -0.455 OA
BRANCH  37  38
ATOM     38  C   LIG A   1      -8.804   3.854 133.259  0.00  0.00    +0.332 C 
ATOM     39  O   LIG A   1      -9.329   3.736 134.359  0.00  0.00    -0.246 OA
BRANCH  38  40
ATOM     40  C   LIG A   1      -9.406   4.687 132.206  0.00  0.00    +0.092 C 
ATOM     41  C   LIG A   1      -9.843   5.943 132.373  0.00  0.00    +0.015 C 
BRANCH  41  42
ATOM     42  C   LIG A   1     -10.515   6.694 131.302  0.00  0.00    -0.025 A 
ATOM     43  C   LIG A   1     -11.904   6.858 131.343  0.00  0.00    +0.008 A 
ATOM     44  C   LIG A   1     -12.568   7.536 130.315  0.00  0.00    +0.001 A 
ATOM     45  C   LIG A   1     -11.852   8.043 129.233  0.00  0.00    +0.000 A 
ATOM     46  C   LIG A   1     -10.472   7.871 129.172  0.00  0.00    +0.001 A 
ATOM     47  C   LIG A   1      -9.809   7.196 130.198  0.00  0.00    +0.008 A 
ENDBRANCH  41  42
ENDBRANCH  38  40
ENDBRANCH  37  38
ENDBRANCH  11  37
TORSDOF 9
ENDMDL
MODEL 4
REMARK VINA RESULT:      -9.2      3.691      8.495
REMARK  Name = NuBBE_1294
REMARK  15 active torsions:
REMARK  status: ('A' for Active; 'I' for Inactive)
REMARK    1  A    between atoms: C_2  and  O_3
REMARK    2  A    between atoms: C_2  and  C_52
REMARK    3  A    between atoms: O_3  and  C_4
REMARK    4  A    between atoms: C_6  and  C_51
REMARK    5  A    between atoms: C_8  and  C_9
REMARK    6  A    between atoms: C_10  and  O_13
REMARK    7  A    between atoms: O_13  and  C_14
REMARK    8  A    between atoms: C_14  and  C_15
REMARK    9  A    between atoms: C_21  and  O_40
REMARK   10  A    between atoms: C_23  and  C_39
REMARK   11  A    between atoms: C_27  and  C_38
REMARK   12  A    between atoms: C_31  and  C_33
REMARK   13  A    between atoms: O_40  and  C_41
REMARK   14  A    between atoms: C_41  and  C_42
REMARK   15  A    between atoms: C_43  and  C_44
REMARK                            x       y       z     vdW  Elec       q    Type
REMARK                         _______ _______ _______ _____ _____    ______ ____
ROOT
ATOM      1  C   LIG A   1      -6.210  -1.752 129.643  0.00  0.00    +0.186 C 
ATOM      2  C   LIG A   1      -7.151  -0.587 130.118  0.00  0.00    +0.015 C 
ATOM      3  C   LIG A   1      -7.897   0.045 128.947  0.00  0.00    +0.043 C 
ATOM      4  C   LIG A   1      -7.624  -0.327 127.498  0.00  0.00    +0.034 C 
ATOM      5  C   LIG A   1      -6.345   0.159 126.780  0.00  0.00    +0.017 C 
ATOM      6  C   LIG A   1      -7.706  -1.857 127.443  0.00  0.00    +0.188 C 
ATOM      7  C   LIG A   1      -6.575  -2.468 128.307  0.00  0.00    +0.090 C 
ATOM      8  C   LIG A   1      -8.760   0.516 126.895  0.00  0.00    +0.171 C 
ATOM      9  O   LIG A   1      -8.682   1.778 127.620  0.00  0.00    -0.372 OA
ATOM     10  C   LIG A   1      -8.105   1.526 128.933  0.00  0.00    +0.164 C 
ATOM     11  C   LIG A   1      -6.869   2.412 129.222  0.00  0.00    +0.216 C 
ATOM     12  C   LIG A   1      -5.835   1.787 130.275  0.00  0.00    +0.032 C 
ATOM     13  C   LIG A   1      -6.510   0.563 131.018  0.00  0.00    +0.012 C 
ATOM     14  C   LIG A   1      -5.650   0.042 132.188  0.00  0.00    +0.006 C 
ATOM     15  C   LIG A   1      -5.498   1.123 133.261  0.00  0.00    +0.012 C 
ATOM     16  C   LIG A   1      -4.844   2.394 132.705  0.00  0.00    -0.003 C 
ATOM     17  C   LIG A   1      -5.292   2.796 131.298  0.00  0.00    -0.057 C 
ATOM     18  C   LIG A   1      -5.123   4.125 131.150  0.00  0.00    -0.026 C 
ATOM     19  C   LIG A   1      -4.758   4.801 132.440  0.00  0.00    +0.036 C 
ATOM     20  C   LIG A   1      -5.153   3.723 133.478  0.00  0.00    +0.036 C 
ATOM     21  C   LIG A   1      -3.303   2.150 132.728  0.00  0.00    +0.016 C 
ATOM     22  C   LIG A   1      -4.567   1.340 129.510  0.00  0.00    +0.020 C 
ATOM     23  C   LIG A   1      -8.281  -1.234 131.024  0.00  0.00    +0.015 C 
ENDROOT
BRANCH  20  24
ATOM     24  C   LIG A   1      -6.593   3.955 133.919  0.00  0.00    -0.005 A 
ATOM     25  C   LIG A   1      -7.074   4.640 135.021  0.00  0.00    +0.198 A 
ATOM     26  O   LIG A   1      -8.423   4.580 135.099  0.00  0.00    -0.471 OA
ATOM     27  C   LIG A   1      -8.838   3.818 134.060  0.00  0.00    +0.195 A 
ATOM     28  C   LIG A   1      -7.761   3.407 133.307  0.00  0.00    +0.045 A 
ENDBRANCH  20  24
BRANCH   1  29
ATOM     29  O   LIG A   1      -6.231  -2.747 130.698  0.00  0.00    -0.461 OA
BRANCH  29  31
ATOM     30  O   LIG A   1      -3.997  -3.019 131.127  0.00  0.00    -0.251 OA
ATOM     31  C   LIG A   1      -5.128  -3.476 130.958  0.00  0.00    +0.304 C 
ATOM     32  C   LIG A   1      -5.504  -4.919 131.097  0.00  0.00    +0.136 C 
ENDBRANCH  29  31
ENDBRANCH   1  29
BRANCH   6  33
ATOM     33  O   LIG A   1      -7.512  -2.286 126.084  0.00  0.00    -0.461 OA
BRANCH  33  34
ATOM     34  C   LIG A   1      -8.580  -2.854 125.468  0.00  0.00    +0.304 C 
ATOM     35  C   LIG A   1      -8.111  -3.669 124.302  0.00  0.00    +0.136 C 
ATOM     36  O   LIG A   1      -9.754  -2.669 125.763  0.00  0.00    -0.251 OA
ENDBRANCH  33  34
ENDBRANCH   6  33
BRANCH  11  37
ATOM     37  O   LIG A   1      -7.488   3.649 129.681  0.00  0.00    -0.455 OA
BRANCH  37  38
ATOM     38  C   LIG A   1      -7.616   4.599 128.717  0.00  0.00    +0.332 C 
ATOM     39  O   LIG A   1      -6.946   4.697 127.697  0.00  0.00    -0.246 OA
BRANCH  38  40
ATOM     40  C   LIG A   1      -8.807   5.434 128.938  0.00  0.00    +0.092 C 
ATOM     41  C   LIG A   1      -9.262   5.826 130.137  0.00  0.00    +0.015 C 
BRANCH  41  42
ATOM     42  C   LIG A   1     -10.508   6.589 130.298  0.00  0.00    -0.025 A 
ATOM     43  C   LIG A   1     -10.826   7.591 129.375  0.00  0.00    +0.008 A 
ATOM     44  C   LIG A   1     -11.986   8.356 129.529  0.00  0.00    +0.001 A 
ATOM     45  C   LIG A   1     -12.832   8.135 130.615  0.00  0.00    +0.000 A 
ATOM     46  C   LIG A   1     -12.518   7.152 131.549  0.00  0.00    +0.001 A 
ATOM     47  C   LIG A   1     -11.360   6.389 131.395  0.00  0.00    +0.008 A 
ENDBRANCH  41  42
ENDBRANCH  38  40
ENDBRANCH  37  38
ENDBRANCH  11  37
TORSDOF 9
ENDMDL
MODEL 5
REMARK VINA RESULT:      -9.1      2.243      8.203
REMARK  Name = NuBBE_1294
REMARK  15 active torsions:
REMARK  status: ('A' for Active; 'I' for Inactive)
REMARK    1  A    between atoms: C_2  and  O_3
REMARK    2  A    between atoms: C_2  and  C_52
REMARK    3  A    between atoms: O_3  and  C_4
REMARK    4  A    between atoms: C_6  and  C_51
REMARK    5  A    between atoms: C_8  and  C_9
REMARK    6  A    between atoms: C_10  and  O_13
REMARK    7  A    between atoms: O_13  and  C_14
REMARK    8  A    between atoms: C_14  and  C_15
REMARK    9  A    between atoms: C_21  and  O_40
REMARK   10  A    between atoms: C_23  and  C_39
REMARK   11  A    between atoms: C_27  and  C_38
REMARK   12  A    between atoms: C_31  and  C_33
REMARK   13  A    between atoms: O_40  and  C_41
REMARK   14  A    between atoms: C_41  and  C_42
REMARK   15  A    between atoms: C_43  and  C_44
REMARK                            x       y       z     vdW  Elec       q    Type
REMARK                         _______ _______ _______ _____ _____    ______ ____
ROOT
ATOM      1  C   LIG A   1      -7.424   0.537 124.188  0.00  0.00    +0.186 C 
ATOM      2  C   LIG A   1      -7.957   1.118 125.546  0.00  0.00    +0.015 C 
ATOM      3  C   LIG A   1      -7.833   2.638 125.594  0.00  0.00    +0.043 C 
ATOM      4  C   LIG A   1      -7.134   3.443 124.510  0.00  0.00    +0.034 C 
ATOM      5  C   LIG A   1      -5.594   3.448 124.391  0.00  0.00    +0.017 C 
ATOM      6  C   LIG A   1      -7.759   2.982 123.187  0.00  0.00    +0.188 C 
ATOM      7  C   LIG A   1      -7.428   1.486 122.952  0.00  0.00    +0.090 C 
ATOM      8  C   LIG A   1      -7.493   4.827 125.076  0.00  0.00    +0.171 C 
ATOM      9  O   LIG A   1      -7.257   4.690 126.507  0.00  0.00    -0.372 OA
ATOM     10  C   LIG A   1      -7.436   3.294 126.878  0.00  0.00    +0.164 C 
ATOM     11  C   LIG A   1      -6.206   2.710 127.615  0.00  0.00    +0.216 C 
ATOM     12  C   LIG A   1      -6.041   1.121 127.475  0.00  0.00    +0.032 C 
ATOM     13  C   LIG A   1      -7.376   0.498 126.896  0.00  0.00    +0.012 C 
ATOM     14  C   LIG A   1      -7.363  -1.044 126.928  0.00  0.00    +0.006 C 
ATOM     15  C   LIG A   1      -7.284  -1.547 128.371  0.00  0.00    +0.012 C 
ATOM     16  C   LIG A   1      -6.028  -1.036 129.087  0.00  0.00    -0.003 C 
ATOM     17  C   LIG A   1      -5.646   0.413 128.780  0.00  0.00    -0.057 C 
ATOM     18  C   LIG A   1      -4.940   0.907 129.817  0.00  0.00    -0.026 C 
ATOM     19  C   LIG A   1      -4.931  -0.022 130.996  0.00  0.00    +0.036 C 
ATOM     20  C   LIG A   1      -6.106  -0.970 130.653  0.00  0.00    +0.036 C 
ATOM     21  C   LIG A   1      -4.864  -1.995 128.686  0.00  0.00    +0.016 C 
ATOM     22  C   LIG A   1      -4.844   0.834 126.539  0.00  0.00    +0.020 C 
ATOM     23  C   LIG A   1      -9.516   0.832 125.602  0.00  0.00    +0.015 C 
ENDROOT
BRANCH  20  24
ATOM     24  C   LIG A   1      -7.389  -0.422 131.264  0.00  0.00    -0.005 A 
ATOM     25  C   LIG A   1      -8.181  -0.954 132.267  0.00  0.00    +0.198 A 
ATOM     26  O   LIG A   1      -9.274  -0.192 132.499  0.00  0.00    -0.471 OA
ATOM     27  C   LIG A   1      -9.225   0.835 131.619  0.00  0.00    +0.195 A 
ATOM     28  C   LIG A   1      -8.096   0.744 130.838  0.00  0.00    +0.045 A 
ENDBRANCH  20  24
BRANCH   1  29
ATOM     29  O   LIG A   1      -8.267  -0.601 123.874  0.00  0.00    -0.461 OA
BRANCH  29  31
ATOM     30  O   LIG A   1      -6.592  -1.812 122.885  0.00  0.00    -0.251 OA
ATOM     31  C   LIG A   1      -7.720  -1.726 123.372  0.00  0.00    +0.304 C 
ATOM     32  C   LIG A   1      -8.661  -2.873 123.576  0.00  0.00    +0.136 C 
ENDBRANCH  29  31
ENDBRANCH   1  29
BRANCH   6  33
ATOM     33  O   LIG A   1      -7.186   3.742 122.110  0.00  0.00    -0.461 OA
BRANCH  33  34
ATOM     34  C   LIG A   1      -7.871   3.747 120.938  0.00  0.00    +0.304 C 
ATOM     35  C   LIG A   1      -6.940   4.084 119.814  0.00  0.00    +0.136 C 
ATOM     36  O   LIG A   1      -9.078   3.583 120.818  0.00  0.00    -0.251 OA
ENDBRANCH  33  34
ENDBRANCH   6  33
BRANCH  11  37
ATOM     37  O   LIG A   1      -6.441   3.150 128.984  0.00  0.00    -0.455 OA
BRANCH  37  38
ATOM     38  C   LIG A   1      -5.624   4.158 129.393  0.00  0.00    +0.332 C 
ATOM     39  O   LIG A   1      -4.781   4.731 128.716  0.00  0.00    -0.246 OA
BRANCH  38  40
ATOM     40  C   LIG A   1      -5.989   4.637 130.735  0.00  0.00    +0.092 C 
ATOM     41  C   LIG A   1      -5.998   3.885 131.845  0.00  0.00    +0.015 C 
BRANCH  41  42
ATOM     42  C   LIG A   1      -6.455   4.400 133.144  0.00  0.00    -0.025 A 
ATOM     43  C   LIG A   1      -7.719   4.037 133.622  0.00  0.00    +0.008 A 
ATOM     44  C   LIG A   1      -8.190   4.545 134.837  0.00  0.00    +0.001 A 
ATOM     45  C   LIG A   1      -7.409   5.430 135.576  0.00  0.00    +0.000 A 
ATOM     46  C   LIG A   1      -6.157   5.813 135.103  0.00  0.00    +0.001 A 
ATOM     47  C   LIG A   1      -5.687   5.305 133.891  0.00  0.00    +0.008 A 
ENDBRANCH  41  42
ENDBRANCH  38  40
ENDBRANCH  37  38
ENDBRANCH  11  37
TORSDOF 9
ENDMDL
MODEL 6
REMARK VINA RESULT:      -9.0      2.997      6.606
REMARK  Name = NuBBE_1294
REMARK  15 active torsions:
REMARK  status: ('A' for Active; 'I' for Inactive)
REMARK    1  A    between atoms: C_2  and  O_3
REMARK    2  A    between atoms: C_2  and  C_52
REMARK    3  A    between atoms: O_3  and  C_4
REMARK    4  A    between atoms: C_6  and  C_51
REMARK    5  A    between atoms: C_8  and  C_9
REMARK    6  A    between atoms: C_10  and  O_13
REMARK    7  A    between atoms: O_13  and  C_14
REMARK    8  A    between atoms: C_14  and  C_15
REMARK    9  A    between atoms: C_21  and  O_40
REMARK   10  A    between atoms: C_23  and  C_39
REMARK   11  A    between atoms: C_27  and  C_38
REMARK   12  A    between atoms: C_31  and  C_33
REMARK   13  A    between atoms: O_40  and  C_41
REMARK   14  A    between atoms: C_41  and  C_42
REMARK   15  A    between atoms: C_43  and  C_44
REMARK                            x       y       z     vdW  Elec       q    Type
REMARK                         _______ _______ _______ _____ _____    ______ ____
ROOT
ATOM      1  C   LIG A   1      -4.480   5.861 132.216  0.00  0.00    +0.186 C 
ATOM      2  C   LIG A   1      -5.662   5.454 131.265  0.00  0.00    +0.015 C 
ATOM      3  C   LIG A   1      -6.656   4.533 131.966  0.00  0.00    +0.043 C 
ATOM      4  C   LIG A   1      -6.420   3.975 133.361  0.00  0.00    +0.034 C 
ATOM      5  C   LIG A   1      -5.397   2.843 133.601  0.00  0.00    +0.017 C 
ATOM      6  C   LIG A   1      -6.077   5.186 134.237  0.00  0.00    +0.188 C 
ATOM      7  C   LIG A   1      -4.748   5.817 133.751  0.00  0.00    +0.090 C 
ATOM      8  C   LIG A   1      -7.795   3.301 133.503  0.00  0.00    +0.171 C 
ATOM      9  O   LIG A   1      -8.007   2.664 132.209  0.00  0.00    -0.372 OA
ATOM     10  C   LIG A   1      -7.269   3.406 131.198  0.00  0.00    +0.164 C 
ATOM     11  C   LIG A   1      -6.307   2.508 130.381  0.00  0.00    +0.216 C 
ATOM     12  C   LIG A   1      -5.050   3.279 129.753  0.00  0.00    +0.032 C 
ATOM     13  C   LIG A   1      -5.289   4.842 129.840  0.00  0.00    +0.012 C 
ATOM     14  C   LIG A   1      -4.217   5.641 129.071  0.00  0.00    +0.006 C 
ATOM     15  C   LIG A   1      -4.278   5.314 127.577  0.00  0.00    +0.012 C 
ATOM     16  C   LIG A   1      -4.056   3.820 127.308  0.00  0.00    -0.003 C 
ATOM     17  C   LIG A   1      -4.721   2.872 128.308  0.00  0.00    -0.057 C 
ATOM     18  C   LIG A   1      -4.943   1.688 127.704  0.00  0.00    -0.026 C 
ATOM     19  C   LIG A   1      -4.668   1.739 126.229  0.00  0.00    +0.036 C 
ATOM     20  C   LIG A   1      -4.653   3.265 125.969  0.00  0.00    +0.036 C 
ATOM     21  C   LIG A   1      -2.512   3.593 127.299  0.00  0.00    +0.016 C 
ATOM     22  C   LIG A   1      -3.782   2.868 130.535  0.00  0.00    +0.020 C 
ATOM     23  C   LIG A   1      -6.482   6.773 130.942  0.00  0.00    +0.015 C 
ENDROOT
BRANCH  20  24
ATOM     24  C   LIG A   1      -6.055   3.723 125.587  0.00  0.00    -0.005 A 
ATOM     25  C   LIG A   1      -6.526   5.002 125.350  0.00  0.00    +0.198 A 
ATOM     26  O   LIG A   1      -7.853   5.006 125.086  0.00  0.00    -0.471 OA
ATOM     27  C   LIG A   1      -8.272   3.723 125.185  0.00  0.00    +0.195 A 
ATOM     28  C   LIG A   1      -7.216   2.896 125.491  0.00  0.00    +0.045 A 
ENDBRANCH  20  24
BRANCH   1  29
ATOM     29  O   LIG A   1      -4.129   7.225 131.868  0.00  0.00    -0.461 OA
BRANCH  29  31
ATOM     30  O   LIG A   1      -2.575   8.727 132.628  0.00  0.00    -0.251 OA
ATOM     31  C   LIG A   1      -2.874   7.670 132.072  0.00  0.00    +0.304 C 
ATOM     32  C   LIG A   1      -1.895   6.639 131.598  0.00  0.00    +0.136 C 
ENDBRANCH  29  31
ENDBRANCH   1  29
BRANCH   6  33
ATOM     33  O   LIG A   1      -5.893   4.744 135.593  0.00  0.00    -0.461 OA
BRANCH  33  34
ATOM     34  C   LIG A   1      -6.357   5.567 136.568  0.00  0.00    +0.304 C 
ATOM     35  C   LIG A   1      -7.723   6.058 136.201  0.00  0.00    +0.136 C 
ATOM     36  O   LIG A   1      -5.730   5.922 137.558  0.00  0.00    -0.251 OA
ENDBRANCH  33  34
ENDBRANCH   6  33
BRANCH  11  37
ATOM     37  O   LIG A   1      -7.203   1.945 129.379  0.00  0.00    -0.455 OA
BRANCH  37  38
ATOM     38  C   LIG A   1      -7.375   0.599 129.479  0.00  0.00    +0.332 C 
ATOM     39  O   LIG A   1      -7.258  -0.076 130.493  0.00  0.00    -0.246 OA
BRANCH  38  40
ATOM     40  C   LIG A   1      -7.912   0.030 128.233  0.00  0.00    +0.092 C 
ATOM     41  C   LIG A   1      -7.507  -1.119 127.673  0.00  0.00    +0.015 C 
BRANCH  41  42
ATOM     42  C   LIG A   1      -8.023  -1.592 126.381  0.00  0.00    -0.025 A 
ATOM     43  C   LIG A   1      -8.754  -2.784 126.325  0.00  0.00    +0.008 A 
ATOM     44  C   LIG A   1      -9.221  -3.273 125.101  0.00  0.00    +0.001 A 
ATOM     45  C   LIG A   1      -8.950  -2.584 123.921  0.00  0.00    +0.000 A 
ATOM     46  C   LIG A   1      -8.208  -1.406 123.961  0.00  0.00    +0.001 A 
ATOM     47  C   LIG A   1      -7.743  -0.918 125.182  0.00  0.00    +0.008 A 
ENDBRANCH  41  42
ENDBRANCH  38  40
ENDBRANCH  37  38
ENDBRANCH  11  37
TORSDOF 9
ENDMDL
MODEL 7
REMARK VINA RESULT:      -8.8      3.074      6.768
REMARK  Name = NuBBE_1294
REMARK  15 active torsions:
REMARK  status: ('A' for Active; 'I' for Inactive)
REMARK    1  A    between atoms: C_2  and  O_3
REMARK    2  A    between atoms: C_2  and  C_52
REMARK    3  A    between atoms: O_3  and  C_4
REMARK    4  A    between atoms: C_6  and  C_51
REMARK    5  A    between atoms: C_8  and  C_9
REMARK    6  A    between atoms: C_10  and  O_13
REMARK    7  A    between atoms: O_13  and  C_14
REMARK    8  A    between atoms: C_14  and  C_15
REMARK    9  A    between atoms: C_21  and  O_40
REMARK   10  A    between atoms: C_23  and  C_39
REMARK   11  A    between atoms: C_27  and  C_38
REMARK   12  A    between atoms: C_31  and  C_33
REMARK   13  A    between atoms: O_40  and  C_41
REMARK   14  A    between atoms: C_41  and  C_42
REMARK   15  A    between atoms: C_43  and  C_44
REMARK                            x       y       z     vdW  Elec       q    Type
REMARK                         _______ _______ _______ _____ _____    ______ ____
ROOT
ATOM      1  C   LIG A   1      -8.178   2.366 130.367  0.00  0.00    +0.186 C 
ATOM      2  C   LIG A   1      -6.708   1.816 130.439  0.00  0.00    +0.015 C 
ATOM      3  C   LIG A   1      -6.111   1.627 129.047  0.00  0.00    +0.043 C 
ATOM      4  C   LIG A   1      -6.918   1.810 127.772  0.00  0.00    +0.034 C 
ATOM      5  C   LIG A   1      -7.957   0.755 127.330  0.00  0.00    +0.017 C 
ATOM      6  C   LIG A   1      -7.589   3.183 127.903  0.00  0.00    +0.188 C 
ATOM      7  C   LIG A   1      -8.584   3.163 129.091  0.00  0.00    +0.090 C 
ATOM      8  C   LIG A   1      -5.737   1.632 126.804  0.00  0.00    +0.171 C 
ATOM      9  O   LIG A   1      -5.004   0.497 127.352  0.00  0.00    -0.372 OA
ATOM     10  C   LIG A   1      -5.240   0.439 128.787  0.00  0.00    +0.164 C 
ATOM     11  C   LIG A   1      -5.774  -0.939 129.249  0.00  0.00    +0.216 C 
ATOM     12  C   LIG A   1      -6.642  -0.897 130.596  0.00  0.00    +0.032 C 
ATOM     13  C   LIG A   1      -6.450   0.503 131.308  0.00  0.00    +0.012 C 
ATOM     14  C   LIG A   1      -7.090   0.539 132.711  0.00  0.00    +0.006 C 
ATOM     15  C   LIG A   1      -6.407  -0.472 133.635  0.00  0.00    +0.012 C 
ATOM     16  C   LIG A   1      -6.507  -1.903 133.091  0.00  0.00    -0.003 C 
ATOM     17  C   LIG A   1      -6.334  -2.039 131.577  0.00  0.00    -0.057 C 
ATOM     18  C   LIG A   1      -5.887  -3.280 131.300  0.00  0.00    -0.026 C 
ATOM     19  C   LIG A   1      -5.514  -4.042 132.538  0.00  0.00    +0.036 C 
ATOM     20  C   LIG A   1      -5.405  -2.904 133.582  0.00  0.00    +0.036 C 
ATOM     21  C   LIG A   1      -7.904  -2.447 133.523  0.00  0.00    +0.016 C 
ATOM     22  C   LIG A   1      -8.126  -1.135 130.230  0.00  0.00    +0.020 C 
ATOM     23  C   LIG A   1      -5.818   2.939 131.119  0.00  0.00    +0.015 C 
ENDROOT
BRANCH  20  24
ATOM     24  C   LIG A   1      -3.969  -2.397 133.623  0.00  0.00    -0.005 A 
ATOM     25  C   LIG A   1      -2.802  -3.088 133.896  0.00  0.00    +0.198 A 
ATOM     26  O   LIG A   1      -1.724  -2.271 133.888  0.00  0.00    -0.471 OA
ATOM     27  C   LIG A   1      -2.184  -1.023 133.643  0.00  0.00    +0.195 A 
ATOM     28  C   LIG A   1      -3.550  -1.040 133.475  0.00  0.00    +0.045 A 
ENDBRANCH  20  24
BRANCH   1  29
ATOM     29  O   LIG A   1      -8.338   3.248 131.508  0.00  0.00    -0.461 OA
BRANCH  29  31
ATOM     30  O   LIG A   1     -10.152   2.114 132.331  0.00  0.00    -0.251 OA
ATOM     31  C   LIG A   1      -9.334   3.033 132.390  0.00  0.00    +0.304 C 
ATOM     32  C   LIG A   1      -9.239   4.031 133.504  0.00  0.00    +0.136 C 
ENDBRANCH  29  31
ENDBRANCH   1  29
BRANCH   6  33
ATOM     33  O   LIG A   1      -8.332   3.455 126.702  0.00  0.00    -0.461 OA
BRANCH  33  34
ATOM     34  C   LIG A   1      -8.172   4.687 126.155  0.00  0.00    +0.304 C 
ATOM     35  C   LIG A   1      -6.830   4.772 125.495  0.00  0.00    +0.136 C 
ATOM     36  O   LIG A   1      -8.961   5.618 126.251  0.00  0.00    -0.251 OA
ENDBRANCH  33  34
ENDBRANCH   6  33
BRANCH  11  37
ATOM     37  O   LIG A   1      -4.544  -1.710 129.375  0.00  0.00    -0.455 OA
BRANCH  37  38
ATOM     38  C   LIG A   1      -4.446  -2.749 128.502  0.00  0.00    +0.332 C 
ATOM     39  O   LIG A   1      -3.567  -3.601 128.481  0.00  0.00    -0.246 OA
BRANCH  38  40
ATOM     40  C   LIG A   1      -5.647  -2.860 127.659  0.00  0.00    +0.092 C 
ATOM     41  C   LIG A   1      -5.686  -2.626 126.339  0.00  0.00    +0.015 C 
BRANCH  41  42
ATOM     42  C   LIG A   1      -6.935  -2.670 125.566  0.00  0.00    -0.025 A 
ATOM     43  C   LIG A   1      -8.152  -2.843 126.234  0.00  0.00    +0.008 A 
ATOM     44  C   LIG A   1      -9.350  -2.926 125.516  0.00  0.00    +0.001 A 
ATOM     45  C   LIG A   1      -9.339  -2.852 124.125  0.00  0.00    +0.000 A 
ATOM     46  C   LIG A   1      -8.133  -2.697 123.448  0.00  0.00    +0.001 A 
ATOM     47  C   LIG A   1      -6.938  -2.613 124.164  0.00  0.00    +0.008 A 
ENDBRANCH  41  42
ENDBRANCH  38  40
ENDBRANCH  37  38
ENDBRANCH  11  37
TORSDOF 9
ENDMDL
MODEL 8
REMARK VINA RESULT:      -8.7      3.505      7.939
REMARK  Name = NuBBE_1294
REMARK  15 active torsions:
REMARK  status: ('A' for Active; 'I' for Inactive)
REMARK    1  A    between atoms: C_2  and  O_3
REMARK    2  A    between atoms: C_2  and  C_52
REMARK    3  A    between atoms: O_3  and  C_4
REMARK    4  A    between atoms: C_6  and  C_51
REMARK    5  A    between atoms: C_8  and  C_9
REMARK    6  A    between atoms: C_10  and  O_13
REMARK    7  A    between atoms: O_13  and  C_14
REMARK    8  A    between atoms: C_14  and  C_15
REMARK    9  A    between atoms: C_21  and  O_40
REMARK   10  A    between atoms: C_23  and  C_39
REMARK   11  A    between atoms: C_27  and  C_38
REMARK   12  A    between atoms: C_31  and  C_33
REMARK   13  A    between atoms: O_40  and  C_41
REMARK   14  A    between atoms: C_41  and  C_42
REMARK   15  A    between atoms: C_43  and  C_44
REMARK                            x       y       z     vdW  Elec       q    Type
REMARK                         _______ _______ _______ _____ _____    ______ ____
ROOT
ATOM      1  C   LIG A   1      -4.426   6.034 132.395  0.00  0.00    +0.186 C 
ATOM      2  C   LIG A   1      -5.673   5.557 131.567  0.00  0.00    +0.015 C 
ATOM      3  C   LIG A   1      -6.668   4.796 132.439  0.00  0.00    +0.043 C 
ATOM      4  C   LIG A   1      -6.383   4.428 133.886  0.00  0.00    +0.034 C 
ATOM      5  C   LIG A   1      -5.398   3.291 134.238  0.00  0.00    +0.017 C 
ATOM      6  C   LIG A   1      -5.942   5.731 134.563  0.00  0.00    +0.188 C 
ATOM      7  C   LIG A   1      -4.614   6.220 133.931  0.00  0.00    +0.090 C 
ATOM      8  C   LIG A   1      -7.776   3.852 134.186  0.00  0.00    +0.171 C 
ATOM      9  O   LIG A   1      -8.084   3.051 133.008  0.00  0.00    -0.372 OA
ATOM     10  C   LIG A   1      -7.369   3.605 131.868  0.00  0.00    +0.164 C 
ATOM     11  C   LIG A   1      -6.493   2.553 131.145  0.00  0.00    +0.216 C 
ATOM     12  C   LIG A   1      -5.238   3.163 130.355  0.00  0.00    +0.032 C 
ATOM     13  C   LIG A   1      -5.404   4.733 130.229  0.00  0.00    +0.012 C 
ATOM     14  C   LIG A   1      -4.340   5.361 129.305  0.00  0.00    +0.006 C 
ATOM     15  C   LIG A   1      -4.494   4.830 127.877  0.00  0.00    +0.012 C 
ATOM     16  C   LIG A   1      -4.352   3.304 127.815  0.00  0.00    -0.003 C 
ATOM     17  C   LIG A   1      -5.004   2.541 128.970  0.00  0.00    -0.057 C 
ATOM     18  C   LIG A   1      -5.310   1.296 128.552  0.00  0.00    -0.026 C 
ATOM     19  C   LIG A   1      -5.111   1.125 127.074  0.00  0.00    +0.036 C 
ATOM     20  C   LIG A   1      -5.043   2.597 126.598  0.00  0.00    +0.036 C 
ATOM     21  C   LIG A   1      -2.823   3.000 127.767  0.00  0.00    +0.016 C 
ATOM     22  C   LIG A   1      -3.949   2.802 131.129  0.00  0.00    +0.020 C 
ATOM     23  C   LIG A   1      -6.451   6.857 131.097  0.00  0.00    +0.015 C 
ENDROOT
BRANCH  20  24
ATOM     24  C   LIG A   1      -6.442   3.067 126.220  0.00  0.00    -0.005 A 
ATOM     25  C   LIG A   1      -7.670   2.525 126.556  0.00  0.00    +0.198 A 
ATOM     26  O   LIG A   1      -8.690   3.202 125.982  0.00  0.00    -0.471 OA
ATOM     27  C   LIG A   1      -8.133   4.179 125.229  0.00  0.00    +0.195 A 
ATOM     28  C   LIG A   1      -6.761   4.142 125.336  0.00  0.00    +0.045 A 
ENDBRANCH  20  24
BRANCH   1  29
ATOM     29  O   LIG A   1      -4.035   7.315 131.839  0.00  0.00    -0.461 OA
BRANCH  29  31
ATOM     30  O   LIG A   1      -2.490   8.841 132.572  0.00  0.00    -0.251 OA
ATOM     31  C   LIG A   1      -2.783   7.776 132.027  0.00  0.00    +0.304 C 
ATOM     32  C   LIG A   1      -1.797   6.753 131.551  0.00  0.00    +0.136 C 
ENDBRANCH  29  31
ENDBRANCH   1  29
BRANCH   6  33
ATOM     33  O   LIG A   1      -5.705   5.475 135.958  0.00  0.00    -0.461 OA
BRANCH  33  34
ATOM     34  C   LIG A   1      -6.141   6.420 136.831  0.00  0.00    +0.304 C 
ATOM     35  C   LIG A   1      -7.629   6.322 136.973  0.00  0.00    +0.136 C 
ATOM     36  O   LIG A   1      -5.445   7.275 137.362  0.00  0.00    -0.251 OA
ENDBRANCH  33  34
ENDBRANCH   6  33
BRANCH  11  37
ATOM     37  O   LIG A   1      -7.464   1.901 130.276  0.00  0.00    -0.455 OA
BRANCH  37  38
ATOM     38  C   LIG A   1      -8.165   0.901 130.876  0.00  0.00    +0.332 C 
ATOM     39  O   LIG A   1      -9.343   0.935 131.207  0.00  0.00    -0.246 OA
BRANCH  38  40
ATOM     40  C   LIG A   1      -7.386  -0.346 130.930  0.00  0.00    +0.092 C 
ATOM     41  C   LIG A   1      -7.881  -1.550 131.251  0.00  0.00    +0.015 C 
BRANCH  41  42
ATOM     42  C   LIG A   1      -7.034  -2.745 131.372  0.00  0.00    -0.025 A 
ATOM     43  C   LIG A   1      -6.748  -3.260 132.641  0.00  0.00    +0.008 A 
ATOM     44  C   LIG A   1      -5.913  -4.373 132.783  0.00  0.00    +0.001 A 
ATOM     45  C   LIG A   1      -5.346  -4.972 131.660  0.00  0.00    +0.000 A 
ATOM     46  C   LIG A   1      -5.610  -4.459 130.393  0.00  0.00    +0.001 A 
ATOM     47  C   LIG A   1      -6.443  -3.349 130.252  0.00  0.00    +0.008 A 
ENDBRANCH  41  42
ENDBRANCH  38  40
ENDBRANCH  37  38
ENDBRANCH  11  37
TORSDOF 9
ENDMDL
MODEL 9
REMARK VINA RESULT:      -8.7      3.017      7.436
REMARK  Name = NuBBE_1294
REMARK  15 active torsions:
REMARK  status: ('A' for Active; 'I' for Inactive)
REMARK    1  A    between atoms: C_2  and  O_3
REMARK    2  A    between atoms: C_2  and  C_52
REMARK    3  A    between atoms: O_3  and  C_4
REMARK    4  A    between atoms: C_6  and  C_51
REMARK    5  A    between atoms: C_8  and  C_9
REMARK    6  A    between atoms: C_10  and  O_13
REMARK    7  A    between atoms: O_13  and  C_14
REMARK    8  A    between atoms: C_14  and  C_15
REMARK    9  A    between atoms: C_21  and  O_40
REMARK   10  A    between atoms: C_23  and  C_39
REMARK   11  A    between atoms: C_27  and  C_38
REMARK   12  A    between atoms: C_31  and  C_33
REMARK   13  A    between atoms: O_40  and  C_41
REMARK   14  A    between atoms: C_41  and  C_42
REMARK   15  A    between atoms: C_43  and  C_44
REMARK                            x       y       z     vdW  Elec       q    Type
REMARK                         _______ _______ _______ _____ _____    ______ ____
ROOT
ATOM      1  C   LIG A   1      -4.704   3.209 126.710  0.00  0.00    +0.186 C 
ATOM      2  C   LIG A   1      -5.491   2.129 127.536  0.00  0.00    +0.015 C 
ATOM      3  C   LIG A   1      -6.942   2.018 127.078  0.00  0.00    +0.043 C 
ATOM      4  C   LIG A   1      -7.556   2.959 126.054  0.00  0.00    +0.034 C 
ATOM      5  C   LIG A   1      -7.919   4.414 126.426  0.00  0.00    +0.017 C 
ATOM      6  C   LIG A   1      -6.597   2.948 124.857  0.00  0.00    +0.188 C 
ATOM      7  C   LIG A   1      -5.231   3.544 125.282  0.00  0.00    +0.090 C 
ATOM      8  C   LIG A   1      -8.906   2.230 125.950  0.00  0.00    +0.171 C 
ATOM      9  O   LIG A   1      -9.244   1.923 127.334  0.00  0.00    -0.372 OA
ATOM     10  C   LIG A   1      -8.012   1.808 128.101  0.00  0.00    +0.164 C 
ATOM     11  C   LIG A   1      -7.991   2.736 129.341  0.00  0.00    +0.216 C 
ATOM     12  C   LIG A   1      -6.524   3.156 129.831  0.00  0.00    +0.032 C 
ATOM     13  C   LIG A   1      -5.446   2.236 129.127  0.00  0.00    +0.012 C 
ATOM     14  C   LIG A   1      -4.031   2.445 129.706  0.00  0.00    +0.006 C 
ATOM     15  C   LIG A   1      -3.993   2.040 131.181  0.00  0.00    +0.012 C 
ATOM     16  C   LIG A   1      -4.987   2.851 132.023  0.00  0.00    -0.003 C 
ATOM     17  C   LIG A   1      -6.338   3.120 131.356  0.00  0.00    -0.057 C 
ATOM     18  C   LIG A   1      -7.267   3.309 132.315  0.00  0.00    -0.026 C 
ATOM     19  C   LIG A   1      -6.743   2.998 133.687  0.00  0.00    +0.036 C 
ATOM     20  C   LIG A   1      -5.471   2.179 133.355  0.00  0.00    +0.036 C 
ATOM     21  C   LIG A   1      -4.282   4.199 132.370  0.00  0.00    +0.016 C 
ATOM     22  C   LIG A   1      -6.298   4.644 129.481  0.00  0.00    +0.020 C 
ATOM     23  C   LIG A   1      -4.846   0.719 127.202  0.00  0.00    +0.015 C 
ENDROOT
BRANCH  20  24
ATOM     24  C   LIG A   1      -5.826   0.699 133.301  0.00  0.00    -0.005 A 
ATOM     25  C   LIG A   1      -5.834  -0.239 134.318  0.00  0.00    +0.198 A 
ATOM     26  O   LIG A   1      -6.159  -1.470 133.861  0.00  0.00    -0.471 OA
ATOM     27  C   LIG A   1      -6.332  -1.354 132.524  0.00  0.00    +0.195 A 
ATOM     28  C   LIG A   1      -6.140  -0.051 132.127  0.00  0.00    +0.045 A 
ENDBRANCH  20  24
BRANCH   1  29
ATOM     29  O   LIG A   1      -3.348   2.710 126.575  0.00  0.00    -0.461 OA
BRANCH  29  31
ATOM     30  O   LIG A   1      -2.387   4.615 127.408  0.00  0.00    -0.251 OA
ATOM     31  C   LIG A   1      -2.305   3.504 126.883  0.00  0.00    +0.304 C 
ATOM     32  C   LIG A   1      -1.025   2.791 126.571  0.00  0.00    +0.136 C 
ENDBRANCH  29  31
ENDBRANCH   1  29
BRANCH   6  33
ATOM     33  O   LIG A   1      -7.142   3.778 123.816  0.00  0.00    -0.461 OA
BRANCH  33  34
ATOM     34  C   LIG A   1      -7.468   3.157 122.653  0.00  0.00    +0.304 C 
ATOM     35  C   LIG A   1      -6.263   3.085 121.767  0.00  0.00    +0.136 C 
ATOM     36  O   LIG A   1      -8.590   2.784 122.335  0.00  0.00    -0.251 OA
ENDBRANCH  33  34
ENDBRANCH   6  33
BRANCH  11  37
ATOM     37  O   LIG A   1      -8.726   1.944 130.319  0.00  0.00    -0.455 OA
BRANCH  37  38
ATOM     38  C   LIG A   1      -9.883   2.519 130.744  0.00  0.00    +0.332 C 
ATOM     39  O   LIG A   1     -10.640   2.084 131.602  0.00  0.00    -0.246 OA
BRANCH  38  40
ATOM     40  C   LIG A   1     -10.058   3.865 130.175  0.00  0.00    +0.092 C 
ATOM     41  C   LIG A   1     -10.936   4.779 130.614  0.00  0.00    +0.015 C 
BRANCH  41  42
ATOM     42  C   LIG A   1     -11.123   6.076 129.949  0.00  0.00    -0.025 A 
ATOM     43  C   LIG A   1     -12.306   6.793 130.160  0.00  0.00    +0.008 A 
ATOM     44  C   LIG A   1     -12.523   8.011 129.508  0.00  0.00    +0.001 A 
ATOM     45  C   LIG A   1     -11.567   8.515 128.629  0.00  0.00    +0.000 A 
ATOM     46  C   LIG A   1     -10.394   7.803 128.396  0.00  0.00    +0.001 A 
ATOM     47  C   LIG A   1     -10.177   6.588 129.048  0.00  0.00    +0.008 A 
ENDBRANCH  41  42
ENDBRANCH  38  40
ENDBRANCH  37  38
ENDBRANCH  11  37
TORSDOF 9
ENDMDL
