MODEL 1
REMARK VINA RESULT:      -6.6      0.000      0.000
REMARK  Name = NuBBE_1883
REMARK  15 active torsions:
REMARK  status: ('A' for Active; 'I' for Inactive)
REMARK    1  A    between atoms: C_4  and  O_30
REMARK    2  A    between atoms: C_5  and  O_6
REMARK    3  A    between atoms: O_6  and  C_7
REMARK    4  A    between atoms: C_8  and  O_28
REMARK    5  A    between atoms: C_12  and  C_13
REMARK    6  A    between atoms: C_15  and  O_16
REMARK    7  A    between atoms: O_16  and  C_17
REMARK    8  A    between atoms: C_18  and  O_23
REMARK    9  A    between atoms: C_20  and  O_21
REMARK   10  A    between atoms: O_21  and  C_22
REMARK   11  A    between atoms: O_23  and  C_24
REMARK   12  A    between atoms: C_25  and  O_26
REMARK   13  A    between atoms: O_26  and  C_27
REMARK   14  A    between atoms: O_28  and  C_29
REMARK   15  A    between atoms: O_30  and  C_31
REMARK                            x       y       z     vdW  Elec       q    Type
REMARK                         _______ _______ _______ _____ _____    ______ ____
ROOT
ATOM      1  O   LIG A   1      -8.038   5.250 129.337  0.00  0.00    -0.283 OA
ATOM      2  C   LIG A   1      -7.452   4.312 128.828  0.00  0.00    +0.238 A 
ATOM      3  C   LIG A   1      -5.994   4.332 128.519  0.00  0.00    +0.113 A 
ATOM      4  C   LIG A   1      -5.016   4.881 129.370  0.00  0.00    +0.180 A 
ATOM      5  C   LIG A   1      -3.656   4.769 129.002  0.00  0.00    +0.204 A 
ATOM      6  C   LIG A   1      -3.308   4.200 127.744  0.00  0.00    +0.169 A 
ATOM      7  C   LIG A   1      -4.306   3.670 126.923  0.00  0.00    +0.096 A 
ATOM      8  C   LIG A   1      -5.620   3.679 127.333  0.00  0.00    +0.147 A 
ATOM      9  O   LIG A   1      -6.519   2.970 126.596  0.00  0.00    -0.451 OA
ATOM     10  C   LIG A   1      -7.583   2.432 127.300  0.00  0.00    +0.184 A 
ATOM     11  C   LIG A   1      -8.120   3.033 128.398  0.00  0.00    +0.211 A 
ENDROOT
BRANCH  10  12
ATOM     12  C   LIG A   1      -8.036   1.150 126.753  0.00  0.00    +0.066 A 
ATOM     13  C   LIG A   1      -7.615  -0.041 127.368  0.00  0.00    +0.064 A 
ATOM     14  C   LIG A   1      -8.096  -1.280 126.935  0.00  0.00    +0.162 A 
ATOM     15  C   LIG A   1      -8.999  -1.326 125.854  0.00  0.00    +0.165 A 
ATOM     16  C   LIG A   1      -9.430  -0.142 125.247  0.00  0.00    +0.095 A 
ATOM     17  C   LIG A   1      -8.970   1.099 125.700  0.00  0.00    +0.135 A 
BRANCH  14  18
ATOM     18  O   LIG A   1      -7.745  -2.496 127.452  0.00  0.00    -0.491 OA
ATOM     19  C   LIG A   1      -8.109  -2.871 128.770  0.00  0.00    +0.277 C 
ENDBRANCH  14  18
BRANCH  17  20
ATOM     20  O   LIG A   1      -9.375   2.296 125.159  0.00  0.00    -0.494 OA
ATOM     21  C   LIG A   1      -8.979   2.540 123.811  0.00  0.00    +0.277 C 
ENDBRANCH  17  20
BRANCH  15  22
ATOM     22  O   LIG A   1      -9.478  -2.565 125.491  0.00  0.00    -0.491 OA
ATOM     23  C   LIG A   1      -9.158  -3.009 124.177  0.00  0.00    +0.277 C 
ENDBRANCH  15  22
ENDBRANCH  10  12
BRANCH   5  24
ATOM     24  O   LIG A   1      -2.736   5.105 129.962  0.00  0.00    -0.488 OA
ATOM     25  C   LIG A   1      -2.077   6.360 129.876  0.00  0.00    +0.277 C 
ENDBRANCH   5  24
BRANCH  11  26
ATOM     26  O   LIG A   1      -9.218   2.525 129.055  0.00  0.00    -0.488 OA
ATOM     27  C   LIG A   1      -8.923   2.046 130.368  0.00  0.00    +0.277 C 
ENDBRANCH  11  26
BRANCH   6  28
ATOM     28  O   LIG A   1      -1.983   4.089 127.387  0.00  0.00    -0.491 OA
ATOM     29  C   LIG A   1      -1.668   2.980 126.542  0.00  0.00    +0.277 C 
ENDBRANCH   6  28
BRANCH   4  30
ATOM     30  O   LIG A   1      -5.534   5.426 130.517  0.00  0.00    -0.490 OA
ATOM     31  C   LIG A   1      -5.486   6.819 130.782  0.00  0.00    +0.277 C 
ENDBRANCH   4  30
TORSDOF 8
ENDMDL
MODEL 2
REMARK VINA RESULT:      -6.6      1.405      7.659
REMARK  Name = NuBBE_1883
REMARK  15 active torsions:
REMARK  status: ('A' for Active; 'I' for Inactive)
REMARK    1  A    between atoms: C_4  and  O_30
REMARK    2  A    between atoms: C_5  and  O_6
REMARK    3  A    between atoms: O_6  and  C_7
REMARK    4  A    between atoms: C_8  and  O_28
REMARK    5  A    between atoms: C_12  and  C_13
REMARK    6  A    between atoms: C_15  and  O_16
REMARK    7  A    between atoms: O_16  and  C_17
REMARK    8  A    between atoms: C_18  and  O_23
REMARK    9  A    between atoms: C_20  and  O_21
REMARK   10  A    between atoms: O_21  and  C_22
REMARK   11  A    between atoms: O_23  and  C_24
REMARK   12  A    between atoms: C_25  and  O_26
REMARK   13  A    between atoms: O_26  and  C_27
REMARK   14  A    between atoms: O_28  and  C_29
REMARK   15  A    between atoms: O_30  and  C_31
REMARK                            x       y       z     vdW  Elec       q    Type
REMARK                         _______ _______ _______ _____ _____    ______ ____
ROOT
ATOM      1  O   LIG A   1      -9.703   2.017 124.896  0.00  0.00    -0.283 OA
ATOM      2  C   LIG A   1      -8.742   1.679 125.564  0.00  0.00    +0.238 A 
ATOM      3  C   LIG A   1      -8.595   0.318 126.151  0.00  0.00    +0.113 A 
ATOM      4  C   LIG A   1      -8.936  -0.872 125.477  0.00  0.00    +0.180 A 
ATOM      5  C   LIG A   1      -8.675  -2.107 126.111  0.00  0.00    +0.204 A 
ATOM      6  C   LIG A   1      -8.175  -2.129 127.443  0.00  0.00    +0.169 A 
ATOM      7  C   LIG A   1      -7.853  -0.929 128.083  0.00  0.00    +0.096 A 
ATOM      8  C   LIG A   1      -8.002   0.270 127.423  0.00  0.00    +0.147 A 
ATOM      9  O   LIG A   1      -7.483   1.384 128.010  0.00  0.00    -0.451 OA
ATOM     10  C   LIG A   1      -7.033   2.366 127.143  0.00  0.00    +0.184 A 
ATOM     11  C   LIG A   1      -7.604   2.596 125.928  0.00  0.00    +0.211 A 
ENDROOT
BRANCH  10  12
ATOM     12  C   LIG A   1      -5.874   3.096 127.664  0.00  0.00    +0.066 A 
ATOM     13  C   LIG A   1      -4.583   2.631 127.360  0.00  0.00    +0.064 A 
ATOM     14  C   LIG A   1      -3.451   3.348 127.760  0.00  0.00    +0.162 A 
ATOM     15  C   LIG A   1      -3.617   4.539 128.494  0.00  0.00    +0.165 A 
ATOM     16  C   LIG A   1      -4.900   5.011 128.788  0.00  0.00    +0.095 A 
ATOM     17  C   LIG A   1      -6.032   4.308 128.362  0.00  0.00    +0.135 A 
BRANCH  14  18
ATOM     18  O   LIG A   1      -2.154   2.982 127.529  0.00  0.00    -0.491 OA
ATOM     19  C   LIG A   1      -1.591   3.041 126.229  0.00  0.00    +0.277 C 
ENDBRANCH  14  18
BRANCH  17  20
ATOM     20  O   LIG A   1      -7.317   4.733 128.602  0.00  0.00    -0.494 OA
ATOM     21  C   LIG A   1      -7.737   4.726 129.964  0.00  0.00    +0.277 C 
ENDBRANCH  17  20
BRANCH  15  22
ATOM     22  O   LIG A   1      -2.475   5.232 128.828  0.00  0.00    -0.491 OA
ATOM     23  C   LIG A   1      -2.342   6.538 128.275  0.00  0.00    +0.277 C 
ENDBRANCH  15  22
ENDBRANCH  10  12
BRANCH   5  24
ATOM     24  O   LIG A   1      -8.804  -3.230 125.332  0.00  0.00    -0.488 OA
ATOM     25  C   LIG A   1      -7.670  -3.710 124.624  0.00  0.00    +0.277 C 
ENDBRANCH   5  24
BRANCH  11  26
ATOM     26  O   LIG A   1      -7.192   3.615 125.099  0.00  0.00    -0.488 OA
ATOM     27  C   LIG A   1      -6.474   3.159 123.952  0.00  0.00    +0.277 C 
ENDBRANCH  11  26
BRANCH   6  28
ATOM     28  O   LIG A   1      -7.920  -3.333 128.059  0.00  0.00    -0.491 OA
ATOM     29  C   LIG A   1      -7.841  -3.287 129.486  0.00  0.00    +0.277 C 
ENDBRANCH   6  28
BRANCH   4  30
ATOM     30  O   LIG A   1      -9.445  -0.661 124.221  0.00  0.00    -0.490 OA
ATOM     31  C   LIG A   1      -8.636  -0.716 123.058  0.00  0.00    +0.277 C 
ENDBRANCH   4  30
TORSDOF 8
ENDMDL
MODEL 3
REMARK VINA RESULT:      -6.3      0.953      2.367
REMARK  Name = NuBBE_1883
REMARK  15 active torsions:
REMARK  status: ('A' for Active; 'I' for Inactive)
REMARK    1  A    between atoms: C_4  and  O_30
REMARK    2  A    between atoms: C_5  and  O_6
REMARK    3  A    between atoms: O_6  and  C_7
REMARK    4  A    between atoms: C_8  and  O_28
REMARK    5  A    between atoms: C_12  and  C_13
REMARK    6  A    between atoms: C_15  and  O_16
REMARK    7  A    between atoms: O_16  and  C_17
REMARK    8  A    between atoms: C_18  and  O_23
REMARK    9  A    between atoms: C_20  and  O_21
REMARK   10  A    between atoms: O_21  and  C_22
REMARK   11  A    between atoms: O_23  and  C_24
REMARK   12  A    between atoms: C_25  and  O_26
REMARK   13  A    between atoms: O_26  and  C_27
REMARK   14  A    between atoms: O_28  and  C_29
REMARK   15  A    between atoms: O_30  and  C_31
REMARK                            x       y       z     vdW  Elec       q    Type
REMARK                         _______ _______ _______ _____ _____    ______ ____
ROOT
ATOM      1  O   LIG A   1      -8.037   5.378 129.464  0.00  0.00    -0.283 OA
ATOM      2  C   LIG A   1      -7.478   4.436 128.931  0.00  0.00    +0.238 A 
ATOM      3  C   LIG A   1      -6.023   4.428 128.609  0.00  0.00    +0.113 A 
ATOM      4  C   LIG A   1      -5.025   4.937 129.462  0.00  0.00    +0.180 A 
ATOM      5  C   LIG A   1      -3.671   4.800 129.079  0.00  0.00    +0.204 A 
ATOM      6  C   LIG A   1      -3.347   4.249 127.807  0.00  0.00    +0.169 A 
ATOM      7  C   LIG A   1      -4.365   3.760 126.984  0.00  0.00    +0.096 A 
ATOM      8  C   LIG A   1      -5.675   3.792 127.407  0.00  0.00    +0.147 A 
ATOM      9  O   LIG A   1      -6.597   3.119 126.663  0.00  0.00    -0.451 OA
ATOM     10  C   LIG A   1      -7.668   2.593 127.366  0.00  0.00    +0.184 A 
ATOM     11  C   LIG A   1      -8.180   3.183 128.480  0.00  0.00    +0.211 A 
ENDROOT
BRANCH  10  12
ATOM     12  C   LIG A   1      -8.156   1.333 126.797  0.00  0.00    +0.066 A 
ATOM     13  C   LIG A   1      -8.949   1.371 125.637  0.00  0.00    +0.064 A 
ATOM     14  C   LIG A   1      -9.358   0.191 125.009  0.00  0.00    +0.162 A 
ATOM     15  C   LIG A   1      -8.983  -1.048 125.567  0.00  0.00    +0.165 A 
ATOM     16  C   LIG A   1      -8.185  -1.090 126.714  0.00  0.00    +0.095 A 
ATOM     17  C   LIG A   1      -7.751   0.092 127.324  0.00  0.00    +0.135 A 
BRANCH  14  18
ATOM     18  O   LIG A   1     -10.137   0.113 123.889  0.00  0.00    -0.491 OA
ATOM     19  C   LIG A   1      -9.966   1.013 122.806  0.00  0.00    +0.277 C 
ENDBRANCH  14  18
BRANCH  17  20
ATOM     20  O   LIG A   1      -6.947   0.114 128.439  0.00  0.00    -0.494 OA
ATOM     21  C   LIG A   1      -7.264  -0.829 129.459  0.00  0.00    +0.277 C 
ENDBRANCH  17  20
BRANCH  15  22
ATOM     22  O   LIG A   1      -9.373  -2.182 124.891  0.00  0.00    -0.491 OA
ATOM     23  C   LIG A   1      -8.791  -3.409 125.321  0.00  0.00    +0.277 C 
ENDBRANCH  15  22
ENDBRANCH  10  12
BRANCH   5  24
ATOM     24  O   LIG A   1      -2.735   5.094 130.038  0.00  0.00    -0.488 OA
ATOM     25  C   LIG A   1      -2.044   6.333 129.969  0.00  0.00    +0.277 C 
ENDBRANCH   5  24
BRANCH  11  26
ATOM     26  O   LIG A   1      -9.284   2.688 129.137  0.00  0.00    -0.488 OA
ATOM     27  C   LIG A   1      -9.005   2.247 130.467  0.00  0.00    +0.277 C 
ENDBRANCH  11  26
BRANCH   6  28
ATOM     28  O   LIG A   1      -2.029   4.114 127.436  0.00  0.00    -0.491 OA
ATOM     29  C   LIG A   1      -1.746   3.009 126.573  0.00  0.00    +0.277 C 
ENDBRANCH   6  28
BRANCH   4  30
ATOM     30  O   LIG A   1      -5.520   5.470 130.625  0.00  0.00    -0.490 OA
ATOM     31  C   LIG A   1      -5.504   6.864 130.885  0.00  0.00    +0.277 C 
ENDBRANCH   4  30
TORSDOF 8
ENDMDL
MODEL 4
REMARK VINA RESULT:      -6.2      1.871      7.795
REMARK  Name = NuBBE_1883
REMARK  15 active torsions:
REMARK  status: ('A' for Active; 'I' for Inactive)
REMARK    1  A    between atoms: C_4  and  O_30
REMARK    2  A    between atoms: C_5  and  O_6
REMARK    3  A    between atoms: O_6  and  C_7
REMARK    4  A    between atoms: C_8  and  O_28
REMARK    5  A    between atoms: C_12  and  C_13
REMARK    6  A    between atoms: C_15  and  O_16
REMARK    7  A    between atoms: O_16  and  C_17
REMARK    8  A    between atoms: C_18  and  O_23
REMARK    9  A    between atoms: C_20  and  O_21
REMARK   10  A    between atoms: O_21  and  C_22
REMARK   11  A    between atoms: O_23  and  C_24
REMARK   12  A    between atoms: C_25  and  O_26
REMARK   13  A    between atoms: O_26  and  C_27
REMARK   14  A    between atoms: O_28  and  C_29
REMARK   15  A    between atoms: O_30  and  C_31
REMARK                            x       y       z     vdW  Elec       q    Type
REMARK                         _______ _______ _______ _____ _____    ______ ____
ROOT
ATOM      1  O   LIG A   1      -5.113  -2.144 127.511  0.00  0.00    -0.283 OA
ATOM      2  C   LIG A   1      -5.634  -1.073 127.254  0.00  0.00    +0.238 A 
ATOM      3  C   LIG A   1      -6.577  -0.877 126.118  0.00  0.00    +0.113 A 
ATOM      4  C   LIG A   1      -7.577  -1.801 125.755  0.00  0.00    +0.180 A 
ATOM      5  C   LIG A   1      -8.462  -1.465 124.707  0.00  0.00    +0.204 A 
ATOM      6  C   LIG A   1      -8.269  -0.259 123.975  0.00  0.00    +0.169 A 
ATOM      7  C   LIG A   1      -7.263   0.631 124.359  0.00  0.00    +0.096 A 
ATOM      8  C   LIG A   1      -6.472   0.355 125.452  0.00  0.00    +0.147 A 
ATOM      9  O   LIG A   1      -5.652   1.342 125.906  0.00  0.00    -0.451 OA
ATOM     10  C   LIG A   1      -5.408   1.342 127.269  0.00  0.00    +0.184 A 
ATOM     11  C   LIG A   1      -5.361   0.200 128.010  0.00  0.00    +0.211 A 
ENDROOT
BRANCH  10  12
ATOM     12  C   LIG A   1      -5.238   2.691 127.816  0.00  0.00    +0.066 A 
ATOM     13  C   LIG A   1      -6.341   3.331 128.406  0.00  0.00    +0.064 A 
ATOM     14  C   LIG A   1      -6.202   4.579 129.021  0.00  0.00    +0.162 A 
ATOM     15  C   LIG A   1      -4.938   5.204 129.025  0.00  0.00    +0.165 A 
ATOM     16  C   LIG A   1      -3.835   4.565 128.450  0.00  0.00    +0.095 A 
ATOM     17  C   LIG A   1      -3.971   3.303 127.861  0.00  0.00    +0.135 A 
BRANCH  14  18
ATOM     18  O   LIG A   1      -7.206   5.293 129.613  0.00  0.00    -0.491 OA
ATOM     19  C   LIG A   1      -8.569   4.950 129.419  0.00  0.00    +0.277 C 
ENDBRANCH  14  18
BRANCH  17  20
ATOM     20  O   LIG A   1      -2.920   2.617 127.299  0.00  0.00    -0.494 OA
ATOM     21  C   LIG A   1      -2.012   3.390 126.520  0.00  0.00    +0.277 C 
ENDBRANCH  17  20
BRANCH  15  22
ATOM     22  O   LIG A   1      -4.840   6.411 129.680  0.00  0.00    -0.491 OA
ATOM     23  C   LIG A   1      -3.782   7.271 129.268  0.00  0.00    +0.277 C 
ENDBRANCH  15  22
ENDBRANCH  10  12
BRANCH   5  24
ATOM     24  O   LIG A   1      -9.554  -2.281 124.546  0.00  0.00    -0.488 OA
ATOM     25  C   LIG A   1      -9.492  -3.337 123.599  0.00  0.00    +0.277 C 
ENDBRANCH   5  24
BRANCH  11  26
ATOM     26  O   LIG A   1      -5.055   0.202 129.352  0.00  0.00    -0.488 OA
ATOM     27  C   LIG A   1      -6.177  -0.075 130.191  0.00  0.00    +0.277 C 
ENDBRANCH  11  26
BRANCH   6  28
ATOM     28  O   LIG A   1      -9.133   0.069 122.955  0.00  0.00    -0.491 OA
ATOM     29  C   LIG A   1     -10.041   1.136 123.241  0.00  0.00    +0.277 C 
ENDBRANCH   6  28
BRANCH   4  30
ATOM     30  O   LIG A   1      -7.590  -2.926 126.540  0.00  0.00    -0.490 OA
ATOM     31  C   LIG A   1      -8.587  -3.151 127.524  0.00  0.00    +0.277 C 
ENDBRANCH   4  30
TORSDOF 8
ENDMDL
MODEL 5
REMARK VINA RESULT:      -6.2      2.073      5.049
REMARK  Name = NuBBE_1883
REMARK  15 active torsions:
REMARK  status: ('A' for Active; 'I' for Inactive)
REMARK    1  A    between atoms: C_4  and  O_30
REMARK    2  A    between atoms: C_5  and  O_6
REMARK    3  A    between atoms: O_6  and  C_7
REMARK    4  A    between atoms: C_8  and  O_28
REMARK    5  A    between atoms: C_12  and  C_13
REMARK    6  A    between atoms: C_15  and  O_16
REMARK    7  A    between atoms: O_16  and  C_17
REMARK    8  A    between atoms: C_18  and  O_23
REMARK    9  A    between atoms: C_20  and  O_21
REMARK   10  A    between atoms: O_21  and  C_22
REMARK   11  A    between atoms: O_23  and  C_24
REMARK   12  A    between atoms: C_25  and  O_26
REMARK   13  A    between atoms: O_26  and  C_27
REMARK   14  A    between atoms: O_28  and  C_29
REMARK   15  A    between atoms: O_30  and  C_31
REMARK                            x       y       z     vdW  Elec       q    Type
REMARK                         _______ _______ _______ _____ _____    ______ ____
ROOT
ATOM      1  O   LIG A   1      -5.443   3.694 129.954  0.00  0.00    -0.283 OA
ATOM      2  C   LIG A   1      -6.515   3.403 129.453  0.00  0.00    +0.238 A 
ATOM      3  C   LIG A   1      -7.799   4.052 129.842  0.00  0.00    +0.113 A 
ATOM      4  C   LIG A   1      -7.941   5.430 130.096  0.00  0.00    +0.180 A 
ATOM      5  C   LIG A   1      -9.228   5.938 130.380  0.00  0.00    +0.204 A 
ATOM      6  C   LIG A   1     -10.331   5.046 130.505  0.00  0.00    +0.169 A 
ATOM      7  C   LIG A   1     -10.152   3.684 130.252  0.00  0.00    +0.096 A 
ATOM      8  C   LIG A   1      -8.920   3.206 129.865  0.00  0.00    +0.147 A 
ATOM      9  O   LIG A   1      -8.848   1.916 129.433  0.00  0.00    -0.451 OA
ATOM     10  C   LIG A   1      -7.884   1.657 128.473  0.00  0.00    +0.184 A 
ATOM     11  C   LIG A   1      -6.699   2.325 128.419  0.00  0.00    +0.211 A 
ENDROOT
BRANCH  10  12
ATOM     12  C   LIG A   1      -8.293   0.618 127.523  0.00  0.00    +0.066 A 
ATOM     13  C   LIG A   1      -9.024   0.989 126.381  0.00  0.00    +0.064 A 
ATOM     14  C   LIG A   1      -9.355   0.045 125.405  0.00  0.00    +0.162 A 
ATOM     15  C   LIG A   1      -8.965  -1.297 125.587  0.00  0.00    +0.165 A 
ATOM     16  C   LIG A   1      -8.227  -1.667 126.716  0.00  0.00    +0.095 A 
ATOM     17  C   LIG A   1      -7.871  -0.716 127.678  0.00  0.00    +0.135 A 
BRANCH  14  18
ATOM     18  O   LIG A   1     -10.070   0.293 124.266  0.00  0.00    -0.491 OA
ATOM     19  C   LIG A   1      -9.660   1.284 123.338  0.00  0.00    +0.277 C 
ENDBRANCH  14  18
BRANCH  17  20
ATOM     20  O   LIG A   1      -7.129  -1.015 128.796  0.00  0.00    -0.494 OA
ATOM     21  C   LIG A   1      -7.648  -2.043 129.636  0.00  0.00    +0.277 C 
ENDBRANCH  17  20
BRANCH  15  22
ATOM     22  O   LIG A   1      -9.275  -2.181 124.579  0.00  0.00    -0.491 OA
ATOM     23  C   LIG A   1      -8.422  -3.314 124.444  0.00  0.00    +0.277 C 
ENDBRANCH  15  22
ENDBRANCH  10  12
BRANCH   5  24
ATOM     24  O   LIG A   1      -9.356   7.304 130.388  0.00  0.00    -0.488 OA
ATOM     25  C   LIG A   1      -9.904   7.952 129.249  0.00  0.00    +0.277 C 
ENDBRANCH   5  24
BRANCH  11  26
ATOM     26  O   LIG A   1      -5.719   2.018 127.502  0.00  0.00    -0.488 OA
ATOM     27  C   LIG A   1      -5.595   2.985 126.458  0.00  0.00    +0.277 C 
ENDBRANCH  11  26
BRANCH   6  28
ATOM     28  O   LIG A   1     -11.585   5.542 130.779  0.00  0.00    -0.491 OA
ATOM     29  C   LIG A   1     -11.687   6.319 131.976  0.00  0.00    +0.277 C 
ENDBRANCH   6  28
BRANCH   4  30
ATOM     30  O   LIG A   1      -6.768   6.131 129.973  0.00  0.00    -0.490 OA
ATOM     31  C   LIG A   1      -6.203   6.855 131.054  0.00  0.00    +0.277 C 
ENDBRANCH   4  30
TORSDOF 8
ENDMDL
MODEL 6
REMARK VINA RESULT:      -6.1      2.445      6.876
REMARK  Name = NuBBE_1883
REMARK  15 active torsions:
REMARK  status: ('A' for Active; 'I' for Inactive)
REMARK    1  A    between atoms: C_4  and  O_30
REMARK    2  A    between atoms: C_5  and  O_6
REMARK    3  A    between atoms: O_6  and  C_7
REMARK    4  A    between atoms: C_8  and  O_28
REMARK    5  A    between atoms: C_12  and  C_13
REMARK    6  A    between atoms: C_15  and  O_16
REMARK    7  A    between atoms: O_16  and  C_17
REMARK    8  A    between atoms: C_18  and  O_23
REMARK    9  A    between atoms: C_20  and  O_21
REMARK   10  A    between atoms: O_21  and  C_22
REMARK   11  A    between atoms: O_23  and  C_24
REMARK   12  A    between atoms: C_25  and  O_26
REMARK   13  A    between atoms: O_26  and  C_27
REMARK   14  A    between atoms: O_28  and  C_29
REMARK   15  A    between atoms: O_30  and  C_31
REMARK                            x       y       z     vdW  Elec       q    Type
REMARK                         _______ _______ _______ _____ _____    ______ ____
ROOT
ATOM      1  O   LIG A   1      -7.361   4.140 125.017  0.00  0.00    -0.283 OA
ATOM      2  C   LIG A   1      -7.550   3.210 125.782  0.00  0.00    +0.238 A 
ATOM      3  C   LIG A   1      -7.987   1.859 125.330  0.00  0.00    +0.113 A 
ATOM      4  C   LIG A   1      -7.494   1.216 124.177  0.00  0.00    +0.180 A 
ATOM      5  C   LIG A   1      -7.928  -0.099 123.897  0.00  0.00    +0.204 A 
ATOM      6  C   LIG A   1      -8.921  -0.707 124.716  0.00  0.00    +0.169 A 
ATOM      7  C   LIG A   1      -9.392  -0.036 125.848  0.00  0.00    +0.096 A 
ATOM      8  C   LIG A   1      -8.886   1.199 126.183  0.00  0.00    +0.147 A 
ATOM      9  O   LIG A   1      -9.223   1.714 127.398  0.00  0.00    -0.451 OA
ATOM     10  C   LIG A   1      -8.271   2.524 127.994  0.00  0.00    +0.184 A 
ATOM     11  C   LIG A   1      -7.419   3.308 127.279  0.00  0.00    +0.211 A 
ENDROOT
BRANCH  10  12
ATOM     12  C   LIG A   1      -8.268   2.416 129.455  0.00  0.00    +0.066 A 
ATOM     13  C   LIG A   1      -7.403   1.495 130.070  0.00  0.00    +0.064 A 
ATOM     14  C   LIG A   1      -7.303   1.425 131.463  0.00  0.00    +0.162 A 
ATOM     15  C   LIG A   1      -8.099   2.279 132.252  0.00  0.00    +0.165 A 
ATOM     16  C   LIG A   1      -8.953   3.206 131.644  0.00  0.00    +0.095 A 
ATOM     17  C   LIG A   1      -9.030   3.294 130.250  0.00  0.00    +0.135 A 
BRANCH  14  18
ATOM     18  O   LIG A   1      -6.505   0.563 132.162  0.00  0.00    -0.491 OA
ATOM     19  C   LIG A   1      -5.091   0.620 132.064  0.00  0.00    +0.277 C 
ENDBRANCH  14  18
BRANCH  17  20
ATOM     20  O   LIG A   1      -9.833   4.198 129.596  0.00  0.00    -0.494 OA
ATOM     21  C   LIG A   1      -9.505   5.574 129.775  0.00  0.00    +0.277 C 
ENDBRANCH  17  20
BRANCH  15  22
ATOM     22  O   LIG A   1      -7.935   2.205 133.616  0.00  0.00    -0.491 OA
ATOM     23  C   LIG A   1      -7.227   3.278 134.230  0.00  0.00    +0.277 C 
ENDBRANCH  15  22
ENDBRANCH  10  12
BRANCH   5  24
ATOM     24  O   LIG A   1      -7.251  -0.765 122.907  0.00  0.00    -0.488 OA
ATOM     25  C   LIG A   1      -6.238  -1.692 123.270  0.00  0.00    +0.277 C 
ENDBRANCH   5  24
BRANCH  11  26
ATOM     26  O   LIG A   1      -6.518   4.158 127.879  0.00  0.00    -0.488 OA
ATOM     27  C   LIG A   1      -5.164   3.714 127.780  0.00  0.00    +0.277 C 
ENDBRANCH  11  26
BRANCH   6  28
ATOM     28  O   LIG A   1      -9.342  -1.988 124.443  0.00  0.00    -0.491 OA
ATOM     29  C   LIG A   1      -9.344  -2.882 125.559  0.00  0.00    +0.277 C 
ENDBRANCH   6  28
BRANCH   4  30
ATOM     30  O   LIG A   1      -6.577   1.966 123.484  0.00  0.00    -0.490 OA
ATOM     31  C   LIG A   1      -6.878   2.560 122.232  0.00  0.00    +0.277 C 
ENDBRANCH   4  30
TORSDOF 8
ENDMDL
MODEL 7
REMARK VINA RESULT:      -6.1      3.613      6.935
REMARK  Name = NuBBE_1883
REMARK  15 active torsions:
REMARK  status: ('A' for Active; 'I' for Inactive)
REMARK    1  A    between atoms: C_4  and  O_30
REMARK    2  A    between atoms: C_5  and  O_6
REMARK    3  A    between atoms: O_6  and  C_7
REMARK    4  A    between atoms: C_8  and  O_28
REMARK    5  A    between atoms: C_12  and  C_13
REMARK    6  A    between atoms: C_15  and  O_16
REMARK    7  A    between atoms: O_16  and  C_17
REMARK    8  A    between atoms: C_18  and  O_23
REMARK    9  A    between atoms: C_20  and  O_21
REMARK   10  A    between atoms: O_21  and  C_22
REMARK   11  A    between atoms: O_23  and  C_24
REMARK   12  A    between atoms: C_25  and  O_26
REMARK   13  A    between atoms: O_26  and  C_27
REMARK   14  A    between atoms: O_28  and  C_29
REMARK   15  A    between atoms: O_30  and  C_31
REMARK                            x       y       z     vdW  Elec       q    Type
REMARK                         _______ _______ _______ _____ _____    ______ ____
ROOT
ATOM      1  O   LIG A   1      -6.448  -2.868 124.848  0.00  0.00    -0.283 OA
ATOM      2  C   LIG A   1      -6.648  -1.977 125.654  0.00  0.00    +0.238 A 
ATOM      3  C   LIG A   1      -6.533  -0.531 125.317  0.00  0.00    +0.113 A 
ATOM      4  C   LIG A   1      -6.992   0.036 124.112  0.00  0.00    +0.180 A 
ATOM      5  C   LIG A   1      -6.897   1.436 123.942  0.00  0.00    +0.204 A 
ATOM      6  C   LIG A   1      -6.254   2.228 124.935  0.00  0.00    +0.169 A 
ATOM      7  C   LIG A   1      -5.806   1.631 126.115  0.00  0.00    +0.096 A 
ATOM      8  C   LIG A   1      -6.000   0.284 126.328  0.00  0.00    +0.147 A 
ATOM      9  O   LIG A   1      -5.733  -0.205 127.571  0.00  0.00    -0.451 OA
ATOM     10  C   LIG A   1      -6.509  -1.280 127.973  0.00  0.00    +0.184 A 
ATOM     11  C   LIG A   1      -6.986  -2.211 127.103  0.00  0.00    +0.211 A 
ENDROOT
BRANCH  10  12
ATOM     12  C   LIG A   1      -6.776  -1.279 129.415  0.00  0.00    +0.066 A 
ATOM     13  C   LIG A   1      -7.934  -0.643 129.894  0.00  0.00    +0.064 A 
ATOM     14  C   LIG A   1      -8.273  -0.698 131.249  0.00  0.00    +0.162 A 
ATOM     15  C   LIG A   1      -7.425  -1.385 132.141  0.00  0.00    +0.165 A 
ATOM     16  C   LIG A   1      -6.278  -2.029 131.667  0.00  0.00    +0.095 A 
ATOM     17  C   LIG A   1      -5.956  -1.998 130.306  0.00  0.00    +0.135 A 
BRANCH  14  18
ATOM     18  O   LIG A   1      -9.365  -0.108 131.821  0.00  0.00    -0.491 OA
ATOM     19  C   LIG A   1      -9.522   1.301 131.832  0.00  0.00    +0.277 C 
ENDBRANCH  14  18
BRANCH  17  20
ATOM     20  O   LIG A   1      -4.855  -2.630 129.777  0.00  0.00    -0.494 OA
ATOM     21  C   LIG A   1      -4.766  -4.033 130.009  0.00  0.00    +0.277 C 
ENDBRANCH  17  20
BRANCH  15  22
ATOM     22  O   LIG A   1      -7.823  -1.449 133.458  0.00  0.00    -0.491 OA
ATOM     23  C   LIG A   1      -8.067  -2.750 133.984  0.00  0.00    +0.277 C 
ENDBRANCH  15  22
ENDBRANCH  10  12
BRANCH   5  24
ATOM     24  O   LIG A   1      -7.564   1.965 122.866  0.00  0.00    -0.488 OA
ATOM     25  C   LIG A   1      -8.877   2.472 123.050  0.00  0.00    +0.277 C 
ENDBRANCH   5  24
BRANCH  11  26
ATOM     26  O   LIG A   1      -7.702  -3.311 127.518  0.00  0.00    -0.488 OA
ATOM     27  C   LIG A   1      -9.032  -3.352 126.997  0.00  0.00    +0.277 C 
ENDBRANCH  11  26
BRANCH   6  28
ATOM     28  O   LIG A   1      -6.164   3.591 124.769  0.00  0.00    -0.491 OA
ATOM     29  C   LIG A   1      -6.911   4.372 125.705  0.00  0.00    +0.277 C 
ENDBRANCH   6  28
BRANCH   4  30
ATOM     30  O   LIG A   1      -7.543  -0.881 123.253  0.00  0.00    -0.490 OA
ATOM     31  C   LIG A   1      -8.942  -1.105 123.182  0.00  0.00    +0.277 C 
ENDBRANCH   4  30
TORSDOF 8
ENDMDL
MODEL 8
REMARK VINA RESULT:      -6.1      2.657      6.087
REMARK  Name = NuBBE_1883
REMARK  15 active torsions:
REMARK  status: ('A' for Active; 'I' for Inactive)
REMARK    1  A    between atoms: C_4  and  O_30
REMARK    2  A    between atoms: C_5  and  O_6
REMARK    3  A    between atoms: O_6  and  C_7
REMARK    4  A    between atoms: C_8  and  O_28
REMARK    5  A    between atoms: C_12  and  C_13
REMARK    6  A    between atoms: C_15  and  O_16
REMARK    7  A    between atoms: O_16  and  C_17
REMARK    8  A    between atoms: C_18  and  O_23
REMARK    9  A    between atoms: C_20  and  O_21
REMARK   10  A    between atoms: O_21  and  C_22
REMARK   11  A    between atoms: O_23  and  C_24
REMARK   12  A    between atoms: C_25  and  O_26
REMARK   13  A    between atoms: O_26  and  C_27
REMARK   14  A    between atoms: O_28  and  C_29
REMARK   15  A    between atoms: O_30  and  C_31
REMARK                            x       y       z     vdW  Elec       q    Type
REMARK                         _______ _______ _______ _____ _____    ______ ____
ROOT
ATOM      1  O   LIG A   1      -7.246   4.810 126.769  0.00  0.00    -0.283 OA
ATOM      2  C   LIG A   1      -7.452   3.611 126.699  0.00  0.00    +0.238 A 
ATOM      3  C   LIG A   1      -8.114   2.965 125.531  0.00  0.00    +0.113 A 
ATOM      4  C   LIG A   1      -7.861   3.314 124.190  0.00  0.00    +0.180 A 
ATOM      5  C   LIG A   1      -8.494   2.573 123.166  0.00  0.00    +0.204 A 
ATOM      6  C   LIG A   1      -9.442   1.566 123.503  0.00  0.00    +0.169 A 
ATOM      7  C   LIG A   1      -9.672   1.251 124.844  0.00  0.00    +0.096 A 
ATOM      8  C   LIG A   1      -8.972   1.897 125.839  0.00  0.00    +0.147 A 
ATOM      9  O   LIG A   1      -9.080   1.412 127.107  0.00  0.00    -0.451 OA
ATOM     10  C   LIG A   1      -7.962   1.572 127.909  0.00  0.00    +0.184 A 
ATOM     11  C   LIG A   1      -7.116   2.632 127.793  0.00  0.00    +0.211 A 
ENDROOT
BRANCH  10  12
ATOM     12  C   LIG A   1      -7.784   0.470 128.860  0.00  0.00    +0.066 A 
ATOM     13  C   LIG A   1      -7.008  -0.638 128.481  0.00  0.00    +0.064 A 
ATOM     14  C   LIG A   1      -6.737  -1.667 129.389  0.00  0.00    +0.162 A 
ATOM     15  C   LIG A   1      -7.271  -1.591 130.691  0.00  0.00    +0.165 A 
ATOM     16  C   LIG A   1      -8.034  -0.484 131.075  0.00  0.00    +0.095 A 
ATOM     17  C   LIG A   1      -8.280   0.558 130.175  0.00  0.00    +0.135 A 
BRANCH  14  18
ATOM     18  O   LIG A   1      -6.006  -2.791 129.124  0.00  0.00    -0.491 OA
ATOM     19  C   LIG A   1      -4.614  -2.722 128.861  0.00  0.00    +0.277 C 
ENDBRANCH  14  18
BRANCH  17  20
ATOM     20  O   LIG A   1      -9.003   1.681 130.501  0.00  0.00    -0.494 OA
ATOM     21  C   LIG A   1      -9.522   1.729 131.828  0.00  0.00    +0.277 C 
ENDBRANCH  17  20
BRANCH  15  22
ATOM     22  O   LIG A   1      -6.942  -2.605 131.562  0.00  0.00    -0.491 OA
ATOM     23  C   LIG A   1      -7.603  -2.598 132.823  0.00  0.00    +0.277 C 
ENDBRANCH  15  22
ENDBRANCH  10  12
BRANCH   5  24
ATOM     24  O   LIG A   1      -8.042   2.790 121.889  0.00  0.00    -0.488 OA
ATOM     25  C   LIG A   1      -8.745   3.700 121.055  0.00  0.00    +0.277 C 
ENDBRANCH   5  24
BRANCH  11  26
ATOM     26  O   LIG A   1      -6.044   2.817 128.635  0.00  0.00    -0.488 OA
ATOM     27  C   LIG A   1      -4.781   2.738 127.972  0.00  0.00    +0.277 C 
ENDBRANCH  11  26
BRANCH   6  28
ATOM     28  O   LIG A   1     -10.056   0.843 122.505  0.00  0.00    -0.491 OA
ATOM     29  C   LIG A   1      -9.806  -0.565 122.527  0.00  0.00    +0.277 C 
ENDBRANCH   6  28
BRANCH   4  30
ATOM     30  O   LIG A   1      -6.954   4.333 124.053  0.00  0.00    -0.490 OA
ATOM     31  C   LIG A   1      -5.618   4.106 123.634  0.00  0.00    +0.277 C 
ENDBRANCH   4  30
TORSDOF 8
ENDMDL
MODEL 9
REMARK VINA RESULT:      -5.9      2.633      5.356
REMARK  Name = NuBBE_1883
REMARK  15 active torsions:
REMARK  status: ('A' for Active; 'I' for Inactive)
REMARK    1  A    between atoms: C_4  and  O_30
REMARK    2  A    between atoms: C_5  and  O_6
REMARK    3  A    between atoms: O_6  and  C_7
REMARK    4  A    between atoms: C_8  and  O_28
REMARK    5  A    between atoms: C_12  and  C_13
REMARK    6  A    between atoms: C_15  and  O_16
REMARK    7  A    between atoms: O_16  and  C_17
REMARK    8  A    between atoms: C_18  and  O_23
REMARK    9  A    between atoms: C_20  and  O_21
REMARK   10  A    between atoms: O_21  and  C_22
REMARK   11  A    between atoms: O_23  and  C_24
REMARK   12  A    between atoms: C_25  and  O_26
REMARK   13  A    between atoms: O_26  and  C_27
REMARK   14  A    between atoms: O_28  and  C_29
REMARK   15  A    between atoms: O_30  and  C_31
REMARK                            x       y       z     vdW  Elec       q    Type
REMARK                         _______ _______ _______ _____ _____    ______ ____
ROOT
ATOM      1  O   LIG A   1      -8.678  -0.341 131.387  0.00  0.00    -0.283 OA
ATOM      2  C   LIG A   1      -8.446   0.609 130.659  0.00  0.00    +0.238 A 
ATOM      3  C   LIG A   1      -8.756   2.017 131.034  0.00  0.00    +0.113 A 
ATOM      4  C   LIG A   1      -8.547   2.555 132.318  0.00  0.00    +0.180 A 
ATOM      5  C   LIG A   1      -8.806   3.928 132.529  0.00  0.00    +0.204 A 
ATOM      6  C   LIG A   1      -9.364   4.713 131.480  0.00  0.00    +0.169 A 
ATOM      7  C   LIG A   1      -9.563   4.144 130.220  0.00  0.00    +0.096 A 
ATOM      8  C   LIG A   1      -9.206   2.835 129.985  0.00  0.00    +0.147 A 
ATOM      9  O   LIG A   1      -9.227   2.395 128.696  0.00  0.00    -0.451 OA
ATOM     10  C   LIG A   1      -8.295   1.420 128.378  0.00  0.00    +0.184 A 
ATOM     11  C   LIG A   1      -7.868   0.489 129.274  0.00  0.00    +0.211 A 
ENDROOT
BRANCH  10  12
ATOM     12  C   LIG A   1      -7.811   1.527 126.999  0.00  0.00    +0.066 A 
ATOM     13  C   LIG A   1      -8.568   0.951 125.964  0.00  0.00    +0.064 A 
ATOM     14  C   LIG A   1      -8.191   1.108 124.627  0.00  0.00    +0.162 A 
ATOM     15  C   LIG A   1      -7.023   1.837 124.325  0.00  0.00    +0.165 A 
ATOM     16  C   LIG A   1      -6.274   2.422 125.351  0.00  0.00    +0.095 A 
ATOM     17  C   LIG A   1      -6.669   2.288 126.686  0.00  0.00    +0.135 A 
BRANCH  14  18
ATOM     18  O   LIG A   1      -8.845   0.583 123.547  0.00  0.00    -0.491 OA
ATOM     19  C   LIG A   1     -10.118   1.064 123.150  0.00  0.00    +0.277 C 
ENDBRANCH  14  18
BRANCH  17  20
ATOM     20  O   LIG A   1      -5.986   2.858 127.735  0.00  0.00    -0.494 OA
ATOM     21  C   LIG A   1      -5.976   4.283 127.776  0.00  0.00    +0.277 C 
ENDBRANCH  17  20
BRANCH  15  22
ATOM     22  O   LIG A   1      -6.715   2.001 122.993  0.00  0.00    -0.491 OA
ATOM     23  C   LIG A   1      -6.336   3.313 122.587  0.00  0.00    +0.277 C 
ENDBRANCH  15  22
ENDBRANCH  10  12
BRANCH   5  24
ATOM     24  O   LIG A   1      -8.369   4.455 133.718  0.00  0.00    -0.488 OA
ATOM     25  C   LIG A   1      -7.142   5.168 133.747  0.00  0.00    +0.277 C 
ENDBRANCH   5  24
BRANCH  11  26
ATOM     26  O   LIG A   1      -6.990  -0.515 128.933  0.00  0.00    -0.488 OA
ATOM     27  C   LIG A   1      -7.636  -1.706 128.481  0.00  0.00    +0.277 C 
ENDBRANCH  11  26
BRANCH   6  28
ATOM     28  O   LIG A   1      -9.614   6.050 131.685  0.00  0.00    -0.491 OA
ATOM     29  C   LIG A   1      -8.957   6.942 130.781  0.00  0.00    +0.277 C 
ENDBRANCH   6  28
BRANCH   4  30
ATOM     30  O   LIG A   1      -8.046   1.646 133.216  0.00  0.00    -0.490 OA
ATOM     31  C   LIG A   1      -6.667   1.588 133.544  0.00  0.00    +0.277 C 
ENDBRANCH   4  30
TORSDOF 8
ENDMDL
