MODEL 1
REMARK VINA RESULT:      -7.5      0.000      0.000
REMARK  Name = NuBBE_1079
REMARK  7 active torsions:
REMARK  status: ('A' for Active; 'I' for Inactive)
REMARK    1  A    between atoms: C_5  and  O_6
REMARK    2  A    between atoms: O_6  and  C_7
REMARK    3  A    between atoms: C_10  and  C_11
REMARK    4  A    between atoms: C_10  and  C_12
REMARK    5  A    between atoms: C_16  and  O_17
REMARK    6  A    between atoms: N_18  and  C_19
REMARK    7  A    between atoms: C_21  and  O_22
REMARK                            x       y       z     vdW  Elec       q    Type
REMARK                         _______ _______ _______ _____ _____    ______ ____
ROOT
ATOM      1  O   LIG A   1      -6.745   1.503 128.797  0.00  0.00    -0.286 OA
ATOM      2  C   LIG A   1      -7.075   0.665 127.960  0.00  0.00    +0.201 A 
ATOM      3  C   LIG A   1      -7.017   1.003 126.519  0.00  0.00    +0.091 A 
ATOM      4  C   LIG A   1      -7.504   0.069 125.588  0.00  0.00    +0.102 A 
ATOM      5  C   LIG A   1      -7.388   0.392 124.218  0.00  0.00    +0.187 A 
ATOM      6  C   LIG A   1      -6.890   1.637 123.794  0.00  0.00    +0.176 A 
ATOM      7  O   LIG A   1      -6.872   1.866 122.443  0.00  0.00    -0.478 OA
ATOM      8  C   LIG A   1      -6.434   3.139 121.935  0.00  0.00    +0.124 C 
ATOM      9  C   LIG A   1      -7.636   3.760 121.213  0.00  0.00    +0.060 C 
ATOM     10  C   LIG A   1      -5.323   2.835 120.922  0.00  0.00    +0.060 C 
ATOM     11  C   LIG A   1      -5.913   4.108 122.967  0.00  0.00    +0.020 C 
ATOM     12  C   LIG A   1      -5.911   3.847 124.276  0.00  0.00    +0.015 C 
ATOM     13  C   LIG A   1      -6.438   2.567 124.734  0.00  0.00    +0.062 A 
ATOM     14  C   LIG A   1      -6.497   2.242 126.098  0.00  0.00    +0.141 A 
ATOM     15  N   LIG A   1      -8.054  -1.171 126.040  0.00  0.00    -0.337 N 
ATOM     16  C   LIG A   1      -9.393  -1.431 125.455  0.00  0.00    +0.149 C 
ATOM     17  C   LIG A   1      -7.939  -1.582 127.393  0.00  0.00    +0.095 A 
ATOM     18  C   LIG A   1      -8.215  -2.898 127.805  0.00  0.00    +0.141 A 
ATOM     19  C   LIG A   1      -8.158  -3.280 129.144  0.00  0.00    +0.047 A 
ATOM     20  C   LIG A   1      -7.773  -2.353 130.108  0.00  0.00    +0.004 A 
ATOM     21  C   LIG A   1      -7.424  -1.060 129.724  0.00  0.00    +0.014 A 
ATOM     22  C   LIG A   1      -7.493  -0.688 128.373  0.00  0.00    +0.050 A 
ENDROOT
BRANCH   5  23
ATOM     23  O   LIG A   1      -7.810  -0.529 123.281  0.00  0.00    -0.489 OA
ATOM     24  C   LIG A   1      -6.724  -1.372 122.892  0.00  0.00    +0.277 C 
ENDBRANCH   5  23
BRANCH  14  25
ATOM     25  O   LIG A   1      -6.034   3.172 127.002  0.00  0.00    -0.505 OA
ATOM     26  H   LIG A   1      -5.051   3.198 126.942  0.00  0.00    +0.292 HD
ENDBRANCH  14  25
BRANCH  18  27
ATOM     27  O   LIG A   1      -8.484  -3.881 126.889  0.00  0.00    -0.505 OA
ATOM     28  H   LIG A   1      -7.722  -4.487 126.924  0.00  0.00    +0.292 HD
ENDBRANCH  18  27
TORSDOF 3
ENDMDL
MODEL 2
REMARK VINA RESULT:      -7.2      4.040      7.221
REMARK  Name = NuBBE_1079
REMARK  7 active torsions:
REMARK  status: ('A' for Active; 'I' for Inactive)
REMARK    1  A    between atoms: C_5  and  O_6
REMARK    2  A    between atoms: O_6  and  C_7
REMARK    3  A    between atoms: C_10  and  C_11
REMARK    4  A    between atoms: C_10  and  C_12
REMARK    5  A    between atoms: C_16  and  O_17
REMARK    6  A    between atoms: N_18  and  C_19
REMARK    7  A    between atoms: C_21  and  O_22
REMARK                            x       y       z     vdW  Elec       q    Type
REMARK                         _______ _______ _______ _____ _____    ______ ____
ROOT
ATOM      1  O   LIG A   1      -9.204   2.620 132.942  0.00  0.00    -0.286 OA
ATOM      2  C   LIG A   1      -9.074   2.908 131.754  0.00  0.00    +0.201 A 
ATOM      3  C   LIG A   1      -8.628   1.873 130.791  0.00  0.00    +0.091 A 
ATOM      4  C   LIG A   1      -8.379   2.254 129.461  0.00  0.00    +0.102 A 
ATOM      5  C   LIG A   1      -8.008   1.239 128.551  0.00  0.00    +0.187 A 
ATOM      6  C   LIG A   1      -7.804  -0.089 128.970  0.00  0.00    +0.176 A 
ATOM      7  O   LIG A   1      -7.393  -0.980 128.014  0.00  0.00    -0.478 OA
ATOM      8  C   LIG A   1      -7.104  -2.342 128.378  0.00  0.00    +0.124 C 
ATOM      9  C   LIG A   1      -5.616  -2.568 128.083  0.00  0.00    +0.060 C 
ATOM     10  C   LIG A   1      -7.954  -3.220 127.452  0.00  0.00    +0.060 C 
ATOM     11  C   LIG A   1      -7.392  -2.708 129.812  0.00  0.00    +0.020 C 
ATOM     12  C   LIG A   1      -7.825  -1.827 130.717  0.00  0.00    +0.015 C 
ATOM     13  C   LIG A   1      -8.026  -0.443 130.303  0.00  0.00    +0.062 A 
ATOM     14  C   LIG A   1      -8.447   0.542 131.210  0.00  0.00    +0.141 A 
ATOM     15  N   LIG A   1      -8.543   3.617 129.065  0.00  0.00    -0.337 N 
ATOM     16  C   LIG A   1      -7.348   4.136 128.355  0.00  0.00    +0.149 C 
ATOM     17  C   LIG A   1      -9.148   4.570 129.923  0.00  0.00    +0.095 A 
ATOM     18  C   LIG A   1      -9.573   5.830 129.467  0.00  0.00    +0.141 A 
ATOM     19  C   LIG A   1     -10.113   6.784 130.328  0.00  0.00    +0.047 A 
ATOM     20  C   LIG A   1     -10.284   6.477 131.675  0.00  0.00    +0.004 A 
ATOM     21  C   LIG A   1      -9.939   5.211 132.145  0.00  0.00    +0.014 A 
ATOM     22  C   LIG A   1      -9.391   4.264 131.268  0.00  0.00    +0.050 A 
ENDROOT
BRANCH   5  23
ATOM     23  O   LIG A   1      -7.809   1.575 127.228  0.00  0.00    -0.489 OA
ATOM     24  C   LIG A   1      -8.968   1.258 126.456  0.00  0.00    +0.277 C 
ENDBRANCH   5  23
BRANCH  14  25
ATOM     25  O   LIG A   1      -8.670   0.161 132.515  0.00  0.00    -0.505 OA
ATOM     26  H   LIG A   1      -9.569  -0.239 132.570  0.00  0.00    +0.292 HD
ENDBRANCH  14  25
BRANCH  18  27
ATOM     27  O   LIG A   1      -9.538   6.145 128.134  0.00  0.00    -0.505 OA
ATOM     28  H   LIG A   1     -10.131   5.506 127.699  0.00  0.00    +0.292 HD
ENDBRANCH  18  27
TORSDOF 3
ENDMDL
MODEL 3
REMARK VINA RESULT:      -7.2      2.620      6.724
REMARK  Name = NuBBE_1079
REMARK  7 active torsions:
REMARK  status: ('A' for Active; 'I' for Inactive)
REMARK    1  A    between atoms: C_5  and  O_6
REMARK    2  A    between atoms: O_6  and  C_7
REMARK    3  A    between atoms: C_10  and  C_11
REMARK    4  A    between atoms: C_10  and  C_12
REMARK    5  A    between atoms: C_16  and  O_17
REMARK    6  A    between atoms: N_18  and  C_19
REMARK    7  A    between atoms: C_21  and  O_22
REMARK                            x       y       z     vdW  Elec       q    Type
REMARK                         _______ _______ _______ _____ _____    ______ ____
ROOT
ATOM      1  O   LIG A   1      -8.903  -3.989 127.290  0.00  0.00    -0.286 OA
ATOM      2  C   LIG A   1      -8.612  -2.850 126.931  0.00  0.00    +0.201 A 
ATOM      3  C   LIG A   1      -8.082  -1.880 127.917  0.00  0.00    +0.091 A 
ATOM      4  C   LIG A   1      -7.864  -0.553 127.506  0.00  0.00    +0.102 A 
ATOM      5  C   LIG A   1      -7.307   0.338 128.450  0.00  0.00    +0.187 A 
ATOM      6  C   LIG A   1      -7.063  -0.053 129.780  0.00  0.00    +0.176 A 
ATOM      7  O   LIG A   1      -6.573   0.908 130.624  0.00  0.00    -0.478 OA
ATOM      8  C   LIG A   1      -6.356   0.601 132.013  0.00  0.00    +0.124 C 
ATOM      9  C   LIG A   1      -7.291   1.514 132.815  0.00  0.00    +0.060 C 
ATOM     10  C   LIG A   1      -4.897   0.969 132.309  0.00  0.00    +0.060 C 
ATOM     11  C   LIG A   1      -6.596  -0.834 132.408  0.00  0.00    +0.020 C 
ATOM     12  C   LIG A   1      -7.042  -1.760 131.557  0.00  0.00    +0.015 C 
ATOM     13  C   LIG A   1      -7.316  -1.368 130.179  0.00  0.00    +0.062 A 
ATOM     14  C   LIG A   1      -7.819  -2.282 129.240  0.00  0.00    +0.141 A 
ATOM     15  N   LIG A   1      -8.165  -0.161 126.166  0.00  0.00    -0.337 N 
ATOM     16  C   LIG A   1      -9.020   1.051 126.120  0.00  0.00    +0.149 C 
ATOM     17  C   LIG A   1      -8.488  -1.117 125.169  0.00  0.00    +0.095 A 
ATOM     18  C   LIG A   1      -8.513  -0.798 123.800  0.00  0.00    +0.141 A 
ATOM     19  C   LIG A   1      -8.889  -1.727 122.832  0.00  0.00    +0.047 A 
ATOM     20  C   LIG A   1      -9.209  -3.027 123.213  0.00  0.00    +0.004 A 
ATOM     21  C   LIG A   1      -9.124  -3.395 124.554  0.00  0.00    +0.014 A 
ATOM     22  C   LIG A   1      -8.751  -2.447 125.518  0.00  0.00    +0.050 A 
ENDROOT
BRANCH   5  23
ATOM     23  O   LIG A   1      -7.033   1.632 128.059  0.00  0.00    -0.489 OA
ATOM     24  C   LIG A   1      -5.680   1.739 127.612  0.00  0.00    +0.277 C 
ENDBRANCH   5  23
BRANCH  14  25
ATOM     25  O   LIG A   1      -8.046  -3.574 129.658  0.00  0.00    -0.505 OA
ATOM     26  H   LIG A   1      -7.739  -3.656 130.591  0.00  0.00    +0.292 HD
ENDBRANCH  14  25
BRANCH  18  27
ATOM     27  O   LIG A   1      -8.097   0.430 123.355  0.00  0.00    -0.505 OA
ATOM     28  H   LIG A   1      -7.193   0.293 123.018  0.00  0.00    +0.292 HD
ENDBRANCH  18  27
TORSDOF 3
ENDMDL
MODEL 4
REMARK VINA RESULT:      -7.1      2.832      5.030
REMARK  Name = NuBBE_1079
REMARK  7 active torsions:
REMARK  status: ('A' for Active; 'I' for Inactive)
REMARK    1  A    between atoms: C_5  and  O_6
REMARK    2  A    between atoms: O_6  and  C_7
REMARK    3  A    between atoms: C_10  and  C_11
REMARK    4  A    between atoms: C_10  and  C_12
REMARK    5  A    between atoms: C_16  and  O_17
REMARK    6  A    between atoms: N_18  and  C_19
REMARK    7  A    between atoms: C_21  and  O_22
REMARK                            x       y       z     vdW  Elec       q    Type
REMARK                         _______ _______ _______ _____ _____    ______ ____
ROOT
ATOM      1  O   LIG A   1      -7.663  -1.343 130.541  0.00  0.00    -0.286 OA
ATOM      2  C   LIG A   1      -7.952  -0.384 129.829  0.00  0.00    +0.201 A 
ATOM      3  C   LIG A   1      -7.916  -0.524 128.355  0.00  0.00    +0.091 A 
ATOM      4  C   LIG A   1      -8.141   0.616 127.564  0.00  0.00    +0.102 A 
ATOM      5  C   LIG A   1      -8.155   0.445 126.162  0.00  0.00    +0.187 A 
ATOM      6  C   LIG A   1      -7.865  -0.797 125.568  0.00  0.00    +0.176 A 
ATOM      7  O   LIG A   1      -7.853  -0.837 124.198  0.00  0.00    -0.478 OA
ATOM      8  C   LIG A   1      -7.504  -2.056 123.518  0.00  0.00    +0.124 C 
ATOM      9  C   LIG A   1      -6.227  -1.763 122.720  0.00  0.00    +0.060 C 
ATOM     10  C   LIG A   1      -8.659  -2.351 122.553  0.00  0.00    +0.060 C 
ATOM     11  C   LIG A   1      -7.278  -3.255 124.403  0.00  0.00    +0.020 C 
ATOM     12  C   LIG A   1      -7.328  -3.196 125.736  0.00  0.00    +0.015 C 
ATOM     13  C   LIG A   1      -7.612  -1.913 126.369  0.00  0.00    +0.062 A 
ATOM     14  C   LIG A   1      -7.647  -1.774 127.765  0.00  0.00    +0.141 A 
ATOM     15  N   LIG A   1      -8.384   1.880 128.185  0.00  0.00    -0.337 N 
ATOM     16  C   LIG A   1      -7.500   2.943 127.645  0.00  0.00    +0.149 C 
ATOM     17  C   LIG A   1      -8.610   1.989 129.581  0.00  0.00    +0.095 A 
ATOM     18  C   LIG A   1      -9.122   3.157 130.172  0.00  0.00    +0.141 A 
ATOM     19  C   LIG A   1      -9.285   3.277 131.551  0.00  0.00    +0.047 A 
ATOM     20  C   LIG A   1      -8.979   2.199 132.377  0.00  0.00    +0.004 A 
ATOM     21  C   LIG A   1      -8.537   1.002 131.816  0.00  0.00    +0.014 A 
ATOM     22  C   LIG A   1      -8.371   0.899 130.427  0.00  0.00    +0.050 A 
ENDROOT
BRANCH   5  23
ATOM     23  O   LIG A   1      -8.426   1.536 125.363  0.00  0.00    -0.489 OA
ATOM     24  C   LIG A   1      -9.763   1.466 124.865  0.00  0.00    +0.277 C 
ENDBRANCH   5  23
BRANCH  14  25
ATOM     25  O   LIG A   1      -7.407  -2.893 128.530  0.00  0.00    -0.505 OA
ATOM     26  H   LIG A   1      -7.662  -3.687 128.005  0.00  0.00    +0.292 HD
ENDBRANCH  14  25
BRANCH  18  27
ATOM     27  O   LIG A   1      -9.551   4.206 129.402  0.00  0.00    -0.505 OA
ATOM     28  H   LIG A   1      -9.222   5.008 129.847  0.00  0.00    +0.292 HD
ENDBRANCH  18  27
TORSDOF 3
ENDMDL
MODEL 5
REMARK VINA RESULT:      -7.1      2.135      4.751
REMARK  Name = NuBBE_1079
REMARK  7 active torsions:
REMARK  status: ('A' for Active; 'I' for Inactive)
REMARK    1  A    between atoms: C_5  and  O_6
REMARK    2  A    between atoms: O_6  and  C_7
REMARK    3  A    between atoms: C_10  and  C_11
REMARK    4  A    between atoms: C_10  and  C_12
REMARK    5  A    between atoms: C_16  and  O_17
REMARK    6  A    between atoms: N_18  and  C_19
REMARK    7  A    between atoms: C_21  and  O_22
REMARK                            x       y       z     vdW  Elec       q    Type
REMARK                         _______ _______ _______ _____ _____    ______ ____
ROOT
ATOM      1  O   LIG A   1      -7.623   0.902 122.798  0.00  0.00    -0.286 OA
ATOM      2  C   LIG A   1      -7.470   0.323 123.871  0.00  0.00    +0.201 A 
ATOM      3  C   LIG A   1      -6.774   1.008 124.985  0.00  0.00    +0.091 A 
ATOM      4  C   LIG A   1      -6.513   0.285 126.162  0.00  0.00    +0.102 A 
ATOM      5  C   LIG A   1      -5.897   0.977 127.228  0.00  0.00    +0.187 A 
ATOM      6  C   LIG A   1      -5.474   2.312 127.095  0.00  0.00    +0.176 A 
ATOM      7  O   LIG A   1      -4.840   2.868 128.175  0.00  0.00    -0.478 OA
ATOM      8  C   LIG A   1      -4.324   4.209 128.093  0.00  0.00    +0.124 C 
ATOM      9  C   LIG A   1      -2.804   4.105 128.267  0.00  0.00    +0.060 C 
ATOM     10  C   LIG A   1      -4.929   4.971 129.278  0.00  0.00    +0.060 C 
ATOM     11  C   LIG A   1      -4.633   4.949 126.817  0.00  0.00    +0.020 C 
ATOM     12  C   LIG A   1      -5.284   4.395 125.791  0.00  0.00    +0.015 C 
ATOM     13  C   LIG A   1      -5.715   3.006 125.907  0.00  0.00    +0.062 A 
ATOM     14  C   LIG A   1      -6.373   2.351 124.855  0.00  0.00    +0.141 A 
ATOM     15  N   LIG A   1      -6.904  -1.086 126.261  0.00  0.00    -0.337 N 
ATOM     16  C   LIG A   1      -5.783  -1.952 126.703  0.00  0.00    +0.149 C 
ATOM     17  C   LIG A   1      -7.734  -1.692 125.283  0.00  0.00    +0.095 A 
ATOM     18  C   LIG A   1      -8.358  -2.934 125.491  0.00  0.00    +0.141 A 
ATOM     19  C   LIG A   1      -9.124  -3.551 124.504  0.00  0.00    +0.047 A 
ATOM     20  C   LIG A   1      -9.324  -2.907 123.285  0.00  0.00    +0.004 A 
ATOM     21  C   LIG A   1      -8.779  -1.642 123.074  0.00  0.00    +0.014 A 
ATOM     22  C   LIG A   1      -8.004  -1.038 124.075  0.00  0.00    +0.050 A 
ENDROOT
BRANCH   5  23
ATOM     23  O   LIG A   1      -5.676   0.307 128.414  0.00  0.00    -0.489 OA
ATOM     24  C   LIG A   1      -6.772   0.508 129.308  0.00  0.00    +0.277 C 
ENDBRANCH   5  23
BRANCH  14  25
ATOM     25  O   LIG A   1      -6.608   3.063 123.699  0.00  0.00    -0.505 OA
ATOM     26  H   LIG A   1      -5.827   2.958 123.108  0.00  0.00    +0.292 HD
ENDBRANCH  14  25
BRANCH  18  27
ATOM     27  O   LIG A   1      -8.293  -3.559 126.709  0.00  0.00    -0.505 OA
ATOM     28  H   LIG A   1      -8.913  -3.074 127.285  0.00  0.00    +0.292 HD
ENDBRANCH  18  27
TORSDOF 3
ENDMDL
MODEL 6
REMARK VINA RESULT:      -7.0      2.625      6.569
REMARK  Name = NuBBE_1079
REMARK  7 active torsions:
REMARK  status: ('A' for Active; 'I' for Inactive)
REMARK    1  A    between atoms: C_5  and  O_6
REMARK    2  A    between atoms: O_6  and  C_7
REMARK    3  A    between atoms: C_10  and  C_11
REMARK    4  A    between atoms: C_10  and  C_12
REMARK    5  A    between atoms: C_16  and  O_17
REMARK    6  A    between atoms: N_18  and  C_19
REMARK    7  A    between atoms: C_21  and  O_22
REMARK                            x       y       z     vdW  Elec       q    Type
REMARK                         _______ _______ _______ _____ _____    ______ ____
ROOT
ATOM      1  O   LIG A   1      -8.643   2.504 126.441  0.00  0.00    -0.286 OA
ATOM      2  C   LIG A   1      -8.620   1.298 126.202  0.00  0.00    +0.201 A 
ATOM      3  C   LIG A   1      -8.201   0.348 127.259  0.00  0.00    +0.091 A 
ATOM      4  C   LIG A   1      -8.076  -1.013 126.929  0.00  0.00    +0.102 A 
ATOM      5  C   LIG A   1      -7.729  -1.906 127.966  0.00  0.00    +0.187 A 
ATOM      6  C   LIG A   1      -7.427  -1.450 129.263  0.00  0.00    +0.176 A 
ATOM      7  O   LIG A   1      -7.048  -2.397 130.177  0.00  0.00    -0.478 OA
ATOM      8  C   LIG A   1      -6.665  -2.000 131.506  0.00  0.00    +0.124 C 
ATOM      9  C   LIG A   1      -5.196  -2.405 131.677  0.00  0.00    +0.060 C 
ATOM     10  C   LIG A   1      -7.541  -2.817 132.464  0.00  0.00    +0.060 C 
ATOM     11  C   LIG A   1      -6.821  -0.534 131.819  0.00  0.00    +0.020 C 
ATOM     12  C   LIG A   1      -7.225   0.365 130.918  0.00  0.00    +0.015 C 
ATOM     13  C   LIG A   1      -7.526  -0.089 129.565  0.00  0.00    +0.062 A 
ATOM     14  C   LIG A   1      -7.922   0.807 128.560  0.00  0.00    +0.141 A 
ATOM     15  N   LIG A   1      -8.337  -1.452 125.594  0.00  0.00    -0.337 N 
ATOM     16  C   LIG A   1      -7.229  -2.277 125.054  0.00  0.00    +0.149 C 
ATOM     17  C   LIG A   1      -8.920  -0.589 124.631  0.00  0.00    +0.095 A 
ATOM     18  C   LIG A   1      -9.441  -1.061 123.414  0.00  0.00    +0.141 A 
ATOM     19  C   LIG A   1      -9.958  -0.201 122.447  0.00  0.00    +0.047 A 
ATOM     20  C   LIG A   1     -10.007   1.167 122.700  0.00  0.00    +0.004 A 
ATOM     21  C   LIG A   1      -9.565   1.661 123.926  0.00  0.00    +0.014 A 
ATOM     22  C   LIG A   1      -9.041   0.783 124.886  0.00  0.00    +0.050 A 
ENDROOT
BRANCH   5  23
ATOM     23  O   LIG A   1      -7.650  -3.254 127.683  0.00  0.00    -0.489 OA
ATOM     24  C   LIG A   1      -8.904  -3.888 127.939  0.00  0.00    +0.277 C 
ENDBRANCH   5  23
BRANCH  14  25
ATOM     25  O   LIG A   1      -8.024   2.140 128.889  0.00  0.00    -0.505 OA
ATOM     26  H   LIG A   1      -8.659   2.226 129.638  0.00  0.00    +0.292 HD
ENDBRANCH  14  25
BRANCH  18  27
ATOM     27  O   LIG A   1      -9.526  -2.405 123.159  0.00  0.00    -0.505 OA
ATOM     28  H   LIG A   1      -8.763  -2.807 123.614  0.00  0.00    +0.292 HD
ENDBRANCH  18  27
TORSDOF 3
ENDMDL
MODEL 7
REMARK VINA RESULT:      -7.0      2.675      5.085
REMARK  Name = NuBBE_1079
REMARK  7 active torsions:
REMARK  status: ('A' for Active; 'I' for Inactive)
REMARK    1  A    between atoms: C_5  and  O_6
REMARK    2  A    between atoms: O_6  and  C_7
REMARK    3  A    between atoms: C_10  and  C_11
REMARK    4  A    between atoms: C_10  and  C_12
REMARK    5  A    between atoms: C_16  and  O_17
REMARK    6  A    between atoms: N_18  and  C_19
REMARK    7  A    between atoms: C_21  and  O_22
REMARK                            x       y       z     vdW  Elec       q    Type
REMARK                         _______ _______ _______ _____ _____    ______ ____
ROOT
ATOM      1  O   LIG A   1      -7.975  -3.321 130.261  0.00  0.00    -0.286 OA
ATOM      2  C   LIG A   1      -7.680  -2.187 129.889  0.00  0.00    +0.201 A 
ATOM      3  C   LIG A   1      -7.751  -1.844 128.449  0.00  0.00    +0.091 A 
ATOM      4  C   LIG A   1      -7.302  -0.577 128.036  0.00  0.00    +0.102 A 
ATOM      5  C   LIG A   1      -7.431  -0.255 126.667  0.00  0.00    +0.187 A 
ATOM      6  C   LIG A   1      -7.903  -1.192 125.729  0.00  0.00    +0.176 A 
ATOM      7  O   LIG A   1      -7.936  -0.791 124.420  0.00  0.00    -0.478 OA
ATOM      8  C   LIG A   1      -8.348  -1.714 123.395  0.00  0.00    +0.124 C 
ATOM      9  C   LIG A   1      -7.142  -1.909 122.470  0.00  0.00    +0.060 C 
ATOM     10  C   LIG A   1      -9.481  -1.021 122.629  0.00  0.00    +0.060 C 
ATOM     11  C   LIG A   1      -8.828  -3.057 123.884  0.00  0.00    +0.020 C 
ATOM     12  C   LIG A   1      -8.817  -3.412 125.171  0.00  0.00    +0.015 C 
ATOM     13  C   LIG A   1      -8.316  -2.458 126.154  0.00  0.00    +0.062 A 
ATOM     14  C   LIG A   1      -8.245  -2.777 127.518  0.00  0.00    +0.141 A 
ATOM     15  N   LIG A   1      -6.778   0.343 128.995  0.00  0.00    -0.337 N 
ATOM     16  C   LIG A   1      -5.455   0.878 128.586  0.00  0.00    +0.149 C 
ATOM     17  C   LIG A   1      -6.883   0.101 130.388  0.00  0.00    +0.095 A 
ATOM     18  C   LIG A   1      -6.635   1.100 131.347  0.00  0.00    +0.141 A 
ATOM     19  C   LIG A   1      -6.681   0.839 132.715  0.00  0.00    +0.047 A 
ATOM     20  C   LIG A   1      -7.027  -0.433 133.161  0.00  0.00    +0.004 A 
ATOM     21  C   LIG A   1      -7.349  -1.427 132.238  0.00  0.00    +0.014 A 
ATOM     22  C   LIG A   1      -7.291  -1.151 130.864  0.00  0.00    +0.050 A 
ENDROOT
BRANCH   5  23
ATOM     23  O   LIG A   1      -7.047   1.000 126.242  0.00  0.00    -0.489 OA
ATOM     24  C   LIG A   1      -8.170   1.883 126.230  0.00  0.00    +0.277 C 
ENDBRANCH   5  23
BRANCH  14  25
ATOM     25  O   LIG A   1      -8.670  -4.027 127.910  0.00  0.00    -0.505 OA
ATOM     26  H   LIG A   1      -9.644  -4.081 127.768  0.00  0.00    +0.292 HD
ENDBRANCH  14  25
BRANCH  18  27
ATOM     27  O   LIG A   1      -6.405   2.397 130.968  0.00  0.00    -0.505 OA
ATOM     28  H   LIG A   1      -5.536   2.629 131.344  0.00  0.00    +0.292 HD
ENDBRANCH  18  27
TORSDOF 3
ENDMDL
MODEL 8
REMARK VINA RESULT:      -7.0      2.418      4.752
REMARK  Name = NuBBE_1079
REMARK  7 active torsions:
REMARK  status: ('A' for Active; 'I' for Inactive)
REMARK    1  A    between atoms: C_5  and  O_6
REMARK    2  A    between atoms: O_6  and  C_7
REMARK    3  A    between atoms: C_10  and  C_11
REMARK    4  A    between atoms: C_10  and  C_12
REMARK    5  A    between atoms: C_16  and  O_17
REMARK    6  A    between atoms: N_18  and  C_19
REMARK    7  A    between atoms: C_21  and  O_22
REMARK                            x       y       z     vdW  Elec       q    Type
REMARK                         _______ _______ _______ _____ _____    ______ ____
ROOT
ATOM      1  O   LIG A   1      -6.394  -2.537 127.225  0.00  0.00    -0.286 OA
ATOM      2  C   LIG A   1      -6.856  -1.658 126.502  0.00  0.00    +0.201 A 
ATOM      3  C   LIG A   1      -6.465  -0.245 126.719  0.00  0.00    +0.091 A 
ATOM      4  C   LIG A   1      -7.092   0.752 125.952  0.00  0.00    +0.102 A 
ATOM      5  C   LIG A   1      -6.662   2.084 126.140  0.00  0.00    +0.187 A 
ATOM      6  C   LIG A   1      -5.710   2.422 127.120  0.00  0.00    +0.176 A 
ATOM      7  O   LIG A   1      -5.407   3.751 127.253  0.00  0.00    -0.478 OA
ATOM      8  C   LIG A   1      -4.489   4.181 128.274  0.00  0.00    +0.124 C 
ATOM      9  C   LIG A   1      -5.281   5.090 129.221  0.00  0.00    +0.060 C 
ATOM     10  C   LIG A   1      -3.407   4.998 127.558  0.00  0.00    +0.060 C 
ATOM     11  C   LIG A   1      -3.835   3.078 129.068  0.00  0.00    +0.020 C 
ATOM     12  C   LIG A   1      -4.124   1.786 128.895  0.00  0.00    +0.015 C 
ATOM     13  C   LIG A   1      -5.120   1.420 127.895  0.00  0.00    +0.062 A 
ATOM     14  C   LIG A   1      -5.495   0.084 127.685  0.00  0.00    +0.141 A 
ATOM     15  N   LIG A   1      -8.093   0.397 124.997  0.00  0.00    -0.337 N 
ATOM     16  C   LIG A   1      -9.333   1.194 125.170  0.00  0.00    +0.149 C 
ATOM     17  C   LIG A   1      -8.336  -0.956 124.647  0.00  0.00    +0.095 A 
ATOM     18  C   LIG A   1      -9.103  -1.318 123.526  0.00  0.00    +0.141 A 
ATOM     19  C   LIG A   1      -9.387  -2.648 123.223  0.00  0.00    +0.047 A 
ATOM     20  C   LIG A   1      -8.863  -3.663 124.019  0.00  0.00    +0.004 A 
ATOM     21  C   LIG A   1      -8.039  -3.341 125.096  0.00  0.00    +0.014 A 
ATOM     22  C   LIG A   1      -7.769  -1.997 125.393  0.00  0.00    +0.050 A 
ENDROOT
BRANCH   5  23
ATOM     23  O   LIG A   1      -7.222   3.078 125.364  0.00  0.00    -0.489 OA
ATOM     24  C   LIG A   1      -6.436   3.293 124.191  0.00  0.00    +0.277 C 
ENDBRANCH   5  23
BRANCH  14  25
ATOM     25  O   LIG A   1      -4.888  -0.883 128.454  0.00  0.00    -0.505 OA
ATOM     26  H   LIG A   1      -3.941  -0.639 128.567  0.00  0.00    +0.292 HD
ENDBRANCH  14  25
BRANCH  18  27
ATOM     27  O   LIG A   1      -9.547  -0.370 122.641  0.00  0.00    -0.505 OA
ATOM     28  H   LIG A   1     -10.384  -0.036 123.013  0.00  0.00    +0.292 HD
ENDBRANCH  18  27
TORSDOF 3
ENDMDL
MODEL 9
REMARK VINA RESULT:      -7.0      4.087      7.394
REMARK  Name = NuBBE_1079
REMARK  7 active torsions:
REMARK  status: ('A' for Active; 'I' for Inactive)
REMARK    1  A    between atoms: C_5  and  O_6
REMARK    2  A    between atoms: O_6  and  C_7
REMARK    3  A    between atoms: C_10  and  C_11
REMARK    4  A    between atoms: C_10  and  C_12
REMARK    5  A    between atoms: C_16  and  O_17
REMARK    6  A    between atoms: N_18  and  C_19
REMARK    7  A    between atoms: C_21  and  O_22
REMARK                            x       y       z     vdW  Elec       q    Type
REMARK                         _______ _______ _______ _____ _____    ______ ____
ROOT
ATOM      1  O   LIG A   1      -8.288   4.208 127.928  0.00  0.00    -0.286 OA
ATOM      2  C   LIG A   1      -8.474   3.703 129.033  0.00  0.00    +0.201 A 
ATOM      3  C   LIG A   1      -8.220   2.258 129.234  0.00  0.00    +0.091 A 
ATOM      4  C   LIG A   1      -8.547   1.683 130.475  0.00  0.00    +0.102 A 
ATOM      5  C   LIG A   1      -8.245   0.316 130.660  0.00  0.00    +0.187 A 
ATOM      6  C   LIG A   1      -7.723  -0.472 129.617  0.00  0.00    +0.176 A 
ATOM      7  O   LIG A   1      -7.519  -1.799 129.891  0.00  0.00    -0.478 OA
ATOM      8  C   LIG A   1      -7.045  -2.681 128.857  0.00  0.00    +0.124 C 
ATOM      9  C   LIG A   1      -8.147  -3.722 128.630  0.00  0.00    +0.060 C 
ATOM     10  C   LIG A   1      -5.794  -3.366 129.421  0.00  0.00    +0.060 C 
ATOM     11  C   LIG A   1      -6.700  -2.022 127.545  0.00  0.00    +0.020 C 
ATOM     12  C   LIG A   1      -6.877  -0.718 127.316  0.00  0.00    +0.015 C 
ATOM     13  C   LIG A   1      -7.433   0.109 128.380  0.00  0.00    +0.062 A 
ATOM     14  C   LIG A   1      -7.677   1.479 128.196  0.00  0.00    +0.141 A 
ATOM     15  N   LIG A   1      -9.124   2.487 131.506  0.00  0.00    -0.337 N 
ATOM     16  C   LIG A   1     -10.359   1.878 132.059  0.00  0.00    +0.149 C 
ATOM     17  C   LIG A   1      -9.193   3.899 131.393  0.00  0.00    +0.095 A 
ATOM     18  C   LIG A   1      -9.492   4.729 132.488  0.00  0.00    +0.141 A 
ATOM     19  C   LIG A   1      -9.616   6.110 132.357  0.00  0.00    +0.047 A 
ATOM     20  C   LIG A   1      -9.396   6.706 131.118  0.00  0.00    +0.004 A 
ATOM     21  C   LIG A   1      -9.027   5.920 130.028  0.00  0.00    +0.014 A 
ATOM     22  C   LIG A   1      -8.913   4.530 130.174  0.00  0.00    +0.050 A 
ENDROOT
BRANCH   5  23
ATOM     23  O   LIG A   1      -8.506  -0.262 131.885  0.00  0.00    -0.489 OA
ATOM     24  C   LIG A   1      -7.337  -0.234 132.705  0.00  0.00    +0.277 C 
ENDBRANCH   5  23
BRANCH  14  25
ATOM     25  O   LIG A   1      -7.370   2.028 126.970  0.00  0.00    -0.505 OA
ATOM     26  H   LIG A   1      -6.723   1.436 126.520  0.00  0.00    +0.292 HD
ENDBRANCH  14  25
BRANCH  18  27
ATOM     27  O   LIG A   1      -9.603   4.212 133.752  0.00  0.00    -0.505 OA
ATOM     28  H   LIG A   1     -10.536   3.943 133.843  0.00  0.00    +0.292 HD
ENDBRANCH  18  27
TORSDOF 3
ENDMDL
