MODEL 1
REMARK VINA RESULT:      -6.2      0.000      0.000
REMARK  Name = NuBBE_2215
REMARK  5 active torsions:
REMARK  status: ('A' for Active; 'I' for Inactive)
REMARK    1  A    between atoms: O_1  and  C_2
REMARK    2  A    between atoms: C_5  and  C_10
REMARK    3  A    between atoms: C_6  and  O_8
REMARK    4  A    between atoms: O_8  and  C_9
REMARK    5  A    between atoms: C_12  and  C_17
REMARK                            x       y       z     vdW  Elec       q    Type
REMARK                         _______ _______ _______ _____ _____    ______ ____
ROOT
ATOM      1  C   LIG A   1     -12.139   7.117 131.236  0.00  0.00    +0.135 A 
ATOM      2  C   LIG A   1     -11.734   7.547 129.968  0.00  0.00    +0.104 A 
ATOM      3  C   LIG A   1     -10.690   6.877 129.306  0.00  0.00    -0.020 A 
ATOM      4  C   LIG A   1     -10.030   5.797 129.942  0.00  0.00    -0.004 A 
ATOM      5  C   LIG A   1     -10.480   5.355 131.206  0.00  0.00    +0.127 A 
ATOM      6  C   LIG A   1     -11.529   6.022 131.844  0.00  0.00    +0.092 A 
ATOM      7  C   LIG A   1      -8.885   5.089 129.257  0.00  0.00    +0.048 C 
ATOM      8  C   LIG A   1     -10.277   7.385 127.948  0.00  0.00    +0.080 C 
ATOM      9  C   LIG A   1     -11.467   8.002 127.221  0.00  0.00    +0.178 C 
ATOM     10  O   LIG A   1     -12.121   8.984 128.044  0.00  0.00    -0.458 OA
ATOM     11  C   LIG A   1     -12.395   8.722 129.344  0.00  0.00    +0.343 C 
ATOM     12  O   LIG A   1     -13.154   9.425 130.004  0.00  0.00    -0.245 OA
ATOM     13  C   LIG A   1     -12.486   6.980 126.722  0.00  0.00    +0.052 C 
ENDROOT
BRANCH   1  14
ATOM     14  O   LIG A   1     -13.137   7.720 131.956  0.00  0.00    -0.506 OA
ATOM     15  H   LIG A   1     -13.990   7.279 131.741  0.00  0.00    +0.292 HD
ENDBRANCH   1  14
BRANCH   5  16
ATOM     16  O   LIG A   1      -9.830   4.266 131.730  0.00  0.00    -0.495 OA
ATOM     17  C   LIG A   1      -9.155   4.434 132.970  0.00  0.00    +0.277 C 
ENDBRANCH   5  16
TORSDOF 2
ENDMDL
MODEL 2
REMARK VINA RESULT:      -6.0     10.428     10.870
REMARK  Name = NuBBE_2215
REMARK  5 active torsions:
REMARK  status: ('A' for Active; 'I' for Inactive)
REMARK    1  A    between atoms: O_1  and  C_2
REMARK    2  A    between atoms: C_5  and  C_10
REMARK    3  A    between atoms: C_6  and  O_8
REMARK    4  A    between atoms: O_8  and  C_9
REMARK    5  A    between atoms: C_12  and  C_17
REMARK                            x       y       z     vdW  Elec       q    Type
REMARK                         _______ _______ _______ _____ _____    ______ ____
ROOT
ATOM      1  C   LIG A   1      -8.990  -2.878 126.287  0.00  0.00    +0.135 A 
ATOM      2  C   LIG A   1      -8.015  -2.207 125.542  0.00  0.00    +0.104 A 
ATOM      3  C   LIG A   1      -6.753  -1.958 126.111  0.00  0.00    -0.020 A 
ATOM      4  C   LIG A   1      -6.491  -2.354 127.446  0.00  0.00    -0.004 A 
ATOM      5  C   LIG A   1      -7.477  -3.065 128.166  0.00  0.00    +0.127 A 
ATOM      6  C   LIG A   1      -8.720  -3.317 127.581  0.00  0.00    +0.092 A 
ATOM      7  C   LIG A   1      -5.152  -2.065 128.081  0.00  0.00    +0.048 C 
ATOM      8  C   LIG A   1      -5.739  -1.218 125.278  0.00  0.00    +0.080 C 
ATOM      9  C   LIG A   1      -5.943  -1.514 123.796  0.00  0.00    +0.178 C 
ATOM     10  O   LIG A   1      -7.308  -1.281 123.406  0.00  0.00    -0.458 OA
ATOM     11  C   LIG A   1      -8.330  -1.743 124.167  0.00  0.00    +0.343 C 
ATOM     12  O   LIG A   1      -9.485  -1.775 123.754  0.00  0.00    -0.245 OA
ATOM     13  C   LIG A   1      -5.517  -2.920 123.379  0.00  0.00    +0.052 C 
ENDROOT
BRANCH   1  14
ATOM     14  O   LIG A   1     -10.248  -3.150 125.815  0.00  0.00    -0.506 OA
ATOM     15  H   LIG A   1     -10.815  -3.424 126.570  0.00  0.00    +0.292 HD
ENDBRANCH   1  14
BRANCH   5  16
ATOM     16  O   LIG A   1      -7.127  -3.467 129.430  0.00  0.00    -0.495 OA
ATOM     17  C   LIG A   1      -7.709  -2.777 130.528  0.00  0.00    +0.277 C 
ENDBRANCH   5  16
TORSDOF 2
ENDMDL
MODEL 3
REMARK VINA RESULT:      -6.0      1.705      5.069
REMARK  Name = NuBBE_2215
REMARK  5 active torsions:
REMARK  status: ('A' for Active; 'I' for Inactive)
REMARK    1  A    between atoms: O_1  and  C_2
REMARK    2  A    between atoms: C_5  and  C_10
REMARK    3  A    between atoms: C_6  and  O_8
REMARK    4  A    between atoms: O_8  and  C_9
REMARK    5  A    between atoms: C_12  and  C_17
REMARK                            x       y       z     vdW  Elec       q    Type
REMARK                         _______ _______ _______ _____ _____    ______ ____
ROOT
ATOM      1  C   LIG A   1     -10.774   7.022 127.786  0.00  0.00    +0.135 A 
ATOM      2  C   LIG A   1     -10.402   6.354 128.957  0.00  0.00    +0.104 A 
ATOM      3  C   LIG A   1     -11.100   6.601 130.152  0.00  0.00    -0.020 A 
ATOM      4  C   LIG A   1     -12.150   7.553 130.171  0.00  0.00    -0.004 A 
ATOM      5  C   LIG A   1     -12.535   8.186 128.969  0.00  0.00    +0.127 A 
ATOM      6  C   LIG A   1     -11.840   7.918 127.787  0.00  0.00    +0.092 A 
ATOM      7  C   LIG A   1     -12.887   7.853 131.454  0.00  0.00    +0.048 C 
ATOM      8  C   LIG A   1     -10.654   5.871 131.393  0.00  0.00    +0.080 C 
ATOM      9  C   LIG A   1     -10.071   4.508 131.033  0.00  0.00    +0.178 C 
ATOM     10  O   LIG A   1      -9.053   4.633 130.024  0.00  0.00    -0.458 OA
ATOM     11  C   LIG A   1      -9.256   5.408 128.932  0.00  0.00    +0.343 C 
ATOM     12  O   LIG A   1      -8.525   5.351 127.948  0.00  0.00    -0.245 OA
ATOM     13  C   LIG A   1     -11.115   3.484 130.594  0.00  0.00    +0.052 C 
ENDROOT
BRANCH   1  14
ATOM     14  O   LIG A   1     -10.139   6.850 126.583  0.00  0.00    -0.506 OA
ATOM     15  H   LIG A   1     -10.138   5.891 126.363  0.00  0.00    +0.292 HD
ENDBRANCH   1  14
BRANCH   5  16
ATOM     16  O   LIG A   1     -13.598   9.048 129.056  0.00  0.00    -0.495 OA
ATOM     17  C   LIG A   1     -13.316  10.441 129.125  0.00  0.00    +0.277 C 
ENDBRANCH   5  16
TORSDOF 2
ENDMDL
MODEL 4
REMARK VINA RESULT:      -5.7      8.426     10.184
REMARK  Name = NuBBE_2215
REMARK  5 active torsions:
REMARK  status: ('A' for Active; 'I' for Inactive)
REMARK    1  A    between atoms: O_1  and  C_2
REMARK    2  A    between atoms: C_5  and  C_10
REMARK    3  A    between atoms: C_6  and  O_8
REMARK    4  A    between atoms: O_8  and  C_9
REMARK    5  A    between atoms: C_12  and  C_17
REMARK                            x       y       z     vdW  Elec       q    Type
REMARK                         _______ _______ _______ _____ _____    ______ ____
ROOT
ATOM      1  C   LIG A   1      -8.763  -1.414 123.526  0.00  0.00    +0.135 A 
ATOM      2  C   LIG A   1      -8.559  -0.073 123.870  0.00  0.00    +0.104 A 
ATOM      3  C   LIG A   1      -7.402   0.295 124.580  0.00  0.00    -0.020 A 
ATOM      4  C   LIG A   1      -6.471  -0.698 124.974  0.00  0.00    -0.004 A 
ATOM      5  C   LIG A   1      -6.678  -2.039 124.582  0.00  0.00    +0.127 A 
ATOM      6  C   LIG A   1      -7.825  -2.386 123.865  0.00  0.00    +0.092 A 
ATOM      7  C   LIG A   1      -5.240  -0.322 125.765  0.00  0.00    +0.048 C 
ATOM      8  C   LIG A   1      -7.231   1.748 124.943  0.00  0.00    +0.080 C 
ATOM      9  C   LIG A   1      -7.891   2.643 123.900  0.00  0.00    +0.178 C 
ATOM     10  O   LIG A   1      -9.256   2.249 123.672  0.00  0.00    -0.458 OA
ATOM     11  C   LIG A   1      -9.578   0.944 123.505  0.00  0.00    +0.343 C 
ATOM     12  O   LIG A   1     -10.672   0.594 123.075  0.00  0.00    -0.245 OA
ATOM     13  C   LIG A   1      -7.140   2.706 122.572  0.00  0.00    +0.052 C 
ENDROOT
BRANCH   1  14
ATOM     14  O   LIG A   1      -9.868  -1.860 122.848  0.00  0.00    -0.506 OA
ATOM     15  H   LIG A   1     -10.656  -1.753 123.427  0.00  0.00    +0.292 HD
ENDBRANCH   1  14
BRANCH   5  16
ATOM     16  O   LIG A   1      -5.702  -2.931 124.950  0.00  0.00    -0.495 OA
ATOM     17  C   LIG A   1      -5.072  -3.682 123.920  0.00  0.00    +0.277 C 
ENDBRANCH   5  16
TORSDOF 2
ENDMDL
MODEL 5
REMARK VINA RESULT:      -5.6      7.868      9.692
REMARK  Name = NuBBE_2215
REMARK  5 active torsions:
REMARK  status: ('A' for Active; 'I' for Inactive)
REMARK    1  A    between atoms: O_1  and  C_2
REMARK    2  A    between atoms: C_5  and  C_10
REMARK    3  A    between atoms: C_6  and  O_8
REMARK    4  A    between atoms: O_8  and  C_9
REMARK    5  A    between atoms: C_12  and  C_17
REMARK                            x       y       z     vdW  Elec       q    Type
REMARK                         _______ _______ _______ _____ _____    ______ ____
ROOT
ATOM      1  C   LIG A   1      -9.199   1.306 124.674  0.00  0.00    +0.135 A 
ATOM      2  C   LIG A   1      -8.825   0.164 123.958  0.00  0.00    +0.104 A 
ATOM      3  C   LIG A   1      -7.619  -0.490 124.269  0.00  0.00    -0.020 A 
ATOM      4  C   LIG A   1      -6.774   0.033 125.280  0.00  0.00    -0.004 A 
ATOM      5  C   LIG A   1      -7.191   1.164 126.017  0.00  0.00    +0.127 A 
ATOM      6  C   LIG A   1      -8.399   1.793 125.704  0.00  0.00    +0.092 A 
ATOM      7  C   LIG A   1      -5.461  -0.639 125.603  0.00  0.00    +0.048 C 
ATOM      8  C   LIG A   1      -7.248  -1.706 123.461  0.00  0.00    +0.080 C 
ATOM      9  C   LIG A   1      -8.499  -2.441 122.992  0.00  0.00    +0.178 C 
ATOM     10  O   LIG A   1      -9.405  -1.544 122.325  0.00  0.00    -0.458 OA
ATOM     11  C   LIG A   1      -9.692  -0.332 122.859  0.00  0.00    +0.343 C 
ATOM     12  O   LIG A   1     -10.627   0.352 122.455  0.00  0.00    -0.245 OA
ATOM     13  C   LIG A   1      -9.233  -3.188 124.104  0.00  0.00    +0.052 C 
ENDROOT
BRANCH   1  14
ATOM     14  O   LIG A   1     -10.349   2.010 124.427  0.00  0.00    -0.506 OA
ATOM     15  H   LIG A   1     -10.552   1.952 123.466  0.00  0.00    +0.292 HD
ENDBRANCH   1  14
BRANCH   5  16
ATOM     16  O   LIG A   1      -6.347   1.574 127.018  0.00  0.00    -0.495 OA
ATOM     17  C   LIG A   1      -5.814   2.890 126.936  0.00  0.00    +0.277 C 
ENDBRANCH   5  16
TORSDOF 2
ENDMDL
MODEL 6
REMARK VINA RESULT:      -5.6      1.713      3.199
REMARK  Name = NuBBE_2215
REMARK  5 active torsions:
REMARK  status: ('A' for Active; 'I' for Inactive)
REMARK    1  A    between atoms: O_1  and  C_2
REMARK    2  A    between atoms: C_5  and  C_10
REMARK    3  A    between atoms: C_6  and  O_8
REMARK    4  A    between atoms: O_8  and  C_9
REMARK    5  A    between atoms: C_12  and  C_17
REMARK                            x       y       z     vdW  Elec       q    Type
REMARK                         _______ _______ _______ _____ _____    ______ ____
ROOT
ATOM      1  C   LIG A   1      -9.891   6.279 128.269  0.00  0.00    +0.135 A 
ATOM      2  C   LIG A   1     -11.190   6.741 128.505  0.00  0.00    +0.104 A 
ATOM      3  C   LIG A   1     -11.674   6.814 129.824  0.00  0.00    -0.020 A 
ATOM      4  C   LIG A   1     -10.858   6.385 130.899  0.00  0.00    -0.004 A 
ATOM      5  C   LIG A   1      -9.536   5.959 130.641  0.00  0.00    +0.127 A 
ATOM      6  C   LIG A   1      -9.065   5.905 129.326  0.00  0.00    +0.092 A 
ATOM      7  C   LIG A   1     -11.376   6.426 132.317  0.00  0.00    +0.048 C 
ATOM      8  C   LIG A   1     -13.085   7.303 130.030  0.00  0.00    +0.080 C 
ATOM      9  C   LIG A   1     -13.472   8.299 128.942  0.00  0.00    +0.178 C 
ATOM     10  O   LIG A   1     -13.222   7.756 127.633  0.00  0.00    -0.458 OA
ATOM     11  C   LIG A   1     -12.053   7.127 127.360  0.00  0.00    +0.343 C 
ATOM     12  O   LIG A   1     -11.707   6.868 126.211  0.00  0.00    -0.245 OA
ATOM     13  C   LIG A   1     -12.795   9.661 129.077  0.00  0.00    +0.052 C 
ENDROOT
BRANCH   1  14
ATOM     14  O   LIG A   1      -9.346   6.164 127.016  0.00  0.00    -0.506 OA
ATOM     15  H   LIG A   1      -8.427   5.824 127.103  0.00  0.00    +0.292 HD
ENDBRANCH   1  14
BRANCH   5  16
ATOM     16  O   LIG A   1      -8.788   5.616 131.739  0.00  0.00    -0.495 OA
ATOM     17  C   LIG A   1      -8.059   4.396 131.687  0.00  0.00    +0.277 C 
ENDBRANCH   5  16
TORSDOF 2
ENDMDL
MODEL 7
REMARK VINA RESULT:      -5.5     10.387     11.599
REMARK  Name = NuBBE_2215
REMARK  5 active torsions:
REMARK  status: ('A' for Active; 'I' for Inactive)
REMARK    1  A    between atoms: O_1  and  C_2
REMARK    2  A    between atoms: C_5  and  C_10
REMARK    3  A    between atoms: C_6  and  O_8
REMARK    4  A    between atoms: O_8  and  C_9
REMARK    5  A    between atoms: C_12  and  C_17
REMARK                            x       y       z     vdW  Elec       q    Type
REMARK                         _______ _______ _______ _____ _____    ______ ____
ROOT
ATOM      1  C   LIG A   1      -5.961  -1.544 127.400  0.00  0.00    +0.135 A 
ATOM      2  C   LIG A   1      -6.220  -2.010 128.694  0.00  0.00    +0.104 A 
ATOM      3  C   LIG A   1      -7.319  -2.858 128.921  0.00  0.00    -0.020 A 
ATOM      4  C   LIG A   1      -8.176  -3.205 127.848  0.00  0.00    -0.004 A 
ATOM      5  C   LIG A   1      -7.872  -2.755 126.543  0.00  0.00    +0.127 A 
ATOM      6  C   LIG A   1      -6.769  -1.925 126.332  0.00  0.00    +0.092 A 
ATOM      7  C   LIG A   1      -9.378  -4.088 128.083  0.00  0.00    +0.048 C 
ATOM      8  C   LIG A   1      -7.569  -3.322 130.333  0.00  0.00    +0.080 C 
ATOM      9  C   LIG A   1      -6.258  -3.429 131.104  0.00  0.00    +0.178 C 
ATOM     10  O   LIG A   1      -5.503  -2.208 131.010  0.00  0.00    -0.458 OA
ATOM     11  C   LIG A   1      -5.348  -1.583 129.818  0.00  0.00    +0.343 C 
ATOM     12  O   LIG A   1      -4.525  -0.687 129.655  0.00  0.00    -0.245 OA
ATOM     13  C   LIG A   1      -5.386  -4.611 130.684  0.00  0.00    +0.052 C 
ENDROOT
BRANCH   1  14
ATOM     14  O   LIG A   1      -4.921  -0.705 127.093  0.00  0.00    -0.506 OA
ATOM     15  H   LIG A   1      -4.081  -1.127 127.381  0.00  0.00    +0.292 HD
ENDBRANCH   1  14
BRANCH   5  16
ATOM     16  O   LIG A   1      -8.715  -3.182 125.548  0.00  0.00    -0.495 OA
ATOM     17  C   LIG A   1      -8.127  -3.649 124.340  0.00  0.00    +0.277 C 
ENDBRANCH   5  16
TORSDOF 2
ENDMDL
MODEL 8
REMARK VINA RESULT:      -5.4      7.428      9.815
REMARK  Name = NuBBE_2215
REMARK  5 active torsions:
REMARK  status: ('A' for Active; 'I' for Inactive)
REMARK    1  A    between atoms: O_1  and  C_2
REMARK    2  A    between atoms: C_5  and  C_10
REMARK    3  A    between atoms: C_6  and  O_8
REMARK    4  A    between atoms: O_8  and  C_9
REMARK    5  A    between atoms: C_12  and  C_17
REMARK                            x       y       z     vdW  Elec       q    Type
REMARK                         _______ _______ _______ _____ _____    ______ ____
ROOT
ATOM      1  C   LIG A   1      -8.306   0.198 126.501  0.00  0.00    +0.135 A 
ATOM      2  C   LIG A   1      -8.499  -0.621 125.384  0.00  0.00    +0.104 A 
ATOM      3  C   LIG A   1      -8.837  -0.044 124.147  0.00  0.00    -0.020 A 
ATOM      4  C   LIG A   1      -9.017   1.358 124.049  0.00  0.00    -0.004 A 
ATOM      5  C   LIG A   1      -8.778   2.170 125.180  0.00  0.00    +0.127 A 
ATOM      6  C   LIG A   1      -8.429   1.582 126.398  0.00  0.00    +0.092 A 
ATOM      7  C   LIG A   1      -9.412   1.989 122.735  0.00  0.00    +0.048 C 
ATOM      8  C   LIG A   1      -9.051  -0.966 122.974  0.00  0.00    +0.080 C 
ATOM      9  C   LIG A   1      -8.179  -2.211 123.104  0.00  0.00    +0.178 C 
ATOM     10  O   LIG A   1      -8.362  -2.836 124.387  0.00  0.00    -0.458 OA
ATOM     11  C   LIG A   1      -8.369  -2.094 125.521  0.00  0.00    +0.343 C 
ATOM     12  O   LIG A   1      -8.281  -2.605 126.633  0.00  0.00    -0.245 OA
ATOM     13  C   LIG A   1      -6.694  -1.957 122.857  0.00  0.00    +0.052 C 
ENDROOT
BRANCH   1  14
ATOM     14  O   LIG A   1      -7.988  -0.282 127.745  0.00  0.00    -0.506 OA
ATOM     15  H   LIG A   1      -7.073  -0.644 127.718  0.00  0.00    +0.292 HD
ENDBRANCH   1  14
BRANCH   5  16
ATOM     16  O   LIG A   1      -8.914   3.522 124.990  0.00  0.00    -0.495 OA
ATOM     17  C   LIG A   1      -7.888   4.366 125.495  0.00  0.00    +0.277 C 
ENDBRANCH   5  16
TORSDOF 2
ENDMDL
MODEL 9
REMARK VINA RESULT:      -5.3      2.612      4.243
REMARK  Name = NuBBE_2215
REMARK  5 active torsions:
REMARK  status: ('A' for Active; 'I' for Inactive)
REMARK    1  A    between atoms: O_1  and  C_2
REMARK    2  A    between atoms: C_5  and  C_10
REMARK    3  A    between atoms: C_6  and  O_8
REMARK    4  A    between atoms: O_8  and  C_9
REMARK    5  A    between atoms: C_12  and  C_17
REMARK                            x       y       z     vdW  Elec       q    Type
REMARK                         _______ _______ _______ _____ _____    ______ ____
ROOT
ATOM      1  C   LIG A   1      -9.302   3.679 132.951  0.00  0.00    +0.135 A 
ATOM      2  C   LIG A   1      -9.297   4.609 131.906  0.00  0.00    +0.104 A 
ATOM      3  C   LIG A   1      -9.135   4.167 130.581  0.00  0.00    -0.020 A 
ATOM      4  C   LIG A   1      -8.939   2.788 130.316  0.00  0.00    -0.004 A 
ATOM      5  C   LIG A   1      -8.987   1.863 131.383  0.00  0.00    +0.127 A 
ATOM      6  C   LIG A   1      -9.164   2.317 132.692  0.00  0.00    +0.092 A 
ATOM      7  C   LIG A   1      -8.731   2.303 128.902  0.00  0.00    +0.048 C 
ATOM      8  C   LIG A   1      -9.119   5.205 129.489  0.00  0.00    +0.080 C 
ATOM      9  C   LIG A   1      -9.990   6.398 129.870  0.00  0.00    +0.178 C 
ATOM     10  O   LIG A   1      -9.632   6.903 131.169  0.00  0.00    -0.458 OA
ATOM     11  C   LIG A   1      -9.439   6.056 132.209  0.00  0.00    +0.343 C 
ATOM     12  O   LIG A   1      -9.372   6.453 133.367  0.00  0.00    -0.245 OA
ATOM     13  C   LIG A   1     -11.489   6.113 129.819  0.00  0.00    +0.052 C 
ENDROOT
BRANCH   1  14
ATOM     14  O   LIG A   1      -9.442   4.025 134.270  0.00  0.00    -0.506 OA
ATOM     15  H   LIG A   1      -8.820   4.760 134.469  0.00  0.00    +0.292 HD
ENDBRANCH   1  14
BRANCH   5  16
ATOM     16  O   LIG A   1      -8.850   0.542 131.040  0.00  0.00    -0.495 OA
ATOM     17  C   LIG A   1      -8.438  -0.365 132.054  0.00  0.00    +0.277 C 
ENDBRANCH   5  16
TORSDOF 2
ENDMDL
