MODEL 1
REMARK VINA RESULT:      -6.6      0.000      0.000
REMARK  Name = NuBBE_261
REMARK  12 active torsions:
REMARK  status: ('A' for Active; 'I' for Inactive)
REMARK    1  A    between atoms: C_1  and  O_2
REMARK    2  A    between atoms: O_2  and  C_3
REMARK    3  A    between atoms: C_4  and  O_5
REMARK    4  A    between atoms: C_6  and  O_7
REMARK    5  A    between atoms: O_7  and  C_8
REMARK    6  A    between atoms: C_10  and  C_11
REMARK    7  A    between atoms: C_19  and  C_21
REMARK    8  A    between atoms: C_23  and  O_24
REMARK    9  A    between atoms: O_24  and  C_25
REMARK   10  A    between atoms: C_26  and  O_27
REMARK   11  A    between atoms: C_28  and  O_29
REMARK   12  A    between atoms: O_29  and  C_30
REMARK                            x       y       z     vdW  Elec       q    Type
REMARK                         _______ _______ _______ _____ _____    ______ ____
ROOT
ATOM      1  C   LIG A   1      -3.680   3.022 128.507  0.00  0.00    +0.154 C 
ATOM      2  O   LIG A   1      -4.518   2.104 127.793  0.00  0.00    -0.371 OA
ATOM      3  C   LIG A   1      -4.120   2.178 126.427  0.00  0.00    +0.167 C 
ATOM      4  C   LIG A   1      -3.732   3.625 126.152  0.00  0.00    +0.056 C 
ATOM      5  C   LIG A   1      -3.406   4.188 127.539  0.00  0.00    +0.056 C 
ATOM      6  C   LIG A   1      -4.308   5.408 127.658  0.00  0.00    +0.167 C 
ATOM      7  O   LIG A   1      -5.396   5.196 126.760  0.00  0.00    -0.371 OA
ATOM      8  C   LIG A   1      -4.833   4.560 125.607  0.00  0.00    +0.154 C 
ENDROOT
BRANCH   1  13
ATOM      9  C   LIG A   1      -6.200   3.571 131.308  0.00  0.00    +0.165 A 
ATOM     10  C   LIG A   1      -5.385   4.119 132.301  0.00  0.00    +0.201 A 
ATOM     11  C   LIG A   1      -3.994   4.225 132.130  0.00  0.00    +0.165 A 
ATOM     12  C   LIG A   1      -3.451   3.859 130.899  0.00  0.00    +0.056 A 
ATOM     13  C   LIG A   1      -4.268   3.352 129.865  0.00  0.00    -0.011 A 
ATOM     14  C   LIG A   1      -5.645   3.192 130.096  0.00  0.00    +0.056 A 
BRANCH   9  16
ATOM     15  C   LIG A   1      -8.422   3.541 130.511  0.00  0.00    +0.277 C 
ATOM     16  O   LIG A   1      -7.536   3.536 131.625  0.00  0.00    -0.491 OA
ENDBRANCH   9  16
BRANCH  10  17
ATOM     17  O   LIG A   1      -6.014   4.583 133.424  0.00  0.00    -0.501 OA
ATOM     18  H   LIG A   1      -6.600   3.855 133.707  0.00  0.00    +0.292 HD
ENDBRANCH  10  17
BRANCH  11  19
ATOM     19  O   LIG A   1      -3.125   4.717 133.071  0.00  0.00    -0.491 OA
ATOM     20  C   LIG A   1      -1.735   4.566 132.777  0.00  0.00    +0.277 C 
ENDBRANCH  11  19
ENDBRANCH   1  13
BRANCH   8  21
ATOM     21  C   LIG A   1      -5.896   3.962 124.712  0.00  0.00    -0.011 A 
ATOM     22  C   LIG A   1      -7.043   3.398 125.287  0.00  0.00    +0.056 A 
ATOM     23  C   LIG A   1      -8.111   2.987 124.487  0.00  0.00    +0.165 A 
ATOM     24  C   LIG A   1      -7.976   3.029 123.092  0.00  0.00    +0.201 A 
ATOM     25  C   LIG A   1      -6.794   3.473 122.494  0.00  0.00    +0.165 A 
ATOM     26  C   LIG A   1      -5.772   3.963 123.311  0.00  0.00    +0.056 A 
BRANCH  23  27
ATOM     27  O   LIG A   1      -9.319   2.555 124.979  0.00  0.00    -0.491 OA
ATOM     28  C   LIG A   1      -9.334   1.197 125.418  0.00  0.00    +0.277 C 
ENDBRANCH  23  27
BRANCH  24  29
ATOM     29  O   LIG A   1      -9.037   2.681 122.293  0.00  0.00    -0.501 OA
ATOM     30  H   LIG A   1      -9.722   3.353 122.458  0.00  0.00    +0.292 HD
ENDBRANCH  24  29
BRANCH  25  31
ATOM     31  O   LIG A   1      -6.759   3.508 121.125  0.00  0.00    -0.491 OA
ATOM     32  C   LIG A   1      -5.705   4.274 120.552  0.00  0.00    +0.277 C 
ENDBRANCH  25  31
ENDBRANCH   8  21
TORSDOF 8
ENDMDL
MODEL 2
REMARK VINA RESULT:      -6.6      0.208      8.173
REMARK  Name = NuBBE_261
REMARK  12 active torsions:
REMARK  status: ('A' for Active; 'I' for Inactive)
REMARK    1  A    between atoms: C_1  and  O_2
REMARK    2  A    between atoms: O_2  and  C_3
REMARK    3  A    between atoms: C_4  and  O_5
REMARK    4  A    between atoms: C_6  and  O_7
REMARK    5  A    between atoms: O_7  and  C_8
REMARK    6  A    between atoms: C_10  and  C_11
REMARK    7  A    between atoms: C_19  and  C_21
REMARK    8  A    between atoms: C_23  and  O_24
REMARK    9  A    between atoms: O_24  and  C_25
REMARK   10  A    between atoms: C_26  and  O_27
REMARK   11  A    between atoms: C_28  and  O_29
REMARK   12  A    between atoms: O_29  and  C_30
REMARK                            x       y       z     vdW  Elec       q    Type
REMARK                         _______ _______ _______ _____ _____    ______ ____
ROOT
ATOM      1  C   LIG A   1      -4.835   4.505 125.578  0.00  0.00    +0.154 C 
ATOM      2  O   LIG A   1      -5.397   5.185 126.709  0.00  0.00    -0.371 OA
ATOM      3  C   LIG A   1      -4.348   5.304 127.666  0.00  0.00    +0.167 C 
ATOM      4  C   LIG A   1      -3.498   4.045 127.556  0.00  0.00    +0.056 C 
ATOM      5  C   LIG A   1      -3.796   3.521 126.148  0.00  0.00    +0.056 C 
ATOM      6  C   LIG A   1      -4.259   2.091 126.382  0.00  0.00    +0.167 C 
ATOM      7  O   LIG A   1      -4.736   2.034 127.725  0.00  0.00    -0.371 OA
ATOM      8  C   LIG A   1      -3.857   2.868 128.489  0.00  0.00    +0.154 C 
ENDROOT
BRANCH   1  13
ATOM      9  C   LIG A   1      -6.778   3.496 122.462  0.00  0.00    +0.165 A 
ATOM     10  C   LIG A   1      -7.990   3.084 123.022  0.00  0.00    +0.201 A 
ATOM     11  C   LIG A   1      -8.169   3.020 124.415  0.00  0.00    +0.165 A 
ATOM     12  C   LIG A   1      -7.136   3.476 125.233  0.00  0.00    +0.056 A 
ATOM     13  C   LIG A   1      -5.924   3.946 124.683  0.00  0.00    -0.011 A 
ATOM     14  C   LIG A   1      -5.752   3.929 123.288  0.00  0.00    +0.056 A 
BRANCH   9  16
ATOM     15  C   LIG A   1      -5.736   4.300 120.502  0.00  0.00    +0.277 C 
ATOM     16  O   LIG A   1      -6.760   3.504 121.089  0.00  0.00    -0.491 OA
ENDBRANCH   9  16
BRANCH  10  17
ATOM     17  O   LIG A   1      -8.999   2.787 122.147  0.00  0.00    -0.501 OA
ATOM     18  H   LIG A   1      -8.797   1.889 121.820  0.00  0.00    +0.292 HD
ENDBRANCH  10  17
BRANCH  11  19
ATOM     19  O   LIG A   1      -9.314   2.591 125.037  0.00  0.00    -0.491 OA
ATOM     20  C   LIG A   1      -9.390   1.190 125.307  0.00  0.00    +0.277 C 
ENDBRANCH  11  19
ENDBRANCH   1  13
BRANCH   8  21
ATOM     21  C   LIG A   1      -4.420   3.187 129.855  0.00  0.00    -0.011 A 
ATOM     22  C   LIG A   1      -3.565   3.666 130.858  0.00  0.00    +0.056 A 
ATOM     23  C   LIG A   1      -4.080   4.121 132.073  0.00  0.00    +0.165 A 
ATOM     24  C   LIG A   1      -5.451   3.981 132.331  0.00  0.00    +0.201 A 
ATOM     25  C   LIG A   1      -6.305   3.394 131.394  0.00  0.00    +0.165 A 
ATOM     26  C   LIG A   1      -5.786   3.026 130.150  0.00  0.00    +0.056 A 
BRANCH  23  27
ATOM     27  O   LIG A   1      -3.326   4.731 133.047  0.00  0.00    -0.491 OA
ATOM     28  C   LIG A   1      -1.915   4.588 132.887  0.00  0.00    +0.277 C 
ENDBRANCH  23  27
BRANCH  24  29
ATOM     29  O   LIG A   1      -5.979   4.475 133.497  0.00  0.00    -0.501 OA
ATOM     30  H   LIG A   1      -5.228   4.563 134.110  0.00  0.00    +0.292 HD
ENDBRANCH  24  29
BRANCH  25  31
ATOM     31  O   LIG A   1      -7.635   3.323 131.716  0.00  0.00    -0.491 OA
ATOM     32  C   LIG A   1      -8.502   4.154 130.955  0.00  0.00    +0.277 C 
ENDBRANCH  25  31
ENDBRANCH   8  21
TORSDOF 8
ENDMDL
MODEL 3
REMARK VINA RESULT:      -6.6      0.268      8.079
REMARK  Name = NuBBE_261
REMARK  12 active torsions:
REMARK  status: ('A' for Active; 'I' for Inactive)
REMARK    1  A    between atoms: C_1  and  O_2
REMARK    2  A    between atoms: O_2  and  C_3
REMARK    3  A    between atoms: C_4  and  O_5
REMARK    4  A    between atoms: C_6  and  O_7
REMARK    5  A    between atoms: O_7  and  C_8
REMARK    6  A    between atoms: C_10  and  C_11
REMARK    7  A    between atoms: C_19  and  C_21
REMARK    8  A    between atoms: C_23  and  O_24
REMARK    9  A    between atoms: O_24  and  C_25
REMARK   10  A    between atoms: C_26  and  O_27
REMARK   11  A    between atoms: C_28  and  O_29
REMARK   12  A    between atoms: O_29  and  C_30
REMARK                            x       y       z     vdW  Elec       q    Type
REMARK                         _______ _______ _______ _____ _____    ______ ____
ROOT
ATOM      1  C   LIG A   1      -4.807   4.505 125.507  0.00  0.00    +0.154 C 
ATOM      2  O   LIG A   1      -5.347   5.228 126.623  0.00  0.00    -0.371 OA
ATOM      3  C   LIG A   1      -4.289   5.353 127.568  0.00  0.00    +0.167 C 
ATOM      4  C   LIG A   1      -3.463   4.075 127.488  0.00  0.00    +0.056 C 
ATOM      5  C   LIG A   1      -3.783   3.518 126.097  0.00  0.00    +0.056 C 
ATOM      6  C   LIG A   1      -4.271   2.104 126.374  0.00  0.00    +0.167 C 
ATOM      7  O   LIG A   1      -4.740   2.094 127.722  0.00  0.00    -0.371 OA
ATOM      8  C   LIG A   1      -3.838   2.931 128.455  0.00  0.00    +0.154 C 
ENDROOT
BRANCH   1  13
ATOM      9  C   LIG A   1      -6.812   3.485 122.435  0.00  0.00    +0.165 A 
ATOM     10  C   LIG A   1      -8.013   3.075 123.020  0.00  0.00    +0.201 A 
ATOM     11  C   LIG A   1      -8.164   3.018 124.417  0.00  0.00    +0.165 A 
ATOM     12  C   LIG A   1      -7.115   3.477 125.213  0.00  0.00    +0.056 A 
ATOM     13  C   LIG A   1      -5.914   3.943 124.637  0.00  0.00    -0.011 A 
ATOM     14  C   LIG A   1      -5.770   3.920 123.239  0.00  0.00    +0.056 A 
BRANCH   9  16
ATOM     15  C   LIG A   1      -5.823   4.297 120.452  0.00  0.00    +0.277 C 
ATOM     16  O   LIG A   1      -6.821   3.487 121.062  0.00  0.00    -0.491 OA
ENDBRANCH   9  16
BRANCH  10  17
ATOM     17  O   LIG A   1      -9.039   2.775 122.167  0.00  0.00    -0.501 OA
ATOM     18  H   LIG A   1      -8.709   2.036 121.621  0.00  0.00    +0.292 HD
ENDBRANCH  10  17
BRANCH  11  19
ATOM     19  O   LIG A   1      -9.297   2.593 125.064  0.00  0.00    -0.491 OA
ATOM     20  C   LIG A   1      -9.383   1.188 125.314  0.00  0.00    +0.277 C 
ENDBRANCH  11  19
ENDBRANCH   1  13
BRANCH   8  21
ATOM     21  C   LIG A   1      -4.384   3.300 129.816  0.00  0.00    -0.011 A 
ATOM     22  C   LIG A   1      -5.744   3.098 130.090  0.00  0.00    +0.056 A 
ATOM     23  C   LIG A   1      -6.243   3.274 131.382  0.00  0.00    +0.165 A 
ATOM     24  C   LIG A   1      -5.396   3.776 132.379  0.00  0.00    +0.201 A 
ATOM     25  C   LIG A   1      -4.066   4.101 132.101  0.00  0.00    +0.165 A 
ATOM     26  C   LIG A   1      -3.563   3.834 130.825  0.00  0.00    +0.056 A 
BRANCH  23  27
ATOM     27  O   LIG A   1      -7.528   2.964 131.759  0.00  0.00    -0.491 OA
ATOM     28  C   LIG A   1      -8.537   3.793 131.182  0.00  0.00    +0.277 C 
ENDBRANCH  23  27
BRANCH  24  29
ATOM     29  O   LIG A   1      -5.857   3.902 133.666  0.00  0.00    -0.501 OA
ATOM     30  H   LIG A   1      -5.065   3.894 134.232  0.00  0.00    +0.292 HD
ENDBRANCH  24  29
BRANCH  25  31
ATOM     31  O   LIG A   1      -3.301   4.559 133.142  0.00  0.00    -0.491 OA
ATOM     32  C   LIG A   1      -1.903   4.644 132.891  0.00  0.00    +0.277 C 
ENDBRANCH  25  31
ENDBRANCH   8  21
TORSDOF 8
ENDMDL
MODEL 4
REMARK VINA RESULT:      -6.6      0.367      2.374
REMARK  Name = NuBBE_261
REMARK  12 active torsions:
REMARK  status: ('A' for Active; 'I' for Inactive)
REMARK    1  A    between atoms: C_1  and  O_2
REMARK    2  A    between atoms: O_2  and  C_3
REMARK    3  A    between atoms: C_4  and  O_5
REMARK    4  A    between atoms: C_6  and  O_7
REMARK    5  A    between atoms: O_7  and  C_8
REMARK    6  A    between atoms: C_10  and  C_11
REMARK    7  A    between atoms: C_19  and  C_21
REMARK    8  A    between atoms: C_23  and  O_24
REMARK    9  A    between atoms: O_24  and  C_25
REMARK   10  A    between atoms: C_26  and  O_27
REMARK   11  A    between atoms: C_28  and  O_29
REMARK   12  A    between atoms: O_29  and  C_30
REMARK                            x       y       z     vdW  Elec       q    Type
REMARK                         _______ _______ _______ _____ _____    ______ ____
ROOT
ATOM      1  C   LIG A   1      -3.525   3.207 128.452  0.00  0.00    +0.154 C 
ATOM      2  O   LIG A   1      -4.366   2.251 127.791  0.00  0.00    -0.371 OA
ATOM      3  C   LIG A   1      -4.023   2.306 126.409  0.00  0.00    +0.167 C 
ATOM      4  C   LIG A   1      -3.685   3.756 126.089  0.00  0.00    +0.056 C 
ATOM      5  C   LIG A   1      -3.321   4.358 127.450  0.00  0.00    +0.056 C 
ATOM      6  C   LIG A   1      -4.250   5.555 127.579  0.00  0.00    +0.167 C 
ATOM      7  O   LIG A   1      -5.366   5.296 126.730  0.00  0.00    -0.371 OA
ATOM      8  C   LIG A   1      -4.832   4.649 125.568  0.00  0.00    +0.154 C 
ENDROOT
BRANCH   1  13
ATOM      9  C   LIG A   1      -3.698   4.370 132.074  0.00  0.00    +0.165 A 
ATOM     10  C   LIG A   1      -5.010   4.023 132.406  0.00  0.00    +0.201 A 
ATOM     11  C   LIG A   1      -5.897   3.507 131.445  0.00  0.00    +0.165 A 
ATOM     12  C   LIG A   1      -5.406   3.254 130.164  0.00  0.00    +0.056 A 
ATOM     13  C   LIG A   1      -4.068   3.550 129.826  0.00  0.00    -0.011 A 
ATOM     14  C   LIG A   1      -3.229   4.132 130.792  0.00  0.00    +0.056 A 
BRANCH   9  16
ATOM     15  C   LIG A   1      -1.604   5.171 132.812  0.00  0.00    +0.277 C 
ATOM     16  O   LIG A   1      -2.958   4.860 133.122  0.00  0.00    -0.491 OA
ENDBRANCH   9  16
BRANCH  10  17
ATOM     17  O   LIG A   1      -5.370   4.172 133.717  0.00  0.00    -0.501 OA
ATOM     18  H   LIG A   1      -4.602   4.595 134.147  0.00  0.00    +0.292 HD
ENDBRANCH  10  17
BRANCH  11  19
ATOM     19  O   LIG A   1      -7.207   3.178 131.686  0.00  0.00    -0.491 OA
ATOM     20  C   LIG A   1      -8.164   4.213 131.450  0.00  0.00    +0.277 C 
ENDBRANCH  11  19
ENDBRANCH   1  13
BRANCH   8  21
ATOM     21  C   LIG A   1      -5.912   4.005 124.729  0.00  0.00    -0.011 A 
ATOM     22  C   LIG A   1      -7.011   3.407 125.362  0.00  0.00    +0.056 A 
ATOM     23  C   LIG A   1      -8.099   2.950 124.615  0.00  0.00    +0.165 A 
ATOM     24  C   LIG A   1      -8.029   2.980 123.216  0.00  0.00    +0.201 A 
ATOM     25  C   LIG A   1      -6.893   3.459 122.559  0.00  0.00    +0.165 A 
ATOM     26  C   LIG A   1      -5.852   3.994 123.324  0.00  0.00    +0.056 A 
BRANCH  23  27
ATOM     27  O   LIG A   1      -9.267   2.481 125.167  0.00  0.00    -0.491 OA
ATOM     28  C   LIG A   1      -9.183   1.166 125.716  0.00  0.00    +0.277 C 
ENDBRANCH  23  27
BRANCH  24  29
ATOM     29  O   LIG A   1      -9.112   2.587 122.470  0.00  0.00    -0.501 OA
ATOM     30  H   LIG A   1      -9.150   1.617 122.552  0.00  0.00    +0.292 HD
ENDBRANCH  24  29
BRANCH  25  31
ATOM     31  O   LIG A   1      -6.921   3.480 121.190  0.00  0.00    -0.491 OA
ATOM     32  C   LIG A   1      -5.761   4.005 120.555  0.00  0.00    +0.277 C 
ENDBRANCH  25  31
ENDBRANCH   8  21
TORSDOF 8
ENDMDL
MODEL 5
REMARK VINA RESULT:      -6.5      0.387      2.342
REMARK  Name = NuBBE_261
REMARK  12 active torsions:
REMARK  status: ('A' for Active; 'I' for Inactive)
REMARK    1  A    between atoms: C_1  and  O_2
REMARK    2  A    between atoms: O_2  and  C_3
REMARK    3  A    between atoms: C_4  and  O_5
REMARK    4  A    between atoms: C_6  and  O_7
REMARK    5  A    between atoms: O_7  and  C_8
REMARK    6  A    between atoms: C_10  and  C_11
REMARK    7  A    between atoms: C_19  and  C_21
REMARK    8  A    between atoms: C_23  and  O_24
REMARK    9  A    between atoms: O_24  and  C_25
REMARK   10  A    between atoms: C_26  and  O_27
REMARK   11  A    between atoms: C_28  and  O_29
REMARK   12  A    between atoms: O_29  and  C_30
REMARK                            x       y       z     vdW  Elec       q    Type
REMARK                         _______ _______ _______ _____ _____    ______ ____
ROOT
ATOM      1  C   LIG A   1      -3.773   2.938 128.557  0.00  0.00    +0.154 C 
ATOM      2  O   LIG A   1      -4.728   2.121 127.866  0.00  0.00    -0.371 OA
ATOM      3  C   LIG A   1      -4.343   2.130 126.494  0.00  0.00    +0.167 C 
ATOM      4  C   LIG A   1      -3.782   3.514 126.195  0.00  0.00    +0.056 C 
ATOM      5  C   LIG A   1      -3.371   4.049 127.570  0.00  0.00    +0.056 C 
ATOM      6  C   LIG A   1      -4.113   5.372 127.683  0.00  0.00    +0.167 C 
ATOM      7  O   LIG A   1      -5.232   5.286 126.802  0.00  0.00    -0.371 OA
ATOM      8  C   LIG A   1      -4.768   4.571 125.650  0.00  0.00    +0.154 C 
ENDROOT
BRANCH   1  13
ATOM      9  C   LIG A   1      -6.162   3.686 131.427  0.00  0.00    +0.165 A 
ATOM     10  C   LIG A   1      -5.297   4.277 132.351  0.00  0.00    +0.201 A 
ATOM     11  C   LIG A   1      -3.913   4.350 132.115  0.00  0.00    +0.165 A 
ATOM     12  C   LIG A   1      -3.429   3.905 130.885  0.00  0.00    +0.056 A 
ATOM     13  C   LIG A   1      -4.297   3.354 129.918  0.00  0.00    -0.011 A 
ATOM     14  C   LIG A   1      -5.665   3.230 130.215  0.00  0.00    +0.056 A 
BRANCH   9  16
ATOM     15  C   LIG A   1      -8.066   2.406 131.981  0.00  0.00    +0.277 C 
ATOM     16  O   LIG A   1      -7.483   3.692 131.801  0.00  0.00    -0.491 OA
ENDBRANCH   9  16
BRANCH  10  17
ATOM     17  O   LIG A   1      -5.870   4.814 133.470  0.00  0.00    -0.501 OA
ATOM     18  H   LIG A   1      -5.711   4.161 134.177  0.00  0.00    +0.292 HD
ENDBRANCH  10  17
BRANCH  11  19
ATOM     19  O   LIG A   1      -2.997   4.881 132.988  0.00  0.00    -0.491 OA
ATOM     20  C   LIG A   1      -1.624   4.653 132.668  0.00  0.00    +0.277 C 
ENDBRANCH  11  19
ENDBRANCH   1  13
BRANCH   8  21
ATOM     21  C   LIG A   1      -5.908   4.099 124.777  0.00  0.00    -0.011 A 
ATOM     22  C   LIG A   1      -5.754   4.102 123.383  0.00  0.00    +0.056 A 
ATOM     23  C   LIG A   1      -6.722   3.523 122.560  0.00  0.00    +0.165 A 
ATOM     24  C   LIG A   1      -7.910   3.048 123.132  0.00  0.00    +0.201 A 
ATOM     25  C   LIG A   1      -8.140   3.144 124.506  0.00  0.00    +0.165 A 
ATOM     26  C   LIG A   1      -7.122   3.646 125.322  0.00  0.00    +0.056 A 
BRANCH  23  27
ATOM     27  O   LIG A   1      -6.581   3.363 121.203  0.00  0.00    -0.491 OA
ATOM     28  C   LIG A   1      -5.711   4.306 120.577  0.00  0.00    +0.277 C 
ENDBRANCH  23  27
BRANCH  24  29
ATOM     29  O   LIG A   1      -8.846   2.426 122.343  0.00  0.00    -0.501 OA
ATOM     30  H   LIG A   1      -9.126   3.092 121.691  0.00  0.00    +0.292 HD
ENDBRANCH  24  29
BRANCH  25  31
ATOM     31  O   LIG A   1      -9.315   2.629 124.984  0.00  0.00    -0.491 OA
ATOM     32  C   LIG A   1      -9.249   1.300 125.489  0.00  0.00    +0.277 C 
ENDBRANCH  25  31
ENDBRANCH   8  21
TORSDOF 8
ENDMDL
MODEL 6
REMARK VINA RESULT:      -6.5      3.945      8.881
REMARK  Name = NuBBE_261
REMARK  12 active torsions:
REMARK  status: ('A' for Active; 'I' for Inactive)
REMARK    1  A    between atoms: C_1  and  O_2
REMARK    2  A    between atoms: O_2  and  C_3
REMARK    3  A    between atoms: C_4  and  O_5
REMARK    4  A    between atoms: C_6  and  O_7
REMARK    5  A    between atoms: O_7  and  C_8
REMARK    6  A    between atoms: C_10  and  C_11
REMARK    7  A    between atoms: C_19  and  C_21
REMARK    8  A    between atoms: C_23  and  O_24
REMARK    9  A    between atoms: O_24  and  C_25
REMARK   10  A    between atoms: C_26  and  O_27
REMARK   11  A    between atoms: C_28  and  O_29
REMARK   12  A    between atoms: O_29  and  C_30
REMARK                            x       y       z     vdW  Elec       q    Type
REMARK                         _______ _______ _______ _____ _____    ______ ____
ROOT
ATOM      1  C   LIG A   1      -6.433   0.065 128.304  0.00  0.00    +0.154 C 
ATOM      2  O   LIG A   1      -6.680   1.471 128.446  0.00  0.00    -0.371 OA
ATOM      3  C   LIG A   1      -6.157   1.841 129.719  0.00  0.00    +0.167 C 
ATOM      4  C   LIG A   1      -6.393   0.666 130.659  0.00  0.00    +0.056 C 
ATOM      5  C   LIG A   1      -6.549  -0.532 129.718  0.00  0.00    +0.056 C 
ATOM      6  C   LIG A   1      -7.895  -1.127 130.106  0.00  0.00    +0.167 C 
ATOM      7  O   LIG A   1      -8.641  -0.076 130.718  0.00  0.00    -0.371 OA
ATOM      8  C   LIG A   1      -7.697   0.677 131.487  0.00  0.00    +0.154 C 
ENDROOT
BRANCH   1  13
ATOM      9  C   LIG A   1      -7.699  -2.275 125.579  0.00  0.00    +0.165 A 
ATOM     10  C   LIG A   1      -8.781  -1.547 125.079  0.00  0.00    +0.201 A 
ATOM     11  C   LIG A   1      -9.191  -0.342 125.676  0.00  0.00    +0.165 A 
ATOM     12  C   LIG A   1      -8.426   0.167 126.726  0.00  0.00    +0.056 A 
ATOM     13  C   LIG A   1      -7.298  -0.530 127.209  0.00  0.00    -0.011 A 
ATOM     14  C   LIG A   1      -6.959  -1.768 126.636  0.00  0.00    +0.056 A 
BRANCH   9  16
ATOM     15  C   LIG A   1      -6.185  -3.434 124.187  0.00  0.00    +0.277 C 
ATOM     16  O   LIG A   1      -7.424  -3.429 124.888  0.00  0.00    -0.491 OA
ENDBRANCH   9  16
BRANCH  10  17
ATOM     17  O   LIG A   1      -9.390  -2.045 123.961  0.00  0.00    -0.501 OA
ATOM     18  H   LIG A   1     -10.317  -2.203 124.223  0.00  0.00    +0.292 HD
ENDBRANCH  10  17
BRANCH  11  19
ATOM     19  O   LIG A   1     -10.263   0.409 125.266  0.00  0.00    -0.491 OA
ATOM     20  C   LIG A   1      -9.961   1.515 124.413  0.00  0.00    +0.277 C 
ENDBRANCH  11  19
ENDBRANCH   1  13
BRANCH   8  21
ATOM     21  C   LIG A   1      -8.254   2.014 131.921  0.00  0.00    -0.011 A 
ATOM     22  C   LIG A   1      -9.038   2.756 131.026  0.00  0.00    +0.056 A 
ATOM     23  C   LIG A   1      -9.699   3.911 131.449  0.00  0.00    +0.165 A 
ATOM     24  C   LIG A   1      -9.471   4.393 132.745  0.00  0.00    +0.201 A 
ATOM     25  C   LIG A   1      -8.598   3.738 133.616  0.00  0.00    +0.165 A 
ATOM     26  C   LIG A   1      -8.016   2.536 133.205  0.00  0.00    +0.056 A 
BRANCH  23  27
ATOM     27  O   LIG A   1     -10.592   4.612 130.675  0.00  0.00    -0.491 OA
ATOM     28  C   LIG A   1      -9.998   5.559 129.786  0.00  0.00    +0.277 C 
ENDBRANCH  23  27
BRANCH  24  29
ATOM     29  O   LIG A   1     -10.157   5.495 133.193  0.00  0.00    -0.501 OA
ATOM     30  H   LIG A   1     -10.199   5.404 134.161  0.00  0.00    +0.292 HD
ENDBRANCH  24  29
BRANCH  25  31
ATOM     31  O   LIG A   1      -8.456   4.262 134.874  0.00  0.00    -0.491 OA
ATOM     32  C   LIG A   1      -7.197   4.861 135.157  0.00  0.00    +0.277 C 
ENDBRANCH  25  31
ENDBRANCH   8  21
TORSDOF 8
ENDMDL
MODEL 7
REMARK VINA RESULT:      -6.5      0.274      8.036
REMARK  Name = NuBBE_261
REMARK  12 active torsions:
REMARK  status: ('A' for Active; 'I' for Inactive)
REMARK    1  A    between atoms: C_1  and  O_2
REMARK    2  A    between atoms: O_2  and  C_3
REMARK    3  A    between atoms: C_4  and  O_5
REMARK    4  A    between atoms: C_6  and  O_7
REMARK    5  A    between atoms: O_7  and  C_8
REMARK    6  A    between atoms: C_10  and  C_11
REMARK    7  A    between atoms: C_19  and  C_21
REMARK    8  A    between atoms: C_23  and  O_24
REMARK    9  A    between atoms: O_24  and  C_25
REMARK   10  A    between atoms: C_26  and  O_27
REMARK   11  A    between atoms: C_28  and  O_29
REMARK   12  A    between atoms: O_29  and  C_30
REMARK                            x       y       z     vdW  Elec       q    Type
REMARK                         _______ _______ _______ _____ _____    ______ ____
ROOT
ATOM      1  C   LIG A   1      -4.898   4.484 125.596  0.00  0.00    +0.154 C 
ATOM      2  O   LIG A   1      -5.387   5.193 126.742  0.00  0.00    -0.371 OA
ATOM      3  C   LIG A   1      -4.309   5.242 127.673  0.00  0.00    +0.167 C 
ATOM      4  C   LIG A   1      -3.542   3.933 127.538  0.00  0.00    +0.056 C 
ATOM      5  C   LIG A   1      -3.908   3.435 126.136  0.00  0.00    +0.056 C 
ATOM      6  C   LIG A   1      -4.454   2.035 126.378  0.00  0.00    +0.167 C 
ATOM      7  O   LIG A   1      -4.900   2.003 127.732  0.00  0.00    -0.371 OA
ATOM      8  C   LIG A   1      -3.951   2.776 128.476  0.00  0.00    +0.154 C 
ENDROOT
BRANCH   1  13
ATOM      9  C   LIG A   1      -8.240   3.001 124.532  0.00  0.00    +0.165 A 
ATOM     10  C   LIG A   1      -8.080   2.942 123.146  0.00  0.00    +0.201 A 
ATOM     11  C   LIG A   1      -6.941   3.475 122.517  0.00  0.00    +0.165 A 
ATOM     12  C   LIG A   1      -5.920   3.979 123.321  0.00  0.00    +0.056 A 
ATOM     13  C   LIG A   1      -6.042   3.998 124.727  0.00  0.00    -0.011 A 
ATOM     14  C   LIG A   1      -7.225   3.523 125.319  0.00  0.00    +0.056 A 
BRANCH   9  16
ATOM     15  C   LIG A   1      -9.246   1.203 125.685  0.00  0.00    +0.277 C 
ATOM     16  O   LIG A   1      -9.404   2.438 124.994  0.00  0.00    -0.491 OA
ENDBRANCH   9  16
BRANCH  10  17
ATOM     17  O   LIG A   1      -9.065   2.306 122.442  0.00  0.00    -0.501 OA
ATOM     18  H   LIG A   1      -8.595   1.745 121.795  0.00  0.00    +0.292 HD
ENDBRANCH  10  17
BRANCH  11  19
ATOM     19  O   LIG A   1      -6.730   3.488 121.161  0.00  0.00    -0.491 OA
ATOM     20  C   LIG A   1      -5.596   4.232 120.713  0.00  0.00    +0.277 C 
ENDBRANCH  11  19
ENDBRANCH   1  13
BRANCH   8  21
ATOM     21  C   LIG A   1      -4.459   3.124 129.857  0.00  0.00    -0.011 A 
ATOM     22  C   LIG A   1      -3.549   3.538 130.841  0.00  0.00    +0.056 A 
ATOM     23  C   LIG A   1      -4.003   4.019 132.070  0.00  0.00    +0.165 A 
ATOM     24  C   LIG A   1      -5.373   3.970 132.361  0.00  0.00    +0.201 A 
ATOM     25  C   LIG A   1      -6.288   3.448 131.443  0.00  0.00    +0.165 A 
ATOM     26  C   LIG A   1      -5.824   3.054 130.185  0.00  0.00    +0.056 A 
BRANCH  23  27
ATOM     27  O   LIG A   1      -3.186   4.570 133.028  0.00  0.00    -0.491 OA
ATOM     28  C   LIG A   1      -1.791   4.513 132.730  0.00  0.00    +0.277 C 
ENDBRANCH  23  27
BRANCH  24  29
ATOM     29  O   LIG A   1      -5.839   4.491 133.542  0.00  0.00    -0.501 OA
ATOM     30  H   LIG A   1      -6.059   5.420 133.352  0.00  0.00    +0.292 HD
ENDBRANCH  24  29
BRANCH  25  31
ATOM     31  O   LIG A   1      -7.611   3.465 131.797  0.00  0.00    -0.491 OA
ATOM     32  C   LIG A   1      -8.468   4.224 130.953  0.00  0.00    +0.277 C 
ENDBRANCH  25  31
ENDBRANCH   8  21
TORSDOF 8
ENDMDL
MODEL 8
REMARK VINA RESULT:      -6.5      0.338      3.308
REMARK  Name = NuBBE_261
REMARK  12 active torsions:
REMARK  status: ('A' for Active; 'I' for Inactive)
REMARK    1  A    between atoms: C_1  and  O_2
REMARK    2  A    between atoms: O_2  and  C_3
REMARK    3  A    between atoms: C_4  and  O_5
REMARK    4  A    between atoms: C_6  and  O_7
REMARK    5  A    between atoms: O_7  and  C_8
REMARK    6  A    between atoms: C_10  and  C_11
REMARK    7  A    between atoms: C_19  and  C_21
REMARK    8  A    between atoms: C_23  and  O_24
REMARK    9  A    between atoms: O_24  and  C_25
REMARK   10  A    between atoms: C_26  and  O_27
REMARK   11  A    between atoms: C_28  and  O_29
REMARK   12  A    between atoms: O_29  and  C_30
REMARK                            x       y       z     vdW  Elec       q    Type
REMARK                         _______ _______ _______ _____ _____    ______ ____
ROOT
ATOM      1  C   LIG A   1      -3.840   2.844 128.518  0.00  0.00    +0.154 C 
ATOM      2  O   LIG A   1      -4.825   2.051 127.841  0.00  0.00    -0.371 OA
ATOM      3  C   LIG A   1      -4.448   2.034 126.467  0.00  0.00    +0.167 C 
ATOM      4  C   LIG A   1      -3.846   3.397 126.150  0.00  0.00    +0.056 C 
ATOM      5  C   LIG A   1      -3.409   3.932 127.517  0.00  0.00    +0.056 C 
ATOM      6  C   LIG A   1      -4.109   5.279 127.622  0.00  0.00    +0.167 C 
ATOM      7  O   LIG A   1      -5.235   5.220 126.748  0.00  0.00    -0.371 OA
ATOM      8  C   LIG A   1      -4.801   4.479 125.601  0.00  0.00    +0.154 C 
ENDROOT
BRANCH   1  13
ATOM      9  C   LIG A   1      -3.881   4.088 132.117  0.00  0.00    +0.165 A 
ATOM     10  C   LIG A   1      -5.234   3.944 132.437  0.00  0.00    +0.201 A 
ATOM     11  C   LIG A   1      -6.176   3.547 131.471  0.00  0.00    +0.165 A 
ATOM     12  C   LIG A   1      -5.713   3.201 130.202  0.00  0.00    +0.056 A 
ATOM     13  C   LIG A   1      -4.342   3.290 129.878  0.00  0.00    -0.011 A 
ATOM     14  C   LIG A   1      -3.438   3.759 130.846  0.00  0.00    +0.056 A 
BRANCH   9  16
ATOM     15  C   LIG A   1      -1.733   4.757 132.831  0.00  0.00    +0.277 C 
ATOM     16  O   LIG A   1      -3.089   4.482 133.167  0.00  0.00    -0.491 OA
ENDBRANCH   9  16
BRANCH  10  17
ATOM     17  O   LIG A   1      -5.583   4.169 133.740  0.00  0.00    -0.501 OA
ATOM     18  H   LIG A   1      -6.547   4.024 133.775  0.00  0.00    +0.292 HD
ENDBRANCH  10  17
BRANCH  11  19
ATOM     19  O   LIG A   1      -7.523   3.420 131.699  0.00  0.00    -0.491 OA
ATOM     20  C   LIG A   1      -8.311   4.584 131.447  0.00  0.00    +0.277 C 
ENDBRANCH  11  19
ENDBRANCH   1  13
BRANCH   8  21
ATOM     21  C   LIG A   1      -5.961   4.035 124.739  0.00  0.00    -0.011 A 
ATOM     22  C   LIG A   1      -5.844   4.093 123.343  0.00  0.00    +0.056 A 
ATOM     23  C   LIG A   1      -6.830   3.541 122.523  0.00  0.00    +0.165 A 
ATOM     24  C   LIG A   1      -8.000   3.036 123.106  0.00  0.00    +0.201 A 
ATOM     25  C   LIG A   1      -8.194   3.078 124.489  0.00  0.00    +0.165 A 
ATOM     26  C   LIG A   1      -7.159   3.553 125.298  0.00  0.00    +0.056 A 
BRANCH  23  27
ATOM     27  O   LIG A   1      -6.723   3.435 121.157  0.00  0.00    -0.491 OA
ATOM     28  C   LIG A   1      -5.732   4.278 120.568  0.00  0.00    +0.277 C 
ENDBRANCH  23  27
BRANCH  24  29
ATOM     29  O   LIG A   1      -8.952   2.440 122.317  0.00  0.00    -0.501 OA
ATOM     30  H   LIG A   1      -8.622   1.542 122.138  0.00  0.00    +0.292 HD
ENDBRANCH  24  29
BRANCH  25  31
ATOM     31  O   LIG A   1      -9.355   2.536 124.976  0.00  0.00    -0.491 OA
ATOM     32  C   LIG A   1      -9.240   1.239 125.548  0.00  0.00    +0.277 C 
ENDBRANCH  25  31
ENDBRANCH   8  21
TORSDOF 8
ENDMDL
MODEL 9
REMARK VINA RESULT:      -6.5      0.287      7.932
REMARK  Name = NuBBE_261
REMARK  12 active torsions:
REMARK  status: ('A' for Active; 'I' for Inactive)
REMARK    1  A    between atoms: C_1  and  O_2
REMARK    2  A    between atoms: O_2  and  C_3
REMARK    3  A    between atoms: C_4  and  O_5
REMARK    4  A    between atoms: C_6  and  O_7
REMARK    5  A    between atoms: O_7  and  C_8
REMARK    6  A    between atoms: C_10  and  C_11
REMARK    7  A    between atoms: C_19  and  C_21
REMARK    8  A    between atoms: C_23  and  O_24
REMARK    9  A    between atoms: O_24  and  C_25
REMARK   10  A    between atoms: C_26  and  O_27
REMARK   11  A    between atoms: C_28  and  O_29
REMARK   12  A    between atoms: O_29  and  C_30
REMARK                            x       y       z     vdW  Elec       q    Type
REMARK                         _______ _______ _______ _____ _____    ______ ____
ROOT
ATOM      1  C   LIG A   1      -4.850   4.522 125.467  0.00  0.00    +0.154 C 
ATOM      2  O   LIG A   1      -5.308   5.293 126.586  0.00  0.00    -0.371 OA
ATOM      3  C   LIG A   1      -4.212   5.369 127.494  0.00  0.00    +0.167 C 
ATOM      4  C   LIG A   1      -3.468   4.043 127.410  0.00  0.00    +0.056 C 
ATOM      5  C   LIG A   1      -3.867   3.485 126.040  0.00  0.00    +0.056 C 
ATOM      6  C   LIG A   1      -4.429   2.107 126.358  0.00  0.00    +0.167 C 
ATOM      7  O   LIG A   1      -4.851   2.146 127.720  0.00  0.00    -0.371 OA
ATOM      8  C   LIG A   1      -3.877   2.939 128.409  0.00  0.00    +0.154 C 
ENDROOT
BRANCH   1  13
ATOM      9  C   LIG A   1      -8.209   2.990 124.533  0.00  0.00    +0.165 A 
ATOM     10  C   LIG A   1      -8.095   2.917 123.143  0.00  0.00    +0.201 A 
ATOM     11  C   LIG A   1      -6.984   3.456 122.470  0.00  0.00    +0.165 A 
ATOM     12  C   LIG A   1      -5.942   3.980 123.234  0.00  0.00    +0.056 A 
ATOM     13  C   LIG A   1      -6.017   4.014 124.643  0.00  0.00    -0.011 A 
ATOM     14  C   LIG A   1      -7.174   3.532 125.279  0.00  0.00    +0.056 A 
BRANCH   9  16
ATOM     15  C   LIG A   1      -9.143   1.265 125.847  0.00  0.00    +0.277 C 
ATOM     16  O   LIG A   1      -9.350   2.420 125.040  0.00  0.00    -0.491 OA
ENDBRANCH   9  16
BRANCH  10  17
ATOM     17  O   LIG A   1      -9.095   2.262 122.480  0.00  0.00    -0.501 OA
ATOM     18  H   LIG A   1      -9.741   2.955 122.243  0.00  0.00    +0.292 HD
ENDBRANCH  10  17
BRANCH  11  19
ATOM     19  O   LIG A   1      -6.818   3.455 121.108  0.00  0.00    -0.491 OA
ATOM     20  C   LIG A   1      -5.600   4.026 120.627  0.00  0.00    +0.277 C 
ENDBRANCH  11  19
ENDBRANCH   1  13
BRANCH   8  21
ATOM     21  C   LIG A   1      -4.354   3.361 129.780  0.00  0.00    -0.011 A 
ATOM     22  C   LIG A   1      -5.692   3.147 130.140  0.00  0.00    +0.056 A 
ATOM     23  C   LIG A   1      -6.122   3.375 131.448  0.00  0.00    +0.165 A 
ATOM     24  C   LIG A   1      -5.231   3.939 132.372  0.00  0.00    +0.201 A 
ATOM     25  C   LIG A   1      -3.926   4.275 132.005  0.00  0.00    +0.165 A 
ATOM     26  C   LIG A   1      -3.489   3.957 130.716  0.00  0.00    +0.056 A 
BRANCH  23  27
ATOM     27  O   LIG A   1      -7.377   3.060 131.911  0.00  0.00    -0.491 OA
ATOM     28  C   LIG A   1      -8.432   3.276 130.974  0.00  0.00    +0.277 C 
ENDBRANCH  23  27
BRANCH  24  29
ATOM     29  O   LIG A   1      -5.622   4.116 133.676  0.00  0.00    -0.501 OA
ATOM     30  H   LIG A   1      -5.840   5.061 133.759  0.00  0.00    +0.292 HD
ENDBRANCH  24  29
BRANCH  25  31
ATOM     31  O   LIG A   1      -3.114   4.794 132.978  0.00  0.00    -0.491 OA
ATOM     32  C   LIG A   1      -1.721   4.548 132.819  0.00  0.00    +0.277 C 
ENDBRANCH  25  31
ENDBRANCH   8  21
TORSDOF 8
ENDMDL
