MODEL 1
REMARK VINA RESULT:      -6.4      0.000      0.000
REMARK  Name = NuBBE_1655
REMARK  17 active torsions:
REMARK  status: ('A' for Active; 'I' for Inactive)
REMARK    1  A    between atoms: C_1  and  C_11
REMARK    2  A    between atoms: C_1  and  C_24
REMARK    3  A    between atoms: C_2  and  C_3
REMARK    4  A    between atoms: C_3  and  C_4
REMARK    5  A    between atoms: C_4  and  C_5
REMARK    6  A    between atoms: C_5  and  C_10
REMARK    7  A    between atoms: C_6  and  C_7
REMARK    8  A    between atoms: C_7  and  O_9
REMARK    9  A    between atoms: C_11  and  C_12
REMARK   10  A    between atoms: C_12  and  C_13
REMARK   11  A    between atoms: C_14  and  C_15
REMARK   12  A    between atoms: C_14  and  C_23
REMARK   13  A    between atoms: C_15  and  C_16
REMARK   14  A    between atoms: C_16  and  C_17
REMARK   15  A    between atoms: C_18  and  C_19
REMARK   16  A    between atoms: C_18  and  C_22
REMARK   17  A    between atoms: C_19  and  O_21
REMARK                            x       y       z     vdW  Elec       q    Type
REMARK                         _______ _______ _______ _____ _____    ______ ____
ROOT
ATOM      1  C   LIG A   1      -9.197  -3.054 125.899  0.00  0.00    +0.034 C 
ENDROOT
BRANCH   1   2
ATOM      2  C   LIG A   1      -8.529  -2.684 127.213  0.00  0.00    -0.076 C 
ATOM      3  C   LIG A   1      -8.617  -3.469 128.307  0.00  0.00    -0.027 C 
ATOM      4  C   LIG A   1      -7.813  -1.361 127.169  0.00  0.00    +0.038 C 
BRANCH   3   5
ATOM      5  C   LIG A   1      -8.016  -3.266 129.665  0.00  0.00    +0.031 C 
BRANCH   5   6
ATOM      6  C   LIG A   1      -6.721  -4.088 129.834  0.00  0.00    +0.035 C 
BRANCH   6   7
ATOM      7  C   LIG A   1      -5.589  -3.284 130.473  0.00  0.00    -0.066 C 
ATOM      8  C   LIG A   1      -4.729  -2.592 129.689  0.00  0.00    +0.090 C 
ATOM      9  C   LIG A   1      -5.561  -3.368 131.969  0.00  0.00    +0.039 C 
BRANCH   8  10
ATOM     10  C   LIG A   1      -3.597  -1.713 130.023  0.00  0.00    +0.330 C 
ATOM     11  O   LIG A   1      -2.510  -2.188 130.406  0.00  0.00    -0.246 OA
BRANCH  10  12
ATOM     12  O   LIG A   1      -3.765  -0.407 129.818  0.00  0.00    -0.477 OA
ATOM     13  H   LIG A   1      -4.475  -0.197 129.185  0.00  0.00    +0.295 HD
ENDBRANCH  10  12
ENDBRANCH   8  10
ENDBRANCH   6   7
ENDBRANCH   5   6
ENDBRANCH   3   5
ENDBRANCH   1   2
BRANCH   1  14
ATOM     14  C   LIG A   1      -8.382  -3.985 125.009  0.00  0.00    +0.031 C 
BRANCH  14  15
ATOM     15  C   LIG A   1      -7.837  -3.269 123.818  0.00  0.00    -0.027 C 
ATOM     16  C   LIG A   1      -6.584  -2.788 123.683  0.00  0.00    -0.076 C 
ATOM     17  C   LIG A   1      -5.492  -2.989 124.760  0.00  0.00    +0.038 C 
BRANCH  16  18
ATOM     18  C   LIG A   1      -6.318  -1.794 122.546  0.00  0.00    +0.034 C 
BRANCH  18  19
ATOM     19  C   LIG A   1      -6.542  -0.257 122.816  0.00  0.00    +0.032 C 
BRANCH  19  20
ATOM     20  C   LIG A   1      -7.530   0.314 123.862  0.00  0.00    -0.016 C 
ATOM     21  C   LIG A   1      -8.879   0.391 123.861  0.00  0.00    +0.029 C 
ATOM     22  C   LIG A   1      -9.760  -0.195 122.846  0.00  0.00    +0.051 C 
BRANCH  21  23
ATOM     23  C   LIG A   1      -9.787   1.050 124.847  0.00  0.00    +0.332 C 
ATOM     24  O   LIG A   1     -10.531   0.457 125.572  0.00  0.00    -0.245 OA
BRANCH  23  25
ATOM     25  O   LIG A   1      -9.787   2.401 124.702  0.00  0.00    -0.477 OA
ATOM     26  H   LIG A   1     -10.561   2.801 125.129  0.00  0.00    +0.295 HD
ENDBRANCH  23  25
ENDBRANCH  21  23
ENDBRANCH  19  20
ENDBRANCH  18  19
ENDBRANCH  16  18
ENDBRANCH  14  15
ENDBRANCH   1  14
TORSDOF 13
ENDMDL
MODEL 2
REMARK VINA RESULT:      -6.3      1.958      7.500
REMARK  Name = NuBBE_1655
REMARK  17 active torsions:
REMARK  status: ('A' for Active; 'I' for Inactive)
REMARK    1  A    between atoms: C_1  and  C_11
REMARK    2  A    between atoms: C_1  and  C_24
REMARK    3  A    between atoms: C_2  and  C_3
REMARK    4  A    between atoms: C_3  and  C_4
REMARK    5  A    between atoms: C_4  and  C_5
REMARK    6  A    between atoms: C_5  and  C_10
REMARK    7  A    between atoms: C_6  and  C_7
REMARK    8  A    between atoms: C_7  and  O_9
REMARK    9  A    between atoms: C_11  and  C_12
REMARK   10  A    between atoms: C_12  and  C_13
REMARK   11  A    between atoms: C_14  and  C_15
REMARK   12  A    between atoms: C_14  and  C_23
REMARK   13  A    between atoms: C_15  and  C_16
REMARK   14  A    between atoms: C_16  and  C_17
REMARK   15  A    between atoms: C_18  and  C_19
REMARK   16  A    between atoms: C_18  and  C_22
REMARK   17  A    between atoms: C_19  and  O_21
REMARK                            x       y       z     vdW  Elec       q    Type
REMARK                         _______ _______ _______ _____ _____    ______ ____
ROOT
ATOM      1  C   LIG A   1      -8.993  -3.002 123.404  0.00  0.00    +0.034 C 
ENDROOT
BRANCH   1   2
ATOM      2  C   LIG A   1      -8.868  -1.519 123.094  0.00  0.00    -0.076 C 
ATOM      3  C   LIG A   1      -9.937  -0.761 122.779  0.00  0.00    -0.027 C 
ATOM      4  C   LIG A   1      -7.450  -1.017 123.137  0.00  0.00    +0.038 C 
BRANCH   3   5
ATOM      5  C   LIG A   1      -9.996   0.703 122.462  0.00  0.00    +0.031 C 
BRANCH   5   6
ATOM      6  C   LIG A   1      -9.976   1.557 123.747  0.00  0.00    +0.035 C 
BRANCH   6   7
ATOM      7  C   LIG A   1      -8.919   2.661 123.707  0.00  0.00    -0.066 C 
ATOM      8  C   LIG A   1      -8.557   3.288 124.851  0.00  0.00    +0.090 C 
ATOM      9  C   LIG A   1      -8.386   2.935 122.333  0.00  0.00    +0.039 C 
BRANCH   8  10
ATOM     10  C   LIG A   1      -7.556   4.334 125.114  0.00  0.00    +0.330 C 
ATOM     11  O   LIG A   1      -6.339   4.101 124.987  0.00  0.00    -0.246 OA
BRANCH  10  12
ATOM     12  O   LIG A   1      -8.017   5.550 125.410  0.00  0.00    -0.477 OA
ATOM     13  H   LIG A   1      -7.995   6.171 124.660  0.00  0.00    +0.295 HD
ENDBRANCH  10  12
ENDBRANCH   8  10
ENDBRANCH   6   7
ENDBRANCH   5   6
ENDBRANCH   3   5
ENDBRANCH   1   2
BRANCH   1  14
ATOM     14  C   LIG A   1      -7.912  -3.554 124.326  0.00  0.00    +0.031 C 
BRANCH  14  15
ATOM     15  C   LIG A   1      -8.458  -3.888 125.675  0.00  0.00    -0.027 C 
ATOM     16  C   LIG A   1      -8.401  -3.107 126.772  0.00  0.00    -0.076 C 
ATOM     17  C   LIG A   1      -7.802  -1.681 126.752  0.00  0.00    +0.038 C 
BRANCH  16  18
ATOM     18  C   LIG A   1      -8.703  -3.755 128.129  0.00  0.00    +0.034 C 
BRANCH  18  19
ATOM     19  C   LIG A   1      -7.910  -3.259 129.398  0.00  0.00    +0.032 C 
BRANCH  19  20
ATOM     20  C   LIG A   1      -6.481  -3.721 129.775  0.00  0.00    -0.016 C 
ATOM     21  C   LIG A   1      -5.289  -3.092 129.677  0.00  0.00    +0.029 C 
ATOM     22  C   LIG A   1      -5.098  -1.697 129.270  0.00  0.00    +0.051 C 
BRANCH  21  23
ATOM     23  C   LIG A   1      -3.919  -3.620 129.953  0.00  0.00    +0.332 C 
ATOM     24  O   LIG A   1      -3.400  -3.601 131.031  0.00  0.00    -0.245 OA
BRANCH  23  25
ATOM     25  O   LIG A   1      -3.276  -3.966 128.808  0.00  0.00    -0.477 OA
ATOM     26  H   LIG A   1      -3.371  -3.279 128.129  0.00  0.00    +0.295 HD
ENDBRANCH  23  25
ENDBRANCH  21  23
ENDBRANCH  19  20
ENDBRANCH  18  19
ENDBRANCH  16  18
ENDBRANCH  14  15
ENDBRANCH   1  14
TORSDOF 13
ENDMDL
MODEL 3
REMARK VINA RESULT:      -6.1      1.437      2.035
REMARK  Name = NuBBE_1655
REMARK  17 active torsions:
REMARK  status: ('A' for Active; 'I' for Inactive)
REMARK    1  A    between atoms: C_1  and  C_11
REMARK    2  A    between atoms: C_1  and  C_24
REMARK    3  A    between atoms: C_2  and  C_3
REMARK    4  A    between atoms: C_3  and  C_4
REMARK    5  A    between atoms: C_4  and  C_5
REMARK    6  A    between atoms: C_5  and  C_10
REMARK    7  A    between atoms: C_6  and  C_7
REMARK    8  A    between atoms: C_7  and  O_9
REMARK    9  A    between atoms: C_11  and  C_12
REMARK   10  A    between atoms: C_12  and  C_13
REMARK   11  A    between atoms: C_14  and  C_15
REMARK   12  A    between atoms: C_14  and  C_23
REMARK   13  A    between atoms: C_15  and  C_16
REMARK   14  A    between atoms: C_16  and  C_17
REMARK   15  A    between atoms: C_18  and  C_19
REMARK   16  A    between atoms: C_18  and  C_22
REMARK   17  A    between atoms: C_19  and  O_21
REMARK                            x       y       z     vdW  Elec       q    Type
REMARK                         _______ _______ _______ _____ _____    ______ ____
ROOT
ATOM      1  C   LIG A   1      -8.996  -3.627 126.506  0.00  0.00    +0.034 C 
ENDROOT
BRANCH   1   2
ATOM      2  C   LIG A   1      -8.259  -2.987 127.671  0.00  0.00    -0.076 C 
ATOM      3  C   LIG A   1      -8.561  -3.273 128.953  0.00  0.00    -0.027 C 
ATOM      4  C   LIG A   1      -7.211  -1.995 127.243  0.00  0.00    +0.038 C 
BRANCH   3   5
ATOM      5  C   LIG A   1      -7.934  -2.750 130.210  0.00  0.00    +0.031 C 
BRANCH   5   6
ATOM      6  C   LIG A   1      -6.741  -3.625 130.648  0.00  0.00    +0.035 C 
BRANCH   6   7
ATOM      7  C   LIG A   1      -5.389  -3.003 130.296  0.00  0.00    -0.066 C 
ATOM      8  C   LIG A   1      -4.383  -3.788 129.845  0.00  0.00    +0.090 C 
ATOM      9  C   LIG A   1      -5.336  -1.520 130.510  0.00  0.00    +0.039 C 
BRANCH   8  10
ATOM     10  C   LIG A   1      -3.019  -3.463 129.397  0.00  0.00    +0.330 C 
ATOM     11  O   LIG A   1      -2.404  -2.491 129.874  0.00  0.00    -0.246 OA
BRANCH  10  12
ATOM     12  O   LIG A   1      -2.454  -4.302 128.529  0.00  0.00    -0.477 OA
ATOM     13  H   LIG A   1      -3.001  -4.483 127.744  0.00  0.00    +0.295 HD
ENDBRANCH  10  12
ENDBRANCH   8  10
ENDBRANCH   6   7
ENDBRANCH   5   6
ENDBRANCH   3   5
ENDBRANCH   1   2
BRANCH   1  14
ATOM     14  C   LIG A   1      -8.128  -3.925 125.289  0.00  0.00    +0.031 C 
BRANCH  14  15
ATOM     15  C   LIG A   1      -8.665  -3.273 124.058  0.00  0.00    -0.027 C 
ATOM     16  C   LIG A   1      -8.003  -2.410 123.262  0.00  0.00    -0.076 C 
ATOM     17  C   LIG A   1      -6.522  -2.026 123.494  0.00  0.00    +0.038 C 
BRANCH  16  18
ATOM     18  C   LIG A   1      -8.822  -1.591 122.256  0.00  0.00    +0.034 C 
BRANCH  18  19
ATOM     19  C   LIG A   1      -9.820  -0.500 122.803  0.00  0.00    +0.032 C 
BRANCH  19  20
ATOM     20  C   LIG A   1      -9.464   0.993 123.003  0.00  0.00    -0.016 C 
ATOM     21  C   LIG A   1      -8.847   1.630 124.022  0.00  0.00    +0.029 C 
ATOM     22  C   LIG A   1      -8.239   0.977 125.186  0.00  0.00    +0.051 C 
BRANCH  21  23
ATOM     23  C   LIG A   1      -8.620   3.093 124.221  0.00  0.00    +0.332 C 
ATOM     24  O   LIG A   1      -8.870   3.677 125.235  0.00  0.00    -0.245 OA
BRANCH  23  25
ATOM     25  O   LIG A   1      -8.255   3.704 123.064  0.00  0.00    -0.477 OA
ATOM     26  H   LIG A   1      -8.987   3.717 122.427  0.00  0.00    +0.295 HD
ENDBRANCH  23  25
ENDBRANCH  21  23
ENDBRANCH  19  20
ENDBRANCH  18  19
ENDBRANCH  16  18
ENDBRANCH  14  15
ENDBRANCH   1  14
TORSDOF 13
ENDMDL
MODEL 4
REMARK VINA RESULT:      -6.0      7.533     10.094
REMARK  Name = NuBBE_1655
REMARK  17 active torsions:
REMARK  status: ('A' for Active; 'I' for Inactive)
REMARK    1  A    between atoms: C_1  and  C_11
REMARK    2  A    between atoms: C_1  and  C_24
REMARK    3  A    between atoms: C_2  and  C_3
REMARK    4  A    between atoms: C_3  and  C_4
REMARK    5  A    between atoms: C_4  and  C_5
REMARK    6  A    between atoms: C_5  and  C_10
REMARK    7  A    between atoms: C_6  and  C_7
REMARK    8  A    between atoms: C_7  and  O_9
REMARK    9  A    between atoms: C_11  and  C_12
REMARK   10  A    between atoms: C_12  and  C_13
REMARK   11  A    between atoms: C_14  and  C_15
REMARK   12  A    between atoms: C_14  and  C_23
REMARK   13  A    between atoms: C_15  and  C_16
REMARK   14  A    between atoms: C_16  and  C_17
REMARK   15  A    between atoms: C_18  and  C_19
REMARK   16  A    between atoms: C_18  and  C_22
REMARK   17  A    between atoms: C_19  and  O_21
REMARK                            x       y       z     vdW  Elec       q    Type
REMARK                         _______ _______ _______ _____ _____    ______ ____
ROOT
ATOM      1  C   LIG A   1      -2.915   7.637 131.503  0.00  0.00    +0.034 C 
ENDROOT
BRANCH   1   2
ATOM      2  C   LIG A   1      -4.161   6.993 132.088  0.00  0.00    -0.076 C 
ATOM      3  C   LIG A   1      -5.312   6.898 131.393  0.00  0.00    -0.027 C 
ATOM      4  C   LIG A   1      -3.981   6.523 133.507  0.00  0.00    +0.038 C 
BRANCH   3   5
ATOM      5  C   LIG A   1      -6.618   6.289 131.807  0.00  0.00    +0.031 C 
BRANCH   5   6
ATOM      6  C   LIG A   1      -7.807   6.985 131.112  0.00  0.00    +0.035 C 
BRANCH   6   7
ATOM      7  C   LIG A   1      -9.140   6.285 131.379  0.00  0.00    -0.066 C 
ATOM      8  C   LIG A   1     -10.222   6.585 130.622  0.00  0.00    +0.090 C 
ATOM      9  C   LIG A   1      -9.088   5.304 132.512  0.00  0.00    +0.039 C 
BRANCH   8  10
ATOM     10  C   LIG A   1     -11.592   6.048 130.624  0.00  0.00    +0.330 C 
ATOM     11  O   LIG A   1     -12.001   5.337 129.687  0.00  0.00    -0.246 OA
BRANCH  10  12
ATOM     12  O   LIG A   1     -12.333   6.289 131.707  0.00  0.00    -0.477 OA
ATOM     13  H   LIG A   1     -11.866   6.129 132.546  0.00  0.00    +0.295 HD
ENDBRANCH  10  12
ENDBRANCH   8  10
ENDBRANCH   6   7
ENDBRANCH   5   6
ENDBRANCH   3   5
ENDBRANCH   1   2
BRANCH   1  14
ATOM     14  C   LIG A   1      -1.771   6.670 131.219  0.00  0.00    +0.031 C 
BRANCH  14  15
ATOM     15  C   LIG A   1      -2.213   5.534 130.357  0.00  0.00    -0.027 C 
ATOM     16  C   LIG A   1      -2.452   5.587 129.031  0.00  0.00    -0.076 C 
ATOM     17  C   LIG A   1      -2.222   6.866 128.192  0.00  0.00    +0.038 C 
BRANCH  16  18
ATOM     18  C   LIG A   1      -3.219   4.422 128.394  0.00  0.00    +0.034 C 
BRANCH  18  19
ATOM     19  C   LIG A   1      -4.451   3.814 129.168  0.00  0.00    +0.032 C 
BRANCH  19  20
ATOM     20  C   LIG A   1      -5.932   4.103 128.823  0.00  0.00    -0.016 C 
ATOM     21  C   LIG A   1      -7.079   3.632 129.363  0.00  0.00    +0.029 C 
ATOM     22  C   LIG A   1      -7.167   2.774 130.549  0.00  0.00    +0.051 C 
BRANCH  21  23
ATOM     23  C   LIG A   1      -8.489   3.856 128.926  0.00  0.00    +0.332 C 
ATOM     24  O   LIG A   1      -9.406   3.154 129.239  0.00  0.00    -0.245 OA
BRANCH  23  25
ATOM     25  O   LIG A   1      -8.574   4.847 128.001  0.00  0.00    -0.477 OA
ATOM     26  H   LIG A   1      -8.288   5.698 128.369  0.00  0.00    +0.295 HD
ENDBRANCH  23  25
ENDBRANCH  21  23
ENDBRANCH  19  20
ENDBRANCH  18  19
ENDBRANCH  16  18
ENDBRANCH  14  15
ENDBRANCH   1  14
TORSDOF 13
ENDMDL
MODEL 5
REMARK VINA RESULT:      -6.0      2.411      6.880
REMARK  Name = NuBBE_1655
REMARK  17 active torsions:
REMARK  status: ('A' for Active; 'I' for Inactive)
REMARK    1  A    between atoms: C_1  and  C_11
REMARK    2  A    between atoms: C_1  and  C_24
REMARK    3  A    between atoms: C_2  and  C_3
REMARK    4  A    between atoms: C_3  and  C_4
REMARK    5  A    between atoms: C_4  and  C_5
REMARK    6  A    between atoms: C_5  and  C_10
REMARK    7  A    between atoms: C_6  and  C_7
REMARK    8  A    between atoms: C_7  and  O_9
REMARK    9  A    between atoms: C_11  and  C_12
REMARK   10  A    between atoms: C_12  and  C_13
REMARK   11  A    between atoms: C_14  and  C_15
REMARK   12  A    between atoms: C_14  and  C_23
REMARK   13  A    between atoms: C_15  and  C_16
REMARK   14  A    between atoms: C_16  and  C_17
REMARK   15  A    between atoms: C_18  and  C_19
REMARK   16  A    between atoms: C_18  and  C_22
REMARK   17  A    between atoms: C_19  and  O_21
REMARK                            x       y       z     vdW  Elec       q    Type
REMARK                         _______ _______ _______ _____ _____    ______ ____
ROOT
ATOM      1  C   LIG A   1      -6.102  -2.976 124.266  0.00  0.00    +0.034 C 
ENDROOT
BRANCH   1   2
ATOM      2  C   LIG A   1      -6.101  -1.461 124.387  0.00  0.00    -0.076 C 
ATOM      3  C   LIG A   1      -5.681  -0.833 125.504  0.00  0.00    -0.027 C 
ATOM      4  C   LIG A   1      -6.644  -0.764 123.169  0.00  0.00    +0.038 C 
BRANCH   3   5
ATOM      5  C   LIG A   1      -5.601   0.638 125.786  0.00  0.00    +0.031 C 
BRANCH   5   6
ATOM      6  C   LIG A   1      -6.939   1.179 126.332  0.00  0.00    +0.035 C 
BRANCH   6   7
ATOM      7  C   LIG A   1      -6.936   2.698 126.505  0.00  0.00    -0.066 C 
ATOM      8  C   LIG A   1      -7.599   3.477 125.619  0.00  0.00    +0.090 C 
ATOM      9  C   LIG A   1      -6.153   3.166 127.694  0.00  0.00    +0.039 C 
BRANCH   8  10
ATOM     10  C   LIG A   1      -7.802   4.934 125.563  0.00  0.00    +0.330 C 
ATOM     11  O   LIG A   1      -8.816   5.458 126.062  0.00  0.00    -0.246 OA
BRANCH  10  12
ATOM     12  O   LIG A   1      -6.817   5.660 125.034  0.00  0.00    -0.477 OA
ATOM     13  H   LIG A   1      -6.127   5.129 124.599  0.00  0.00    +0.295 HD
ENDBRANCH  10  12
ENDBRANCH   8  10
ENDBRANCH   6   7
ENDBRANCH   5   6
ENDBRANCH   3   5
ENDBRANCH   1   2
BRANCH   1  14
ATOM     14  C   LIG A   1      -7.488  -3.610 124.213  0.00  0.00    +0.031 C 
BRANCH  14  15
ATOM     15  C   LIG A   1      -7.969  -3.995 125.573  0.00  0.00    -0.027 C 
ATOM     16  C   LIG A   1      -8.721  -3.237 126.395  0.00  0.00    -0.076 C 
ATOM     17  C   LIG A   1      -9.260  -1.845 125.987  0.00  0.00    +0.038 C 
BRANCH  16  18
ATOM     18  C   LIG A   1      -8.823  -3.659 127.866  0.00  0.00    +0.034 C 
BRANCH  18  19
ATOM     19  C   LIG A   1      -7.857  -2.986 128.915  0.00  0.00    +0.032 C 
BRANCH  19  20
ATOM     20  C   LIG A   1      -6.329  -2.825 128.722  0.00  0.00    -0.016 C 
ATOM     21  C   LIG A   1      -5.287  -3.338 129.413  0.00  0.00    +0.029 C 
ATOM     22  C   LIG A   1      -5.391  -4.319 130.498  0.00  0.00    +0.051 C 
BRANCH  21  23
ATOM     23  C   LIG A   1      -3.826  -3.067 129.257  0.00  0.00    +0.332 C 
ATOM     24  O   LIG A   1      -3.027  -3.888 128.915  0.00  0.00    -0.245 OA
BRANCH  23  25
ATOM     25  O   LIG A   1      -3.497  -1.830 129.709  0.00  0.00    -0.477 OA
ATOM     26  H   LIG A   1      -4.257  -1.392 130.123  0.00  0.00    +0.295 HD
ENDBRANCH  23  25
ENDBRANCH  21  23
ENDBRANCH  19  20
ENDBRANCH  18  19
ENDBRANCH  16  18
ENDBRANCH  14  15
ENDBRANCH   1  14
TORSDOF 13
ENDMDL
MODEL 6
REMARK VINA RESULT:      -6.0      5.686      8.174
REMARK  Name = NuBBE_1655
REMARK  17 active torsions:
REMARK  status: ('A' for Active; 'I' for Inactive)
REMARK    1  A    between atoms: C_1  and  C_11
REMARK    2  A    between atoms: C_1  and  C_24
REMARK    3  A    between atoms: C_2  and  C_3
REMARK    4  A    between atoms: C_3  and  C_4
REMARK    5  A    between atoms: C_4  and  C_5
REMARK    6  A    between atoms: C_5  and  C_10
REMARK    7  A    between atoms: C_6  and  C_7
REMARK    8  A    between atoms: C_7  and  O_9
REMARK    9  A    between atoms: C_11  and  C_12
REMARK   10  A    between atoms: C_12  and  C_13
REMARK   11  A    between atoms: C_14  and  C_15
REMARK   12  A    between atoms: C_14  and  C_23
REMARK   13  A    between atoms: C_15  and  C_16
REMARK   14  A    between atoms: C_16  and  C_17
REMARK   15  A    between atoms: C_18  and  C_19
REMARK   16  A    between atoms: C_18  and  C_22
REMARK   17  A    between atoms: C_19  and  O_21
REMARK                            x       y       z     vdW  Elec       q    Type
REMARK                         _______ _______ _______ _____ _____    ______ ____
ROOT
ATOM      1  C   LIG A   1      -9.241   3.033 129.473  0.00  0.00    +0.034 C 
ENDROOT
BRANCH   1   2
ATOM      2  C   LIG A   1      -8.186   1.947 129.350  0.00  0.00    -0.076 C 
ATOM      3  C   LIG A   1      -8.178   1.068 128.327  0.00  0.00    -0.027 C 
ATOM      4  C   LIG A   1      -7.203   1.937 130.490  0.00  0.00    +0.038 C 
BRANCH   3   5
ATOM      5  C   LIG A   1      -7.215  -0.045 128.046  0.00  0.00    +0.031 C 
BRANCH   5   6
ATOM      6  C   LIG A   1      -7.606  -1.331 128.805  0.00  0.00    +0.035 C 
BRANCH   6   7
ATOM      7  C   LIG A   1      -8.182  -2.408 127.886  0.00  0.00    -0.066 C 
ATOM      8  C   LIG A   1      -8.256  -2.186 126.552  0.00  0.00    +0.090 C 
ATOM      9  C   LIG A   1      -8.625  -3.643 128.611  0.00  0.00    +0.039 C 
BRANCH   8  10
ATOM     10  C   LIG A   1      -8.713  -3.043 125.446  0.00  0.00    +0.330 C 
ATOM     11  O   LIG A   1      -7.923  -3.810 124.863  0.00  0.00    -0.246 OA
BRANCH  10  12
ATOM     12  O   LIG A   1     -10.015  -3.017 125.161  0.00  0.00    -0.477 OA
ATOM     13  H   LIG A   1     -10.482  -3.842 125.382  0.00  0.00    +0.295 HD
ENDBRANCH  10  12
ENDBRANCH   8  10
ENDBRANCH   6   7
ENDBRANCH   5   6
ENDBRANCH   3   5
ENDBRANCH   1   2
BRANCH   1  14
ATOM     14  C   LIG A   1      -9.520   3.492 130.900  0.00  0.00    +0.031 C 
BRANCH  14  15
ATOM     15  C   LIG A   1     -10.582   4.541 130.942  0.00  0.00    -0.027 C 
ATOM     16  C   LIG A   1     -10.384   5.868 131.071  0.00  0.00    -0.076 C 
ATOM     17  C   LIG A   1      -8.974   6.501 131.123  0.00  0.00    +0.038 C 
BRANCH  16  18
ATOM     18  C   LIG A   1     -11.592   6.740 131.438  0.00  0.00    +0.034 C 
BRANCH  18  19
ATOM     19  C   LIG A   1     -12.670   7.044 130.328  0.00  0.00    +0.032 C 
BRANCH  19  20
ATOM     20  C   LIG A   1     -12.436   6.873 128.808  0.00  0.00    -0.016 C 
ATOM     21  C   LIG A   1     -11.580   7.493 127.965  0.00  0.00    +0.029 C 
ATOM     22  C   LIG A   1     -10.540   8.446 128.363  0.00  0.00    +0.051 C 
BRANCH  21  23
ATOM     23  C   LIG A   1     -11.464   7.371 126.481  0.00  0.00    +0.332 C 
ATOM     24  O   LIG A   1     -10.764   8.067 125.805  0.00  0.00    -0.245 OA
BRANCH  23  25
ATOM     25  O   LIG A   1     -12.369   6.491 125.979  0.00  0.00    -0.477 OA
ATOM     26  H   LIG A   1     -12.868   6.056 126.688  0.00  0.00    +0.295 HD
ENDBRANCH  23  25
ENDBRANCH  21  23
ENDBRANCH  19  20
ENDBRANCH  18  19
ENDBRANCH  16  18
ENDBRANCH  14  15
ENDBRANCH   1  14
TORSDOF 13
ENDMDL
MODEL 7
REMARK VINA RESULT:      -5.9      8.215     11.763
REMARK  Name = NuBBE_1655
REMARK  17 active torsions:
REMARK  status: ('A' for Active; 'I' for Inactive)
REMARK    1  A    between atoms: C_1  and  C_11
REMARK    2  A    between atoms: C_1  and  C_24
REMARK    3  A    between atoms: C_2  and  C_3
REMARK    4  A    between atoms: C_3  and  C_4
REMARK    5  A    between atoms: C_4  and  C_5
REMARK    6  A    between atoms: C_5  and  C_10
REMARK    7  A    between atoms: C_6  and  C_7
REMARK    8  A    between atoms: C_7  and  O_9
REMARK    9  A    between atoms: C_11  and  C_12
REMARK   10  A    between atoms: C_12  and  C_13
REMARK   11  A    between atoms: C_14  and  C_15
REMARK   12  A    between atoms: C_14  and  C_23
REMARK   13  A    between atoms: C_15  and  C_16
REMARK   14  A    between atoms: C_16  and  C_17
REMARK   15  A    between atoms: C_18  and  C_19
REMARK   16  A    between atoms: C_18  and  C_22
REMARK   17  A    between atoms: C_19  and  O_21
REMARK                            x       y       z     vdW  Elec       q    Type
REMARK                         _______ _______ _______ _____ _____    ______ ____
ROOT
ATOM      1  C   LIG A   1      -7.593   6.837 131.484  0.00  0.00    +0.034 C 
ENDROOT
BRANCH   1   2
ATOM      2  C   LIG A   1      -8.602   6.332 130.465  0.00  0.00    -0.076 C 
ATOM      3  C   LIG A   1      -9.501   7.149 129.882  0.00  0.00    -0.027 C 
ATOM      4  C   LIG A   1      -8.512   4.849 130.220  0.00  0.00    +0.038 C 
BRANCH   3   5
ATOM      5  C   LIG A   1     -10.548   6.825 128.859  0.00  0.00    +0.031 C 
BRANCH   5   6
ATOM      6  C   LIG A   1     -11.916   6.560 129.520  0.00  0.00    +0.035 C 
BRANCH   6   7
ATOM      7  C   LIG A   1     -12.558   7.829 130.082  0.00  0.00    -0.066 C 
ATOM      8  C   LIG A   1     -12.676   8.927 129.299  0.00  0.00    +0.090 C 
ATOM      9  C   LIG A   1     -12.996   7.700 131.509  0.00  0.00    +0.039 C 
BRANCH   8  10
ATOM     10  C   LIG A   1     -13.278  10.245 129.554  0.00  0.00    +0.330 C 
ATOM     11  O   LIG A   1     -13.156  10.801 130.662  0.00  0.00    -0.246 OA
BRANCH  10  12
ATOM     12  O   LIG A   1     -13.880  10.843 128.525  0.00  0.00    -0.477 OA
ATOM     13  H   LIG A   1     -13.266  11.291 127.917  0.00  0.00    +0.295 HD
ENDBRANCH  10  12
ENDBRANCH   8  10
ENDBRANCH   6   7
ENDBRANCH   5   6
ENDBRANCH   3   5
ENDBRANCH   1   2
BRANCH   1  14
ATOM     14  C   LIG A   1      -6.135   6.625 131.095  0.00  0.00    +0.031 C 
BRANCH  14  15
ATOM     15  C   LIG A   1      -5.394   5.855 132.138  0.00  0.00    -0.027 C 
ATOM     16  C   LIG A   1      -4.758   4.680 131.958  0.00  0.00    -0.076 C 
ATOM     17  C   LIG A   1      -4.652   3.991 130.577  0.00  0.00    +0.038 C 
BRANCH  16  18
ATOM     18  C   LIG A   1      -4.357   3.884 133.206  0.00  0.00    +0.034 C 
BRANCH  18  19
ATOM     19  C   LIG A   1      -5.319   2.746 133.719  0.00  0.00    +0.032 C 
BRANCH  19  20
ATOM     20  C   LIG A   1      -6.814   2.623 133.337  0.00  0.00    -0.016 C 
ATOM     21  C   LIG A   1      -7.890   3.349 133.715  0.00  0.00    +0.029 C 
ATOM     22  C   LIG A   1      -7.848   4.563 134.536  0.00  0.00    +0.051 C 
BRANCH  21  23
ATOM     23  C   LIG A   1      -9.334   3.126 133.405  0.00  0.00    +0.332 C 
ATOM     24  O   LIG A   1      -9.743   2.221 132.738  0.00  0.00    -0.245 OA
BRANCH  23  25
ATOM     25  O   LIG A   1     -10.102   4.163 133.828  0.00  0.00    -0.477 OA
ATOM     26  H   LIG A   1      -9.902   4.974 133.335  0.00  0.00    +0.295 HD
ENDBRANCH  23  25
ENDBRANCH  21  23
ENDBRANCH  19  20
ENDBRANCH  18  19
ENDBRANCH  16  18
ENDBRANCH  14  15
ENDBRANCH   1  14
TORSDOF 13
ENDMDL
MODEL 8
REMARK VINA RESULT:      -5.9      8.601     10.226
REMARK  Name = NuBBE_1655
REMARK  17 active torsions:
REMARK  status: ('A' for Active; 'I' for Inactive)
REMARK    1  A    between atoms: C_1  and  C_11
REMARK    2  A    between atoms: C_1  and  C_24
REMARK    3  A    between atoms: C_2  and  C_3
REMARK    4  A    between atoms: C_3  and  C_4
REMARK    5  A    between atoms: C_4  and  C_5
REMARK    6  A    between atoms: C_5  and  C_10
REMARK    7  A    between atoms: C_6  and  C_7
REMARK    8  A    between atoms: C_7  and  O_9
REMARK    9  A    between atoms: C_11  and  C_12
REMARK   10  A    between atoms: C_12  and  C_13
REMARK   11  A    between atoms: C_14  and  C_15
REMARK   12  A    between atoms: C_14  and  C_23
REMARK   13  A    between atoms: C_15  and  C_16
REMARK   14  A    between atoms: C_16  and  C_17
REMARK   15  A    between atoms: C_18  and  C_19
REMARK   16  A    between atoms: C_18  and  C_22
REMARK   17  A    between atoms: C_19  and  O_21
REMARK                            x       y       z     vdW  Elec       q    Type
REMARK                         _______ _______ _______ _____ _____    ______ ____
ROOT
ATOM      1  C   LIG A   1      -8.583   6.338 131.818  0.00  0.00    +0.034 C 
ENDROOT
BRANCH   1   2
ATOM      2  C   LIG A   1      -7.276   5.677 132.224  0.00  0.00    -0.076 C 
ATOM      3  C   LIG A   1      -6.164   6.393 132.489  0.00  0.00    -0.027 C 
ATOM      4  C   LIG A   1      -7.351   4.175 132.255  0.00  0.00    +0.038 C 
BRANCH   3   5
ATOM      5  C   LIG A   1      -4.809   5.909 132.910  0.00  0.00    +0.031 C 
BRANCH   5   6
ATOM      6  C   LIG A   1      -3.687   6.695 132.200  0.00  0.00    +0.035 C 
BRANCH   6   7
ATOM      7  C   LIG A   1      -3.386   6.161 130.799  0.00  0.00    -0.066 C 
ATOM      8  C   LIG A   1      -3.499   6.980 129.727  0.00  0.00    +0.090 C 
ATOM      9  C   LIG A   1      -2.986   4.716 130.780  0.00  0.00    +0.039 C 
BRANCH   8  10
ATOM     10  C   LIG A   1      -3.235   6.755 128.297  0.00  0.00    +0.330 C 
ATOM     11  O   LIG A   1      -4.166   6.515 127.505  0.00  0.00    -0.246 OA
BRANCH  10  12
ATOM     12  O   LIG A   1      -1.976   6.904 127.885  0.00  0.00    -0.477 OA
ATOM     13  H   LIG A   1      -1.891   7.056 126.928  0.00  0.00    +0.295 HD
ENDBRANCH  10  12
ENDBRANCH   8  10
ENDBRANCH   6   7
ENDBRANCH   5   6
ENDBRANCH   3   5
ENDBRANCH   1   2
BRANCH   1  14
ATOM     14  C   LIG A   1      -9.835   5.665 132.369  0.00  0.00    +0.031 C 
BRANCH  14  15
ATOM     15  C   LIG A   1     -11.048   6.514 132.172  0.00  0.00    -0.027 C 
ATOM     16  C   LIG A   1     -11.992   6.345 131.225  0.00  0.00    -0.076 C 
ATOM     17  C   LIG A   1     -11.975   5.161 130.230  0.00  0.00    +0.038 C 
BRANCH  16  18
ATOM     18  C   LIG A   1     -12.964   7.504 130.967  0.00  0.00    +0.034 C 
BRANCH  18  19
ATOM     19  C   LIG A   1     -12.629   8.530 129.818  0.00  0.00    +0.032 C 
BRANCH  19  20
ATOM     20  C   LIG A   1     -12.202   8.133 128.385  0.00  0.00    -0.016 C 
ATOM     21  C   LIG A   1     -10.998   7.777 127.882  0.00  0.00    +0.029 C 
ATOM     22  C   LIG A   1      -9.780   7.567 128.670  0.00  0.00    +0.051 C 
BRANCH  21  23
ATOM     23  C   LIG A   1     -10.610   7.506 126.466  0.00  0.00    +0.332 C 
ATOM     24  O   LIG A   1     -11.047   8.103 125.526  0.00  0.00    -0.245 OA
BRANCH  23  25
ATOM     25  O   LIG A   1      -9.835   6.395 126.364  0.00  0.00    -0.477 OA
ATOM     26  H   LIG A   1      -9.890   6.007 125.476  0.00  0.00    +0.295 HD
ENDBRANCH  23  25
ENDBRANCH  21  23
ENDBRANCH  19  20
ENDBRANCH  18  19
ENDBRANCH  16  18
ENDBRANCH  14  15
ENDBRANCH   1  14
TORSDOF 13
ENDMDL
MODEL 9
REMARK VINA RESULT:      -5.9      2.792      3.905
REMARK  Name = NuBBE_1655
REMARK  17 active torsions:
REMARK  status: ('A' for Active; 'I' for Inactive)
REMARK    1  A    between atoms: C_1  and  C_11
REMARK    2  A    between atoms: C_1  and  C_24
REMARK    3  A    between atoms: C_2  and  C_3
REMARK    4  A    between atoms: C_3  and  C_4
REMARK    5  A    between atoms: C_4  and  C_5
REMARK    6  A    between atoms: C_5  and  C_10
REMARK    7  A    between atoms: C_6  and  C_7
REMARK    8  A    between atoms: C_7  and  O_9
REMARK    9  A    between atoms: C_11  and  C_12
REMARK   10  A    between atoms: C_12  and  C_13
REMARK   11  A    between atoms: C_14  and  C_15
REMARK   12  A    between atoms: C_14  and  C_23
REMARK   13  A    between atoms: C_15  and  C_16
REMARK   14  A    between atoms: C_16  and  C_17
REMARK   15  A    between atoms: C_18  and  C_19
REMARK   16  A    between atoms: C_18  and  C_22
REMARK   17  A    between atoms: C_19  and  O_21
REMARK                            x       y       z     vdW  Elec       q    Type
REMARK                         _______ _______ _______ _____ _____    ______ ____
ROOT
ATOM      1  C   LIG A   1      -8.965  -3.201 126.354  0.00  0.00    +0.034 C 
ENDROOT
BRANCH   1   2
ATOM      2  C   LIG A   1      -8.223  -1.937 126.754  0.00  0.00    -0.076 C 
ATOM      3  C   LIG A   1      -7.025  -1.975 127.373  0.00  0.00    -0.027 C 
ATOM      4  C   LIG A   1      -8.975  -0.674 126.429  0.00  0.00    +0.038 C 
BRANCH   3   5
ATOM      5  C   LIG A   1      -6.158  -0.837 127.821  0.00  0.00    +0.031 C 
BRANCH   5   6
ATOM      6  C   LIG A   1      -5.578  -0.065 126.617  0.00  0.00    +0.035 C 
BRANCH   6   7
ATOM      7  C   LIG A   1      -5.597   1.450 126.820  0.00  0.00    -0.066 C 
ATOM      8  C   LIG A   1      -6.681   2.041 127.377  0.00  0.00    +0.090 C 
ATOM      9  C   LIG A   1      -4.351   2.136 126.348  0.00  0.00    +0.039 C 
BRANCH   8  10
ATOM     10  C   LIG A   1      -6.953   3.444 127.727  0.00  0.00    +0.330 C 
ATOM     11  O   LIG A   1      -6.101   4.131 128.323  0.00  0.00    -0.246 OA
BRANCH  10  12
ATOM     12  O   LIG A   1      -8.108   3.958 127.305  0.00  0.00    -0.477 OA
ATOM     13  H   LIG A   1      -8.502   3.477 126.556  0.00  0.00    +0.295 HD
ENDBRANCH  10  12
ENDBRANCH   8  10
ENDBRANCH   6   7
ENDBRANCH   5   6
ENDBRANCH   3   5
ENDBRANCH   1   2
BRANCH   1  14
ATOM     14  C   LIG A   1      -8.258  -4.049 125.304  0.00  0.00    +0.031 C 
BRANCH  14  15
ATOM     15  C   LIG A   1      -7.987  -3.270 124.059  0.00  0.00    -0.027 C 
ATOM     16  C   LIG A   1      -6.779  -2.861 123.624  0.00  0.00    -0.076 C 
ATOM     17  C   LIG A   1      -5.463  -3.221 124.352  0.00  0.00    +0.038 C 
BRANCH  16  18
ATOM     18  C   LIG A   1      -6.739  -1.792 122.524  0.00  0.00    +0.034 C 
BRANCH  18  19
ATOM     19  C   LIG A   1      -6.480  -0.292 122.936  0.00  0.00    +0.032 C 
BRANCH  19  20
ATOM     20  C   LIG A   1      -7.561   0.662 123.497  0.00  0.00    -0.016 C 
ATOM     21  C   LIG A   1      -7.531   1.990 123.748  0.00  0.00    +0.029 C 
ATOM     22  C   LIG A   1      -6.426   2.892 123.409  0.00  0.00    +0.051 C 
BRANCH  21  23
ATOM     23  C   LIG A   1      -8.566   2.852 124.393  0.00  0.00    +0.332 C 
ATOM     24  O   LIG A   1      -9.567   2.433 124.897  0.00  0.00    -0.245 OA
BRANCH  23  25
ATOM     25  O   LIG A   1      -8.315   4.172 124.191  0.00  0.00    -0.477 OA
ATOM     26  H   LIG A   1      -7.614   4.300 123.533  0.00  0.00    +0.295 HD
ENDBRANCH  23  25
ENDBRANCH  21  23
ENDBRANCH  19  20
ENDBRANCH  18  19
ENDBRANCH  16  18
ENDBRANCH  14  15
ENDBRANCH   1  14
TORSDOF 13
ENDMDL
