MODEL 1
REMARK VINA RESULT:      -6.3      0.000      0.000
REMARK  Name = NuBBE_1746
REMARK  2 active torsions:
REMARK  status: ('A' for Active; 'I' for Inactive)
REMARK    1  A    between atoms: C_1  and  C_2
REMARK    2  A    between atoms: C_2  and  C_3
REMARK                            x       y       z     vdW  Elec       q    Type
REMARK                         _______ _______ _______ _____ _____    ______ ____
ROOT
ATOM      1  C   LIG A   1     -11.154   7.574 126.621  0.00  0.00    +0.012 C 
ATOM      2  C   LIG A   1     -11.534   7.864 128.094  0.00  0.00    -0.025 C 
ATOM      3  C   LIG A   1     -10.217   8.000 128.862  0.00  0.00    +0.012 C 
ATOM      4  C   LIG A   1     -12.670   8.969 128.287  0.00  0.00    +0.021 C 
ATOM      5  C   LIG A   1     -13.682   7.820 127.946  0.00  0.00    +0.012 C 
ATOM      6  C   LIG A   1     -12.650   6.888 128.663  0.00  0.00    -0.004 C 
ATOM      7  C   LIG A   1     -12.909   6.912 130.181  0.00  0.00    +0.008 C 
ATOM      8  C   LIG A   1     -12.796   8.333 130.767  0.00  0.00    +0.031 C 
ATOM      9  C   LIG A   1     -12.928   9.400 129.707  0.00  0.00    -0.073 C 
ATOM     10  C   LIG A   1     -13.434  10.621 129.949  0.00  0.00    +0.008 C 
ENDROOT
TORSDOF 0
ENDMDL
MODEL 2
REMARK VINA RESULT:      -5.9      1.075      2.801
REMARK  Name = NuBBE_1746
REMARK  2 active torsions:
REMARK  status: ('A' for Active; 'I' for Inactive)
REMARK    1  A    between atoms: C_1  and  C_2
REMARK    2  A    between atoms: C_2  and  C_3
REMARK                            x       y       z     vdW  Elec       q    Type
REMARK                         _______ _______ _______ _____ _____    ______ ____
ROOT
ATOM      1  C   LIG A   1     -12.061   7.217 126.402  0.00  0.00    +0.012 C 
ATOM      2  C   LIG A   1     -12.467   7.382 127.886  0.00  0.00    -0.025 C 
ATOM      3  C   LIG A   1     -13.887   6.825 128.011  0.00  0.00    +0.012 C 
ATOM      4  C   LIG A   1     -11.355   6.932 128.939  0.00  0.00    +0.021 C 
ATOM      5  C   LIG A   1     -10.694   8.327 128.661  0.00  0.00    +0.012 C 
ATOM      6  C   LIG A   1     -12.163   8.828 128.469  0.00  0.00    -0.004 C 
ATOM      7  C   LIG A   1     -12.765   9.184 129.840  0.00  0.00    +0.008 C 
ATOM      8  C   LIG A   1     -12.766   7.981 130.804  0.00  0.00    +0.031 C 
ATOM      9  C   LIG A   1     -11.789   6.910 130.381  0.00  0.00    -0.073 C 
ATOM     10  C   LIG A   1     -11.171   6.092 131.249  0.00  0.00    +0.008 C 
ENDROOT
TORSDOF 0
ENDMDL
MODEL 3
REMARK VINA RESULT:      -5.7      1.199      2.419
REMARK  Name = NuBBE_1746
REMARK  2 active torsions:
REMARK  status: ('A' for Active; 'I' for Inactive)
REMARK    1  A    between atoms: C_1  and  C_2
REMARK    2  A    between atoms: C_2  and  C_3
REMARK                            x       y       z     vdW  Elec       q    Type
REMARK                         _______ _______ _______ _____ _____    ______ ____
ROOT
ATOM      1  C   LIG A   1      -9.855   7.069 130.051  0.00  0.00    +0.012 C 
ATOM      2  C   LIG A   1     -11.270   7.258 129.451  0.00  0.00    -0.025 C 
ATOM      3  C   LIG A   1     -12.226   6.457 130.339  0.00  0.00    +0.012 C 
ATOM      4  C   LIG A   1     -11.637   8.761 129.063  0.00  0.00    +0.021 C 
ATOM      5  C   LIG A   1     -10.801   8.505 127.761  0.00  0.00    +0.012 C 
ATOM      6  C   LIG A   1     -11.326   7.037 127.879  0.00  0.00    -0.004 C 
ATOM      7  C   LIG A   1     -12.716   6.935 127.224  0.00  0.00    +0.008 C 
ATOM      8  C   LIG A   1     -13.736   7.889 127.877  0.00  0.00    +0.031 C 
ATOM      9  C   LIG A   1     -13.067   9.000 128.649  0.00  0.00    -0.073 C 
ATOM     10  C   LIG A   1     -13.610  10.218 128.809  0.00  0.00    +0.008 C 
ENDROOT
TORSDOF 0
ENDMDL
MODEL 4
REMARK VINA RESULT:      -5.4     11.042     12.923
REMARK  Name = NuBBE_1746
REMARK  2 active torsions:
REMARK  status: ('A' for Active; 'I' for Inactive)
REMARK    1  A    between atoms: C_1  and  C_2
REMARK    2  A    between atoms: C_2  and  C_3
REMARK                            x       y       z     vdW  Elec       q    Type
REMARK                         _______ _______ _______ _____ _____    ______ ____
ROOT
ATOM      1  C   LIG A   1      -8.596  -2.944 127.164  0.00  0.00    +0.012 C 
ATOM      2  C   LIG A   1      -8.551  -2.477 125.689  0.00  0.00    -0.025 C 
ATOM      3  C   LIG A   1      -8.965  -1.003 125.689  0.00  0.00    +0.012 C 
ATOM      4  C   LIG A   1      -7.246  -2.922 124.885  0.00  0.00    +0.021 C 
ATOM      5  C   LIG A   1      -7.960  -4.311 124.728  0.00  0.00    +0.012 C 
ATOM      6  C   LIG A   1      -9.279  -3.471 124.687  0.00  0.00    -0.004 C 
ATOM      7  C   LIG A   1      -9.527  -2.978 123.249  0.00  0.00    +0.008 C 
ATOM      8  C   LIG A   1      -8.363  -2.113 122.724  0.00  0.00    +0.031 C 
ATOM      9  C   LIG A   1      -7.092  -2.329 123.508  0.00  0.00    -0.073 C 
ATOM     10  C   LIG A   1      -5.865  -2.198 122.976  0.00  0.00    +0.008 C 
ENDROOT
TORSDOF 0
ENDMDL
MODEL 5
REMARK VINA RESULT:      -5.4      1.236      3.389
REMARK  Name = NuBBE_1746
REMARK  2 active torsions:
REMARK  status: ('A' for Active; 'I' for Inactive)
REMARK    1  A    between atoms: C_1  and  C_2
REMARK    2  A    between atoms: C_2  and  C_3
REMARK                            x       y       z     vdW  Elec       q    Type
REMARK                         _______ _______ _______ _____ _____    ______ ____
ROOT
ATOM      1  C   LIG A   1     -13.023   7.341 131.058  0.00  0.00    +0.012 C 
ATOM      2  C   LIG A   1     -12.207   7.240 129.747  0.00  0.00    -0.025 C 
ATOM      3  C   LIG A   1     -11.340   5.985 129.873  0.00  0.00    +0.012 C 
ATOM      4  C   LIG A   1     -13.050   7.479 128.413  0.00  0.00    +0.021 C 
ATOM      5  C   LIG A   1     -12.901   9.008 128.732  0.00  0.00    +0.012 C 
ATOM      6  C   LIG A   1     -11.512   8.606 129.327  0.00  0.00    -0.004 C 
ATOM      7  C   LIG A   1     -10.466   8.554 128.198  0.00  0.00    +0.008 C 
ATOM      8  C   LIG A   1     -10.852   7.548 127.096  0.00  0.00    +0.031 C 
ATOM      9  C   LIG A   1     -12.322   7.208 127.122  0.00  0.00    -0.073 C 
ATOM     10  C   LIG A   1     -13.020   6.867 126.026  0.00  0.00    +0.008 C 
ENDROOT
TORSDOF 0
ENDMDL
MODEL 6
REMARK VINA RESULT:      -5.3     11.862     13.457
REMARK  Name = NuBBE_1746
REMARK  2 active torsions:
REMARK  status: ('A' for Active; 'I' for Inactive)
REMARK    1  A    between atoms: C_1  and  C_2
REMARK    2  A    between atoms: C_2  and  C_3
REMARK                            x       y       z     vdW  Elec       q    Type
REMARK                         _______ _______ _______ _____ _____    ______ ____
ROOT
ATOM      1  C   LIG A   1      -9.330  -2.905 123.228  0.00  0.00    +0.012 C 
ATOM      2  C   LIG A   1      -8.060  -2.863 124.113  0.00  0.00    -0.025 C 
ATOM      3  C   LIG A   1      -8.372  -3.698 125.357  0.00  0.00    +0.012 C 
ATOM      4  C   LIG A   1      -6.691  -3.107 123.330  0.00  0.00    +0.021 C 
ATOM      5  C   LIG A   1      -6.800  -1.600 122.907  0.00  0.00    +0.012 C 
ATOM      6  C   LIG A   1      -7.471  -1.401 124.306  0.00  0.00    -0.004 C 
ATOM      7  C   LIG A   1      -6.379  -1.209 125.375  0.00  0.00    +0.008 C 
ATOM      8  C   LIG A   1      -5.418  -2.412 125.445  0.00  0.00    +0.031 C 
ATOM      9  C   LIG A   1      -5.462  -3.252 124.191  0.00  0.00    -0.073 C 
ATOM     10  C   LIG A   1      -4.410  -3.951 123.734  0.00  0.00    +0.008 C 
ENDROOT
TORSDOF 0
ENDMDL
MODEL 7
REMARK VINA RESULT:      -5.2     11.237     13.120
REMARK  Name = NuBBE_1746
REMARK  2 active torsions:
REMARK  status: ('A' for Active; 'I' for Inactive)
REMARK    1  A    between atoms: C_1  and  C_2
REMARK    2  A    between atoms: C_2  and  C_3
REMARK                            x       y       z     vdW  Elec       q    Type
REMARK                         _______ _______ _______ _____ _____    ______ ____
ROOT
ATOM      1  C   LIG A   1      -4.643  -3.429 123.800  0.00  0.00    +0.012 C 
ATOM      2  C   LIG A   1      -5.933  -2.617 123.530  0.00  0.00    -0.025 C 
ATOM      3  C   LIG A   1      -5.846  -2.136 122.079  0.00  0.00    +0.012 C 
ATOM      4  C   LIG A   1      -7.277  -3.306 124.047  0.00  0.00    +0.021 C 
ATOM      5  C   LIG A   1      -6.877  -2.755 125.460  0.00  0.00    +0.012 C 
ATOM      6  C   LIG A   1      -6.263  -1.556 124.665  0.00  0.00    -0.004 C 
ATOM      7  C   LIG A   1      -7.363  -0.519 124.372  0.00  0.00    +0.008 C 
ATOM      8  C   LIG A   1      -8.525  -1.121 123.557  0.00  0.00    +0.031 C 
ATOM      9  C   LIG A   1      -8.559  -2.628 123.637  0.00  0.00    -0.073 C 
ATOM     10  C   LIG A   1      -9.691  -3.346 123.548  0.00  0.00    +0.008 C 
ENDROOT
TORSDOF 0
ENDMDL
MODEL 8
REMARK VINA RESULT:      -5.1     10.842     12.747
REMARK  Name = NuBBE_1746
REMARK  2 active torsions:
REMARK  status: ('A' for Active; 'I' for Inactive)
REMARK    1  A    between atoms: C_1  and  C_2
REMARK    2  A    between atoms: C_2  and  C_3
REMARK                            x       y       z     vdW  Elec       q    Type
REMARK                         _______ _______ _______ _____ _____    ______ ____
ROOT
ATOM      1  C   LIG A   1      -6.614   0.521 124.582  0.00  0.00    +0.012 C 
ATOM      2  C   LIG A   1      -6.916  -0.990 124.723  0.00  0.00    -0.025 C 
ATOM      3  C   LIG A   1      -7.147  -1.248 126.215  0.00  0.00    +0.012 C 
ATOM      4  C   LIG A   1      -7.956  -1.568 123.659  0.00  0.00    +0.021 C 
ATOM      5  C   LIG A   1      -6.742  -1.605 122.667  0.00  0.00    +0.012 C 
ATOM      6  C   LIG A   1      -5.890  -1.917 123.941  0.00  0.00    -0.004 C 
ATOM      7  C   LIG A   1      -5.934  -3.429 124.228  0.00  0.00    +0.008 C 
ATOM      8  C   LIG A   1      -7.373  -3.936 124.449  0.00  0.00    +0.031 C 
ATOM      9  C   LIG A   1      -8.405  -2.988 123.887  0.00  0.00    -0.073 C 
ATOM     10  C   LIG A   1      -9.599  -3.390 123.421  0.00  0.00    +0.008 C 
ENDROOT
TORSDOF 0
ENDMDL
MODEL 9
REMARK VINA RESULT:      -5.1      1.100      3.366
REMARK  Name = NuBBE_1746
REMARK  2 active torsions:
REMARK  status: ('A' for Active; 'I' for Inactive)
REMARK    1  A    between atoms: C_1  and  C_2
REMARK    2  A    between atoms: C_2  and  C_3
REMARK                            x       y       z     vdW  Elec       q    Type
REMARK                         _______ _______ _______ _____ _____    ______ ____
ROOT
ATOM      1  C   LIG A   1     -13.121   9.925 130.763  0.00  0.00    +0.012 C 
ATOM      2  C   LIG A   1     -13.121   9.156 129.419  0.00  0.00    -0.025 C 
ATOM      3  C   LIG A   1     -13.887  10.028 128.422  0.00  0.00    +0.012 C 
ATOM      4  C   LIG A   1     -11.708   8.544 128.999  0.00  0.00    +0.021 C 
ATOM      5  C   LIG A   1     -12.046   7.383 129.999  0.00  0.00    +0.012 C 
ATOM      6  C   LIG A   1     -13.528   7.628 129.564  0.00  0.00    -0.004 C 
ATOM      7  C   LIG A   1     -13.820   6.843 128.272  0.00  0.00    +0.008 C 
ATOM      8  C   LIG A   1     -12.883   7.256 127.119  0.00  0.00    +0.031 C 
ATOM      9  C   LIG A   1     -11.638   7.950 127.615  0.00  0.00    -0.073 C 
ATOM     10  C   LIG A   1     -10.458   7.896 126.976  0.00  0.00    +0.008 C 
ENDROOT
TORSDOF 0
ENDMDL
