MODEL 1
REMARK VINA RESULT:      -7.9      0.000      0.000
REMARK  Name = NuBBE_1876
REMARK  19 active torsions:
REMARK  status: ('A' for Active; 'I' for Inactive)
REMARK    1  A    between atoms: C_4  and  O_36
REMARK    2  A    between atoms: C_5  and  O_6
REMARK    3  A    between atoms: O_6  and  C_7
REMARK    4  A    between atoms: C_7  and  C_8
REMARK    5  A    between atoms: C_10  and  O_34
REMARK    6  A    between atoms: C_14  and  C_15
REMARK    7  A    between atoms: C_18  and  O_29
REMARK    8  A    between atoms: C_19  and  O_20
REMARK    9  A    between atoms: O_20  and  C_21
REMARK   10  A    between atoms: C_21  and  C_22
REMARK   11  A    between atoms: C_24  and  O_25
REMARK   12  A    between atoms: O_25  and  C_26
REMARK   13  A    between atoms: C_26  and  C_27
REMARK   14  A    between atoms: O_29  and  C_30
REMARK   15  A    between atoms: C_31  and  O_32
REMARK   16  A    between atoms: O_32  and  C_33
REMARK   17  A    between atoms: O_34  and  C_35
REMARK   18  A    between atoms: O_36  and  C_37
REMARK   19  A    between atoms: C_37  and  C_38
REMARK                            x       y       z     vdW  Elec       q    Type
REMARK                         _______ _______ _______ _____ _____    ______ ____
ROOT
ATOM      1  O   LIG A   1      -5.876   5.215 126.928  0.00  0.00    -0.283 OA
ATOM      2  C   LIG A   1      -6.273   4.081 127.157  0.00  0.00    +0.238 A 
ATOM      3  C   LIG A   1      -7.088   3.796 128.352  0.00  0.00    +0.114 A 
ATOM      4  C   LIG A   1      -7.072   4.624 129.474  0.00  0.00    +0.192 A 
ATOM      5  C   LIG A   1      -7.937   4.382 130.546  0.00  0.00    +0.216 A 
ATOM      6  C   LIG A   1      -8.823   3.291 130.499  0.00  0.00    +0.169 A 
ATOM      7  C   LIG A   1      -8.767   2.415 129.407  0.00  0.00    +0.096 A 
ATOM      8  C   LIG A   1      -7.873   2.656 128.361  0.00  0.00    +0.147 A 
ATOM      9  O   LIG A   1      -7.762   1.686 127.402  0.00  0.00    -0.451 OA
ATOM     10  C   LIG A   1      -6.750   1.822 126.461  0.00  0.00    +0.184 A 
ATOM     11  C   LIG A   1      -5.991   2.919 126.269  0.00  0.00    +0.211 A 
ENDROOT
BRANCH  10  12
ATOM     12  C   LIG A   1      -6.614   0.643 125.624  0.00  0.00    +0.067 A 
ATOM     13  C   LIG A   1      -5.548  -0.205 125.964  0.00  0.00    +0.019 A 
ATOM     14  C   LIG A   1      -5.283  -1.367 125.245  0.00  0.00    +0.050 A 
ATOM     15  C   LIG A   1      -6.078  -1.710 124.148  0.00  0.00    +0.166 A 
ATOM     16  C   LIG A   1      -7.122  -0.837 123.763  0.00  0.00    +0.216 A 
ATOM     17  C   LIG A   1      -7.431   0.310 124.536  0.00  0.00    +0.188 A 
BRANCH  15  18
ATOM     18  O   LIG A   1      -5.865  -2.860 123.426  0.00  0.00    -0.491 OA
ATOM     19  C   LIG A   1      -4.531  -3.378 123.499  0.00  0.00    +0.277 C 
ENDBRANCH  15  18
BRANCH  16  20
ATOM     20  O   LIG A   1      -7.935  -1.228 122.671  0.00  0.00    -0.418 OA
BRANCH  20  21
ATOM     21  C   LIG A   1      -9.260  -1.593 122.901  0.00  0.00    +0.309 C 
ATOM     22  C   LIG A   1      -9.286  -2.945 123.558  0.00  0.00    +0.136 C 
ATOM     23  O   LIG A   1     -10.262  -0.914 122.710  0.00  0.00    -0.251 OA
ENDBRANCH  20  21
ENDBRANCH  16  20
BRANCH  17  24
ATOM     24  O   LIG A   1      -8.570   1.084 124.137  0.00  0.00    -0.421 OA
BRANCH  24  25
ATOM     25  C   LIG A   1      -8.787   2.450 123.902  0.00  0.00    +0.309 C 
ATOM     26  C   LIG A   1      -8.711   2.736 122.444  0.00  0.00    +0.136 C 
ATOM     27  O   LIG A   1      -9.067   3.336 124.697  0.00  0.00    -0.251 OA
ENDBRANCH  24  25
ENDBRANCH  17  24
ENDBRANCH  10  12
BRANCH  11  28
ATOM     28  O   LIG A   1      -5.110   2.992 125.194  0.00  0.00    -0.488 OA
ATOM     29  C   LIG A   1      -5.498   3.864 124.142  0.00  0.00    +0.277 C 
ENDBRANCH  11  28
BRANCH   6  30
ATOM     30  O   LIG A   1      -9.756   3.165 131.493  0.00  0.00    -0.491 OA
ATOM     31  C   LIG A   1      -9.401   2.277 132.552  0.00  0.00    +0.277 C 
ENDBRANCH   6  30
BRANCH   5  32
ATOM     32  O   LIG A   1      -7.978   5.348 131.574  0.00  0.00    -0.418 OA
BRANCH  32  33
ATOM     33  C   LIG A   1      -9.010   6.275 131.746  0.00  0.00    +0.309 C 
ATOM     34  C   LIG A   1      -9.021   7.165 130.532  0.00  0.00    +0.136 C 
ATOM     35  O   LIG A   1      -9.736   6.396 132.718  0.00  0.00    -0.251 OA
ENDBRANCH  32  33
ENDBRANCH   5  32
BRANCH   4  36
ATOM     36  O   LIG A   1      -5.925   5.446 129.612  0.00  0.00    -0.421 OA
BRANCH  36  37
ATOM     37  C   LIG A   1      -4.773   5.151 130.332  0.00  0.00    +0.309 C 
ATOM     38  C   LIG A   1      -4.525   6.323 131.235  0.00  0.00    +0.136 C 
ATOM     39  O   LIG A   1      -4.083   4.138 130.233  0.00  0.00    -0.251 OA
ENDBRANCH  36  37
ENDBRANCH   4  36
TORSDOF 12
ENDMDL
MODEL 2
REMARK VINA RESULT:      -7.9      2.191      8.054
REMARK  Name = NuBBE_1876
REMARK  19 active torsions:
REMARK  status: ('A' for Active; 'I' for Inactive)
REMARK    1  A    between atoms: C_4  and  O_36
REMARK    2  A    between atoms: C_5  and  O_6
REMARK    3  A    between atoms: O_6  and  C_7
REMARK    4  A    between atoms: C_7  and  C_8
REMARK    5  A    between atoms: C_10  and  O_34
REMARK    6  A    between atoms: C_14  and  C_15
REMARK    7  A    between atoms: C_18  and  O_29
REMARK    8  A    between atoms: C_19  and  O_20
REMARK    9  A    between atoms: O_20  and  C_21
REMARK   10  A    between atoms: C_21  and  C_22
REMARK   11  A    between atoms: C_24  and  O_25
REMARK   12  A    between atoms: O_25  and  C_26
REMARK   13  A    between atoms: C_26  and  C_27
REMARK   14  A    between atoms: O_29  and  C_30
REMARK   15  A    between atoms: C_31  and  O_32
REMARK   16  A    between atoms: O_32  and  C_33
REMARK   17  A    between atoms: O_34  and  C_35
REMARK   18  A    between atoms: O_36  and  C_37
REMARK   19  A    between atoms: C_37  and  C_38
REMARK                            x       y       z     vdW  Elec       q    Type
REMARK                         _______ _______ _______ _____ _____    ______ ____
ROOT
ATOM      1  O   LIG A   1      -6.451   1.413 123.665  0.00  0.00    -0.283 OA
ATOM      2  C   LIG A   1      -6.442   1.500 124.885  0.00  0.00    +0.238 A 
ATOM      3  C   LIG A   1      -7.052   0.448 125.719  0.00  0.00    +0.114 A 
ATOM      4  C   LIG A   1      -8.027  -0.417 125.223  0.00  0.00    +0.192 A 
ATOM      5  C   LIG A   1      -8.506  -1.471 126.009  0.00  0.00    +0.216 A 
ATOM      6  C   LIG A   1      -8.010  -1.655 127.312  0.00  0.00    +0.169 A 
ATOM      7  C   LIG A   1      -7.096  -0.727 127.830  0.00  0.00    +0.096 A 
ATOM      8  C   LIG A   1      -6.655   0.337 127.041  0.00  0.00    +0.147 A 
ATOM      9  O   LIG A   1      -5.885   1.288 127.653  0.00  0.00    -0.451 OA
ATOM     10  C   LIG A   1      -5.593   2.442 126.937  0.00  0.00    +0.184 A 
ATOM     11  C   LIG A   1      -5.819   2.635 125.623  0.00  0.00    +0.211 A 
ENDROOT
BRANCH  10  12
ATOM     12  C   LIG A   1      -4.940   3.448 127.756  0.00  0.00    +0.067 A 
ATOM     13  C   LIG A   1      -3.546   3.317 127.857  0.00  0.00    +0.019 A 
ATOM     14  C   LIG A   1      -2.784   4.199 128.618  0.00  0.00    +0.050 A 
ATOM     15  C   LIG A   1      -3.404   5.240 129.314  0.00  0.00    +0.166 A 
ATOM     16  C   LIG A   1      -4.812   5.350 129.264  0.00  0.00    +0.216 A 
ATOM     17  C   LIG A   1      -5.579   4.492 128.437  0.00  0.00    +0.188 A 
BRANCH  15  18
ATOM     18  O   LIG A   1      -2.686   6.146 130.057  0.00  0.00    -0.491 OA
ATOM     19  C   LIG A   1      -2.172   5.639 131.295  0.00  0.00    +0.277 C 
ENDBRANCH  15  18
BRANCH  16  20
ATOM     20  O   LIG A   1      -5.410   6.437 129.949  0.00  0.00    -0.418 OA
BRANCH  20  21
ATOM     21  C   LIG A   1      -5.992   6.223 131.197  0.00  0.00    +0.309 C 
ATOM     22  C   LIG A   1      -7.336   6.897 131.229  0.00  0.00    +0.136 C 
ATOM     23  O   LIG A   1      -5.564   5.525 132.108  0.00  0.00    -0.251 OA
ENDBRANCH  20  21
ENDBRANCH  16  20
BRANCH  17  24
ATOM     24  O   LIG A   1      -6.989   4.740 128.361  0.00  0.00    -0.421 OA
BRANCH  24  25
ATOM     25  C   LIG A   1      -8.114   4.164 128.971  0.00  0.00    +0.309 C 
ATOM     26  C   LIG A   1      -7.690   3.143 129.966  0.00  0.00    +0.136 C 
ATOM     27  O   LIG A   1      -9.297   4.438 128.823  0.00  0.00    -0.251 OA
ENDBRANCH  24  25
ENDBRANCH  17  24
ENDBRANCH  10  12
BRANCH  11  28
ATOM     28  O   LIG A   1      -5.345   3.776 124.982  0.00  0.00    -0.488 OA
ATOM     29  C   LIG A   1      -6.312   4.787 124.736  0.00  0.00    +0.277 C 
ENDBRANCH  11  28
BRANCH   6  30
ATOM     30  O   LIG A   1      -8.387  -2.776 128.002  0.00  0.00    -0.491 OA
ATOM     31  C   LIG A   1      -7.990  -2.809 129.372  0.00  0.00    +0.277 C 
ENDBRANCH   6  30
BRANCH   5  32
ATOM     32  O   LIG A   1      -9.371  -2.397 125.389  0.00  0.00    -0.418 OA
BRANCH  32  33
ATOM     33  C   LIG A   1      -8.950  -3.433 124.551  0.00  0.00    +0.309 C 
ATOM     34  C   LIG A   1      -9.663  -3.263 123.236  0.00  0.00    +0.136 C 
ATOM     35  O   LIG A   1      -8.194  -4.347 124.833  0.00  0.00    -0.251 OA
ENDBRANCH  32  33
ENDBRANCH   5  32
BRANCH   4  36
ATOM     36  O   LIG A   1      -8.734   0.045 124.085  0.00  0.00    -0.421 OA
BRANCH  36  37
ATOM     37  C   LIG A   1      -9.909   0.788 124.082  0.00  0.00    +0.309 C 
ATOM     38  C   LIG A   1     -10.223   1.079 122.643  0.00  0.00    +0.136 C 
ATOM     39  O   LIG A   1     -10.552   1.151 125.064  0.00  0.00    -0.251 OA
ENDBRANCH  36  37
ENDBRANCH   4  36
TORSDOF 12
ENDMDL
MODEL 3
REMARK VINA RESULT:      -7.4      1.309      1.675
REMARK  Name = NuBBE_1876
REMARK  19 active torsions:
REMARK  status: ('A' for Active; 'I' for Inactive)
REMARK    1  A    between atoms: C_4  and  O_36
REMARK    2  A    between atoms: C_5  and  O_6
REMARK    3  A    between atoms: O_6  and  C_7
REMARK    4  A    between atoms: C_7  and  C_8
REMARK    5  A    between atoms: C_10  and  O_34
REMARK    6  A    between atoms: C_14  and  C_15
REMARK    7  A    between atoms: C_18  and  O_29
REMARK    8  A    between atoms: C_19  and  O_20
REMARK    9  A    between atoms: O_20  and  C_21
REMARK   10  A    between atoms: C_21  and  C_22
REMARK   11  A    between atoms: C_24  and  O_25
REMARK   12  A    between atoms: O_25  and  C_26
REMARK   13  A    between atoms: C_26  and  C_27
REMARK   14  A    between atoms: O_29  and  C_30
REMARK   15  A    between atoms: C_31  and  O_32
REMARK   16  A    between atoms: O_32  and  C_33
REMARK   17  A    between atoms: O_34  and  C_35
REMARK   18  A    between atoms: O_36  and  C_37
REMARK   19  A    between atoms: C_37  and  C_38
REMARK                            x       y       z     vdW  Elec       q    Type
REMARK                         _______ _______ _______ _____ _____    ______ ____
ROOT
ATOM      1  O   LIG A   1      -5.210   5.316 127.758  0.00  0.00    -0.283 OA
ATOM      2  C   LIG A   1      -5.749   4.226 127.884  0.00  0.00    +0.238 A 
ATOM      3  C   LIG A   1      -6.642   3.956 129.027  0.00  0.00    +0.114 A 
ATOM      4  C   LIG A   1      -6.573   4.691 130.210  0.00  0.00    +0.192 A 
ATOM      5  C   LIG A   1      -7.505   4.479 131.232  0.00  0.00    +0.216 A 
ATOM      6  C   LIG A   1      -8.513   3.512 131.071  0.00  0.00    +0.169 A 
ATOM      7  C   LIG A   1      -8.518   2.719 129.915  0.00  0.00    +0.096 A 
ATOM      8  C   LIG A   1      -7.559   2.924 128.921  0.00  0.00    +0.147 A 
ATOM      9  O   LIG A   1      -7.525   2.021 127.893  0.00  0.00    -0.451 OA
ATOM     10  C   LIG A   1      -6.466   2.100 126.998  0.00  0.00    +0.184 A 
ATOM     11  C   LIG A   1      -5.573   3.106 126.918  0.00  0.00    +0.211 A 
ENDROOT
BRANCH  10  12
ATOM     12  C   LIG A   1      -6.438   0.978 126.077  0.00  0.00    +0.067 A 
ATOM     13  C   LIG A   1      -5.476  -0.002 126.365  0.00  0.00    +0.019 A 
ATOM     14  C   LIG A   1      -5.321  -1.129 125.563  0.00  0.00    +0.050 A 
ATOM     15  C   LIG A   1      -6.125  -1.303 124.434  0.00  0.00    +0.166 A 
ATOM     16  C   LIG A   1      -7.061  -0.296 124.103  0.00  0.00    +0.216 A 
ATOM     17  C   LIG A   1      -7.263   0.817 124.956  0.00  0.00    +0.188 A 
BRANCH  15  18
ATOM     18  O   LIG A   1      -6.020  -2.413 123.630  0.00  0.00    -0.491 OA
ATOM     19  C   LIG A   1      -4.752  -3.077 123.683  0.00  0.00    +0.277 C 
ENDBRANCH  15  18
BRANCH  16  20
ATOM     20  O   LIG A   1      -7.889  -0.517 122.974  0.00  0.00    -0.418 OA
BRANCH  20  21
ATOM     21  C   LIG A   1      -9.183  -1.001 123.157  0.00  0.00    +0.309 C 
ATOM     22  C   LIG A   1     -10.138  -0.146 122.372  0.00  0.00    +0.136 C 
ATOM     23  O   LIG A   1      -9.520  -2.011 123.763  0.00  0.00    -0.251 OA
ENDBRANCH  20  21
ENDBRANCH  16  20
BRANCH  17  24
ATOM     24  O   LIG A   1      -8.306   1.736 124.603  0.00  0.00    -0.421 OA
BRANCH  24  25
ATOM     25  C   LIG A   1      -8.322   3.055 124.125  0.00  0.00    +0.309 C 
ATOM     26  C   LIG A   1      -8.295   3.060 122.638  0.00  0.00    +0.136 C 
ATOM     27  O   LIG A   1      -8.410   4.101 124.751  0.00  0.00    -0.251 OA
ENDBRANCH  24  25
ENDBRANCH  17  24
ENDBRANCH  10  12
BRANCH  11  28
ATOM     28  O   LIG A   1      -4.646   3.150 125.881  0.00  0.00    -0.488 OA
ATOM     29  C   LIG A   1      -3.286   3.018 126.269  0.00  0.00    +0.277 C 
ENDBRANCH  11  28
BRANCH   6  30
ATOM     30  O   LIG A   1      -9.495   3.428 132.021  0.00  0.00    -0.491 OA
ATOM     31  C   LIG A   1      -9.670   2.137 132.603  0.00  0.00    +0.277 C 
ENDBRANCH   6  30
BRANCH   5  32
ATOM     32  O   LIG A   1      -7.472   5.364 132.330  0.00  0.00    -0.418 OA
BRANCH  32  33
ATOM     33  C   LIG A   1      -6.850   5.087 133.550  0.00  0.00    +0.309 C 
ATOM     34  C   LIG A   1      -7.924   5.059 134.604  0.00  0.00    +0.136 C 
ATOM     35  O   LIG A   1      -5.656   4.951 133.754  0.00  0.00    -0.251 OA
ENDBRANCH  32  33
ENDBRANCH   5  32
BRANCH   4  36
ATOM     36  O   LIG A   1      -5.342   5.352 130.448  0.00  0.00    -0.421 OA
BRANCH  36  37
ATOM     37  C   LIG A   1      -5.156   6.716 130.644  0.00  0.00    +0.309 C 
ATOM     38  C   LIG A   1      -3.812   6.872 131.294  0.00  0.00    +0.136 C 
ATOM     39  O   LIG A   1      -5.945   7.615 130.360  0.00  0.00    -0.251 OA
ENDBRANCH  36  37
ENDBRANCH   4  36
TORSDOF 12
ENDMDL
MODEL 4
REMARK VINA RESULT:      -7.4      1.925      8.135
REMARK  Name = NuBBE_1876
REMARK  19 active torsions:
REMARK  status: ('A' for Active; 'I' for Inactive)
REMARK    1  A    between atoms: C_4  and  O_36
REMARK    2  A    between atoms: C_5  and  O_6
REMARK    3  A    between atoms: O_6  and  C_7
REMARK    4  A    between atoms: C_7  and  C_8
REMARK    5  A    between atoms: C_10  and  O_34
REMARK    6  A    between atoms: C_14  and  C_15
REMARK    7  A    between atoms: C_18  and  O_29
REMARK    8  A    between atoms: C_19  and  O_20
REMARK    9  A    between atoms: O_20  and  C_21
REMARK   10  A    between atoms: C_21  and  C_22
REMARK   11  A    between atoms: C_24  and  O_25
REMARK   12  A    between atoms: O_25  and  C_26
REMARK   13  A    between atoms: C_26  and  C_27
REMARK   14  A    between atoms: O_29  and  C_30
REMARK   15  A    between atoms: C_31  and  O_32
REMARK   16  A    between atoms: O_32  and  C_33
REMARK   17  A    between atoms: O_34  and  C_35
REMARK   18  A    between atoms: O_36  and  C_37
REMARK   19  A    between atoms: C_37  and  C_38
REMARK                            x       y       z     vdW  Elec       q    Type
REMARK                         _______ _______ _______ _____ _____    ______ ____
ROOT
ATOM      1  O   LIG A   1      -5.489   3.322 124.841  0.00  0.00    -0.283 OA
ATOM      2  C   LIG A   1      -5.787   2.747 125.879  0.00  0.00    +0.238 A 
ATOM      3  C   LIG A   1      -6.291   1.362 125.854  0.00  0.00    +0.114 A 
ATOM      4  C   LIG A   1      -6.874   0.806 124.715  0.00  0.00    +0.192 A 
ATOM      5  C   LIG A   1      -7.244  -0.543 124.694  0.00  0.00    +0.216 A 
ATOM      6  C   LIG A   1      -7.036  -1.344 125.831  0.00  0.00    +0.169 A 
ATOM      7  C   LIG A   1      -6.531  -0.754 126.997  0.00  0.00    +0.096 A 
ATOM      8  C   LIG A   1      -6.199   0.603 127.008  0.00  0.00    +0.147 A 
ATOM      9  O   LIG A   1      -5.857   1.150 128.216  0.00  0.00    -0.451 OA
ATOM     10  C   LIG A   1      -5.705   2.529 128.280  0.00  0.00    +0.184 A 
ATOM     11  C   LIG A   1      -5.659   3.368 127.227  0.00  0.00    +0.211 A 
ENDROOT
BRANCH  10  12
ATOM     12  C   LIG A   1      -5.535   3.002 129.642  0.00  0.00    +0.067 A 
ATOM     13  C   LIG A   1      -4.207   3.040 130.095  0.00  0.00    +0.019 A 
ATOM     14  C   LIG A   1      -3.889   3.458 131.384  0.00  0.00    +0.050 A 
ATOM     15  C   LIG A   1      -4.901   3.842 132.267  0.00  0.00    +0.166 A 
ATOM     16  C   LIG A   1      -6.246   3.758 131.840  0.00  0.00    +0.216 A 
ATOM     17  C   LIG A   1      -6.564   3.395 130.507  0.00  0.00    +0.188 A 
BRANCH  15  18
ATOM     18  O   LIG A   1      -4.627   4.284 133.539  0.00  0.00    -0.491 OA
ATOM     19  C   LIG A   1      -3.532   3.623 134.184  0.00  0.00    +0.277 C 
ENDBRANCH  15  18
BRANCH  16  20
ATOM     20  O   LIG A   1      -7.249   4.190 132.743  0.00  0.00    -0.418 OA
BRANCH  20  21
ATOM     21  C   LIG A   1      -7.964   3.245 133.476  0.00  0.00    +0.309 C 
ATOM     22  C   LIG A   1      -9.247   3.868 133.953  0.00  0.00    +0.136 C 
ATOM     23  O   LIG A   1      -7.683   2.064 133.643  0.00  0.00    -0.251 OA
ENDBRANCH  20  21
ENDBRANCH  16  20
BRANCH  17  24
ATOM     24  O   LIG A   1      -7.946   3.437 130.126  0.00  0.00    -0.421 OA
BRANCH  24  25
ATOM     25  C   LIG A   1      -8.755   4.395 129.498  0.00  0.00    +0.309 C 
ATOM     26  C   LIG A   1      -9.930   4.712 130.354  0.00  0.00    +0.136 C 
ATOM     27  O   LIG A   1      -8.575   4.985 128.442  0.00  0.00    -0.251 OA
ENDBRANCH  24  25
ENDBRANCH  17  24
ENDBRANCH  10  12
BRANCH  11  28
ATOM     28  O   LIG A   1      -5.350   4.714 127.406  0.00  0.00    -0.488 OA
ATOM     29  C   LIG A   1      -3.993   5.066 127.182  0.00  0.00    +0.277 C 
ENDBRANCH  11  28
BRANCH   6  30
ATOM     30  O   LIG A   1      -7.270  -2.689 125.733  0.00  0.00    -0.491 OA
ATOM     31  C   LIG A   1      -8.314  -3.188 126.569  0.00  0.00    +0.277 C 
ENDBRANCH   6  30
BRANCH   5  32
ATOM     32  O   LIG A   1      -7.679  -1.074 123.461  0.00  0.00    -0.418 OA
BRANCH  32  33
ATOM     33  C   LIG A   1      -9.009  -1.381 123.158  0.00  0.00    +0.309 C 
ATOM     34  C   LIG A   1      -9.104  -2.877 123.026  0.00  0.00    +0.136 C 
ATOM     35  O   LIG A   1      -9.921  -0.594 122.972  0.00  0.00    -0.251 OA
ENDBRANCH  32  33
ENDBRANCH   5  32
BRANCH   4  36
ATOM     36  O   LIG A   1      -7.388   1.735 123.776  0.00  0.00    -0.421 OA
BRANCH  36  37
ATOM     37  C   LIG A   1      -8.647   2.326 123.795  0.00  0.00    +0.309 C 
ATOM     38  C   LIG A   1      -8.922   2.783 122.392  0.00  0.00    +0.136 C 
ATOM     39  O   LIG A   1      -9.380   2.464 124.771  0.00  0.00    -0.251 OA
ENDBRANCH  36  37
ENDBRANCH   4  36
TORSDOF 12
ENDMDL
MODEL 5
REMARK VINA RESULT:      -7.4      1.969      8.194
REMARK  Name = NuBBE_1876
REMARK  19 active torsions:
REMARK  status: ('A' for Active; 'I' for Inactive)
REMARK    1  A    between atoms: C_4  and  O_36
REMARK    2  A    between atoms: C_5  and  O_6
REMARK    3  A    between atoms: O_6  and  C_7
REMARK    4  A    between atoms: C_7  and  C_8
REMARK    5  A    between atoms: C_10  and  O_34
REMARK    6  A    between atoms: C_14  and  C_15
REMARK    7  A    between atoms: C_18  and  O_29
REMARK    8  A    between atoms: C_19  and  O_20
REMARK    9  A    between atoms: O_20  and  C_21
REMARK   10  A    between atoms: C_21  and  C_22
REMARK   11  A    between atoms: C_24  and  O_25
REMARK   12  A    between atoms: O_25  and  C_26
REMARK   13  A    between atoms: C_26  and  C_27
REMARK   14  A    between atoms: O_29  and  C_30
REMARK   15  A    between atoms: C_31  and  O_32
REMARK   16  A    between atoms: O_32  and  C_33
REMARK   17  A    between atoms: O_34  and  C_35
REMARK   18  A    between atoms: O_36  and  C_37
REMARK   19  A    between atoms: C_37  and  C_38
REMARK                            x       y       z     vdW  Elec       q    Type
REMARK                         _______ _______ _______ _____ _____    ______ ____
ROOT
ATOM      1  O   LIG A   1      -5.363   3.038 125.193  0.00  0.00    -0.283 OA
ATOM      2  C   LIG A   1      -6.259   2.891 126.012  0.00  0.00    +0.238 A 
ATOM      3  C   LIG A   1      -7.121   1.696 125.977  0.00  0.00    +0.114 A 
ATOM      4  C   LIG A   1      -7.285   0.933 124.821  0.00  0.00    +0.192 A 
ATOM      5  C   LIG A   1      -8.025  -0.254 124.853  0.00  0.00    +0.216 A 
ATOM      6  C   LIG A   1      -8.616  -0.678 126.056  0.00  0.00    +0.169 A 
ATOM      7  C   LIG A   1      -8.519   0.140 127.189  0.00  0.00    +0.096 A 
ATOM      8  C   LIG A   1      -7.804   1.338 127.128  0.00  0.00    +0.147 A 
ATOM      9  O   LIG A   1      -7.875   2.162 128.219  0.00  0.00    -0.451 OA
ATOM     10  C   LIG A   1      -7.326   3.432 128.106  0.00  0.00    +0.184 A 
ATOM     11  C   LIG A   1      -6.547   3.870 127.098  0.00  0.00    +0.211 A 
ENDROOT
BRANCH  10  12
ATOM     12  C   LIG A   1      -7.633   4.269 129.252  0.00  0.00    +0.067 A 
ATOM     13  C   LIG A   1      -6.735   4.158 130.326  0.00  0.00    +0.019 A 
ATOM     14  C   LIG A   1      -6.907   4.888 131.498  0.00  0.00    +0.050 A 
ATOM     15  C   LIG A   1      -7.999   5.749 131.635  0.00  0.00    +0.166 A 
ATOM     16  C   LIG A   1      -8.940   5.829 130.582  0.00  0.00    +0.216 A 
ATOM     17  C   LIG A   1      -8.728   5.136 129.365  0.00  0.00    +0.188 A 
BRANCH  15  18
ATOM     18  O   LIG A   1      -8.191   6.505 132.766  0.00  0.00    -0.491 OA
ATOM     19  C   LIG A   1      -8.013   5.800 134.000  0.00  0.00    +0.277 C 
ENDBRANCH  15  18
BRANCH  16  20
ATOM     20  O   LIG A   1     -10.016   6.738 130.733  0.00  0.00    -0.418 OA
BRANCH  20  21
ATOM     21  C   LIG A   1     -11.304   6.246 130.935  0.00  0.00    +0.309 C 
ATOM     22  C   LIG A   1     -12.271   7.398 130.925  0.00  0.00    +0.136 C 
ATOM     23  O   LIG A   1     -11.650   5.074 131.008  0.00  0.00    -0.251 OA
ENDBRANCH  20  21
ENDBRANCH  16  20
BRANCH  17  24
ATOM     24  O   LIG A   1      -9.674   5.355 128.310  0.00  0.00    -0.421 OA
BRANCH  24  25
ATOM     25  C   LIG A   1      -9.694   6.175 127.171  0.00  0.00    +0.309 C 
ATOM     26  C   LIG A   1     -10.499   7.397 127.436  0.00  0.00    +0.136 C 
ATOM     27  O   LIG A   1      -9.117   6.026 126.104  0.00  0.00    -0.251 OA
ENDBRANCH  24  25
ENDBRANCH  17  24
ENDBRANCH  10  12
BRANCH  11  28
ATOM     28  O   LIG A   1      -5.929   5.115 127.168  0.00  0.00    -0.488 OA
ATOM     29  C   LIG A   1      -4.548   5.097 127.501  0.00  0.00    +0.277 C 
ENDBRANCH  11  28
BRANCH   6  30
ATOM     30  O   LIG A   1      -9.207  -1.912 126.092  0.00  0.00    -0.491 OA
ATOM     31  C   LIG A   1      -8.523  -2.892 126.872  0.00  0.00    +0.277 C 
ENDBRANCH   6  30
BRANCH   5  32
ATOM     32  O   LIG A   1      -8.015  -1.051 123.689  0.00  0.00    -0.418 OA
BRANCH  32  33
ATOM     33  C   LIG A   1      -9.161  -1.452 122.996  0.00  0.00    +0.309 C 
ATOM     34  C   LIG A   1      -9.220  -2.955 123.061  0.00  0.00    +0.136 C 
ATOM     35  O   LIG A   1      -9.944  -0.738 122.394  0.00  0.00    -0.251 OA
ENDBRANCH  32  33
ENDBRANCH   5  32
BRANCH   4  36
ATOM     36  O   LIG A   1      -6.995   1.599 123.604  0.00  0.00    -0.421 OA
BRANCH  36  37
ATOM     37  C   LIG A   1      -7.848   2.431 122.887  0.00  0.00    +0.309 C 
ATOM     38  C   LIG A   1      -6.973   3.321 122.054  0.00  0.00    +0.136 C 
ATOM     39  O   LIG A   1      -9.076   2.447 122.941  0.00  0.00    -0.251 OA
ENDBRANCH  36  37
ENDBRANCH   4  36
TORSDOF 12
ENDMDL
MODEL 6
REMARK VINA RESULT:      -7.3      1.780      8.821
REMARK  Name = NuBBE_1876
REMARK  19 active torsions:
REMARK  status: ('A' for Active; 'I' for Inactive)
REMARK    1  A    between atoms: C_4  and  O_36
REMARK    2  A    between atoms: C_5  and  O_6
REMARK    3  A    between atoms: O_6  and  C_7
REMARK    4  A    between atoms: C_7  and  C_8
REMARK    5  A    between atoms: C_10  and  O_34
REMARK    6  A    between atoms: C_14  and  C_15
REMARK    7  A    between atoms: C_18  and  O_29
REMARK    8  A    between atoms: C_19  and  O_20
REMARK    9  A    between atoms: O_20  and  C_21
REMARK   10  A    between atoms: C_21  and  C_22
REMARK   11  A    between atoms: C_24  and  O_25
REMARK   12  A    between atoms: O_25  and  C_26
REMARK   13  A    between atoms: C_26  and  C_27
REMARK   14  A    between atoms: O_29  and  C_30
REMARK   15  A    between atoms: C_31  and  O_32
REMARK   16  A    between atoms: O_32  and  C_33
REMARK   17  A    between atoms: O_34  and  C_35
REMARK   18  A    between atoms: O_36  and  C_37
REMARK   19  A    between atoms: C_37  and  C_38
REMARK                            x       y       z     vdW  Elec       q    Type
REMARK                         _______ _______ _______ _____ _____    ______ ____
ROOT
ATOM      1  O   LIG A   1      -7.621   1.613 124.407  0.00  0.00    -0.283 OA
ATOM      2  C   LIG A   1      -7.472   1.480 125.614  0.00  0.00    +0.238 A 
ATOM      3  C   LIG A   1      -6.852   0.261 126.166  0.00  0.00    +0.114 A 
ATOM      4  C   LIG A   1      -6.825  -0.941 125.460  0.00  0.00    +0.192 A 
ATOM      5  C   LIG A   1      -6.136  -2.047 125.968  0.00  0.00    +0.216 A 
ATOM      6  C   LIG A   1      -5.473  -1.952 127.204  0.00  0.00    +0.169 A 
ATOM      7  C   LIG A   1      -5.582  -0.768 127.946  0.00  0.00    +0.096 A 
ATOM      8  C   LIG A   1      -6.302   0.314 127.436  0.00  0.00    +0.147 A 
ATOM      9  O   LIG A   1      -6.497   1.381 128.271  0.00  0.00    -0.451 OA
ATOM     10  C   LIG A   1      -7.363   2.382 127.849  0.00  0.00    +0.184 A 
ATOM     11  C   LIG A   1      -7.877   2.511 126.610  0.00  0.00    +0.211 A 
ENDROOT
BRANCH  10  12
ATOM     12  C   LIG A   1      -7.635   3.352 128.894  0.00  0.00    +0.067 A 
ATOM     13  C   LIG A   1      -8.749   3.063 129.697  0.00  0.00    +0.019 A 
ATOM     14  C   LIG A   1      -9.141   3.908 130.731  0.00  0.00    +0.050 A 
ATOM     15  C   LIG A   1      -8.429   5.083 130.985  0.00  0.00    +0.166 A 
ATOM     16  C   LIG A   1      -7.337   5.413 130.149  0.00  0.00    +0.216 A 
ATOM     17  C   LIG A   1      -6.899   4.519 129.140  0.00  0.00    +0.188 A 
BRANCH  15  18
ATOM     18  O   LIG A   1      -8.769   5.932 132.011  0.00  0.00    -0.491 OA
ATOM     19  C   LIG A   1     -10.139   5.860 132.424  0.00  0.00    +0.277 C 
ENDBRANCH  15  18
BRANCH  16  20
ATOM     20  O   LIG A   1      -6.611   6.590 130.453  0.00  0.00    -0.418 OA
BRANCH  20  21
ATOM     21  C   LIG A   1      -5.503   6.514 131.296  0.00  0.00    +0.309 C 
ATOM     22  C   LIG A   1      -4.449   7.464 130.800  0.00  0.00    +0.136 C 
ATOM     23  O   LIG A   1      -5.401   5.873 132.334  0.00  0.00    -0.251 OA
ENDBRANCH  20  21
ENDBRANCH  16  20
BRANCH  17  24
ATOM     24  O   LIG A   1      -5.721   4.880 128.408  0.00  0.00    -0.421 OA
BRANCH  24  25
ATOM     25  C   LIG A   1      -4.379   4.471 128.456  0.00  0.00    +0.309 C 
ATOM     26  C   LIG A   1      -3.514   5.477 127.784  0.00  0.00    +0.136 C 
ATOM     27  O   LIG A   1      -3.891   3.490 128.998  0.00  0.00    -0.251 OA
ENDBRANCH  24  25
ENDBRANCH  17  24
ENDBRANCH  10  12
BRANCH  11  28
ATOM     28  O   LIG A   1      -8.614   3.640 126.262  0.00  0.00    -0.488 OA
ATOM     29  C   LIG A   1      -7.887   4.667 125.604  0.00  0.00    +0.277 C 
ENDBRANCH  11  28
BRANCH   6  30
ATOM     30  O   LIG A   1      -4.688  -2.998 127.606  0.00  0.00    -0.491 OA
ATOM     31  C   LIG A   1      -4.262  -2.953 128.968  0.00  0.00    +0.277 C 
ENDBRANCH   6  30
BRANCH   5  32
ATOM     32  O   LIG A   1      -6.018  -3.176 125.129  0.00  0.00    -0.418 OA
BRANCH  32  33
ATOM     33  C   LIG A   1      -5.279  -3.205 123.943  0.00  0.00    +0.309 C 
ATOM     34  C   LIG A   1      -4.386  -4.415 124.000  0.00  0.00    +0.136 C 
ATOM     35  O   LIG A   1      -5.296  -2.380 123.045  0.00  0.00    -0.251 OA
ENDBRANCH  32  33
ENDBRANCH   5  32
BRANCH   4  36
ATOM     36  O   LIG A   1      -7.804  -1.075 124.442  0.00  0.00    -0.421 OA
BRANCH  36  37
ATOM     37  C   LIG A   1      -8.967  -1.834 124.503  0.00  0.00    +0.309 C 
ATOM     38  C   LIG A   1      -9.026  -2.624 123.229  0.00  0.00    +0.136 C 
ATOM     39  O   LIG A   1      -9.795  -1.840 125.412  0.00  0.00    -0.251 OA
ENDBRANCH  36  37
ENDBRANCH   4  36
TORSDOF 12
ENDMDL
MODEL 7
REMARK VINA RESULT:      -7.3      5.333      8.790
REMARK  Name = NuBBE_1876
REMARK  19 active torsions:
REMARK  status: ('A' for Active; 'I' for Inactive)
REMARK    1  A    between atoms: C_4  and  O_36
REMARK    2  A    between atoms: C_5  and  O_6
REMARK    3  A    between atoms: O_6  and  C_7
REMARK    4  A    between atoms: C_7  and  C_8
REMARK    5  A    between atoms: C_10  and  O_34
REMARK    6  A    between atoms: C_14  and  C_15
REMARK    7  A    between atoms: C_18  and  O_29
REMARK    8  A    between atoms: C_19  and  O_20
REMARK    9  A    between atoms: O_20  and  C_21
REMARK   10  A    between atoms: C_21  and  C_22
REMARK   11  A    between atoms: C_24  and  O_25
REMARK   12  A    between atoms: O_25  and  C_26
REMARK   13  A    between atoms: C_26  and  C_27
REMARK   14  A    between atoms: O_29  and  C_30
REMARK   15  A    between atoms: C_31  and  O_32
REMARK   16  A    between atoms: O_32  and  C_33
REMARK   17  A    between atoms: O_34  and  C_35
REMARK   18  A    between atoms: O_36  and  C_37
REMARK   19  A    between atoms: C_37  and  C_38
REMARK                            x       y       z     vdW  Elec       q    Type
REMARK                         _______ _______ _______ _____ _____    ______ ____
ROOT
ATOM      1  O   LIG A   1      -6.191   0.950 128.330  0.00  0.00    -0.283 OA
ATOM      2  C   LIG A   1      -6.715  -0.112 128.636  0.00  0.00    +0.238 A 
ATOM      3  C   LIG A   1      -7.635  -0.792 127.706  0.00  0.00    +0.114 A 
ATOM      4  C   LIG A   1      -8.299  -0.109 126.688  0.00  0.00    +0.192 A 
ATOM      5  C   LIG A   1      -9.080  -0.805 125.759  0.00  0.00    +0.216 A 
ATOM      6  C   LIG A   1      -9.204  -2.202 125.855  0.00  0.00    +0.169 A 
ATOM      7  C   LIG A   1      -8.605  -2.867 126.933  0.00  0.00    +0.096 A 
ATOM      8  C   LIG A   1      -7.857  -2.150 127.869  0.00  0.00    +0.147 A 
ATOM      9  O   LIG A   1      -7.427  -2.831 128.976  0.00  0.00    -0.451 OA
ATOM     10  C   LIG A   1      -6.844  -2.096 130.001  0.00  0.00    +0.184 A 
ATOM     11  C   LIG A   1      -6.472  -0.803 129.933  0.00  0.00    +0.211 A 
ENDROOT
BRANCH  10  12
ATOM     12  C   LIG A   1      -6.609  -2.898 131.188  0.00  0.00    +0.067 A 
ATOM     13  C   LIG A   1      -7.493  -2.655 132.252  0.00  0.00    +0.019 A 
ATOM     14  C   LIG A   1      -7.384  -3.337 133.460  0.00  0.00    +0.050 A 
ATOM     15  C   LIG A   1      -6.372  -4.282 133.644  0.00  0.00    +0.166 A 
ATOM     16  C   LIG A   1      -5.442  -4.497 132.600  0.00  0.00    +0.216 A 
ATOM     17  C   LIG A   1      -5.594  -3.850 131.348  0.00  0.00    +0.188 A 
BRANCH  15  18
ATOM     18  O   LIG A   1      -6.244  -4.994 134.812  0.00  0.00    -0.491 OA
ATOM     19  C   LIG A   1      -7.446  -5.106 135.584  0.00  0.00    +0.277 C 
ENDBRANCH  15  18
BRANCH  16  20
ATOM     20  O   LIG A   1      -4.449  -5.487 132.799  0.00  0.00    -0.418 OA
BRANCH  20  21
ATOM     21  C   LIG A   1      -3.253  -5.141 133.425  0.00  0.00    +0.309 C 
ATOM     22  C   LIG A   1      -2.696  -6.356 134.115  0.00  0.00    +0.136 C 
ATOM     23  O   LIG A   1      -2.664  -4.069 133.364  0.00  0.00    -0.251 OA
ENDBRANCH  20  21
ENDBRANCH  16  20
BRANCH  17  24
ATOM     24  O   LIG A   1      -4.672  -4.204 130.309  0.00  0.00    -0.421 OA
BRANCH  24  25
ATOM     25  C   LIG A   1      -3.548  -3.578 129.748  0.00  0.00    +0.309 C 
ATOM     26  C   LIG A   1      -3.218  -2.343 130.509  0.00  0.00    +0.136 C 
ATOM     27  O   LIG A   1      -2.843  -3.946 128.820  0.00  0.00    -0.251 OA
ENDBRANCH  24  25
ENDBRANCH  17  24
ENDBRANCH  10  12
BRANCH  11  28
ATOM     28  O   LIG A   1      -5.759  -0.215 130.974  0.00  0.00    -0.488 OA
ATOM     29  C   LIG A   1      -6.439   0.816 131.677  0.00  0.00    +0.277 C 
ENDBRANCH  11  28
BRANCH   6  30
ATOM     30  O   LIG A   1      -9.851  -2.871 124.851  0.00  0.00    -0.491 OA
ATOM     31  C   LIG A   1      -9.008  -3.622 123.979  0.00  0.00    +0.277 C 
ENDBRANCH   6  30
BRANCH   5  32
ATOM     32  O   LIG A   1      -9.592  -0.071 124.668  0.00  0.00    -0.418 OA
BRANCH  32  33
ATOM     33  C   LIG A   1      -8.985   0.003 123.411  0.00  0.00    +0.309 C 
ATOM     34  C   LIG A   1     -10.004   0.559 122.453  0.00  0.00    +0.136 C 
ATOM     35  O   LIG A   1      -7.862  -0.366 123.114  0.00  0.00    -0.251 OA
ENDBRANCH  32  33
ENDBRANCH   5  32
BRANCH   4  36
ATOM     36  O   LIG A   1      -8.435   1.289 126.878  0.00  0.00    -0.421 OA
BRANCH  36  37
ATOM     37  C   LIG A   1      -8.205   2.282 125.932  0.00  0.00    +0.309 C 
ATOM     38  C   LIG A   1      -6.769   2.147 125.516  0.00  0.00    +0.136 C 
ATOM     39  O   LIG A   1      -9.012   3.117 125.531  0.00  0.00    -0.251 OA
ENDBRANCH  36  37
ENDBRANCH   4  36
TORSDOF 12
ENDMDL
MODEL 8
REMARK VINA RESULT:      -7.3      1.957      8.658
REMARK  Name = NuBBE_1876
REMARK  19 active torsions:
REMARK  status: ('A' for Active; 'I' for Inactive)
REMARK    1  A    between atoms: C_4  and  O_36
REMARK    2  A    between atoms: C_5  and  O_6
REMARK    3  A    between atoms: O_6  and  C_7
REMARK    4  A    between atoms: C_7  and  C_8
REMARK    5  A    between atoms: C_10  and  O_34
REMARK    6  A    between atoms: C_14  and  C_15
REMARK    7  A    between atoms: C_18  and  O_29
REMARK    8  A    between atoms: C_19  and  O_20
REMARK    9  A    between atoms: O_20  and  C_21
REMARK   10  A    between atoms: C_21  and  C_22
REMARK   11  A    between atoms: C_24  and  O_25
REMARK   12  A    between atoms: O_25  and  C_26
REMARK   13  A    between atoms: C_26  and  C_27
REMARK   14  A    between atoms: O_29  and  C_30
REMARK   15  A    between atoms: C_31  and  O_32
REMARK   16  A    between atoms: O_32  and  C_33
REMARK   17  A    between atoms: O_34  and  C_35
REMARK   18  A    between atoms: O_36  and  C_37
REMARK   19  A    between atoms: C_37  and  C_38
REMARK                            x       y       z     vdW  Elec       q    Type
REMARK                         _______ _______ _______ _____ _____    ______ ____
ROOT
ATOM      1  O   LIG A   1      -6.756   2.552 124.513  0.00  0.00    -0.283 OA
ATOM      2  C   LIG A   1      -7.136   2.299 125.647  0.00  0.00    +0.238 A 
ATOM      3  C   LIG A   1      -7.476   0.918 126.036  0.00  0.00    +0.114 A 
ATOM      4  C   LIG A   1      -7.825  -0.052 125.096  0.00  0.00    +0.192 A 
ATOM      5  C   LIG A   1      -8.037  -1.377 125.490  0.00  0.00    +0.216 A 
ATOM      6  C   LIG A   1      -7.909  -1.735 126.844  0.00  0.00    +0.169 A 
ATOM      7  C   LIG A   1      -7.646  -0.736 127.790  0.00  0.00    +0.096 A 
ATOM      8  C   LIG A   1      -7.469   0.588 127.381  0.00  0.00    +0.147 A 
ATOM      9  O   LIG A   1      -7.367   1.535 128.364  0.00  0.00    -0.451 OA
ATOM     10  C   LIG A   1      -7.378   2.869 127.978  0.00  0.00    +0.184 A 
ATOM     11  C   LIG A   1      -7.273   3.328 126.716  0.00  0.00    +0.211 A 
ENDROOT
BRANCH  10  12
ATOM     12  C   LIG A   1      -7.459   3.770 129.114  0.00  0.00    +0.067 A 
ATOM     13  C   LIG A   1      -8.757   4.001 129.597  0.00  0.00    +0.019 A 
ATOM     14  C   LIG A   1      -8.994   4.852 130.672  0.00  0.00    +0.050 A 
ATOM     15  C   LIG A   1      -7.930   5.510 131.293  0.00  0.00    +0.166 A 
ATOM     16  C   LIG A   1      -6.624   5.328 130.783  0.00  0.00    +0.216 A 
ATOM     17  C   LIG A   1      -6.377   4.411 129.732  0.00  0.00    +0.188 A 
BRANCH  15  18
ATOM     18  O   LIG A   1      -8.119   6.340 132.373  0.00  0.00    -0.491 OA
ATOM     19  C   LIG A   1      -8.576   5.686 133.563  0.00  0.00    +0.277 C 
ENDBRANCH  15  18
BRANCH  16  20
ATOM     20  O   LIG A   1      -5.561   5.978 131.456  0.00  0.00    -0.418 OA
BRANCH  20  21
ATOM     21  C   LIG A   1      -5.031   7.153 130.927  0.00  0.00    +0.309 C 
ATOM     22  C   LIG A   1      -3.599   7.284 131.368  0.00  0.00    +0.136 C 
ATOM     23  O   LIG A   1      -5.571   7.927 130.145  0.00  0.00    -0.251 OA
ENDBRANCH  20  21
ENDBRANCH  16  20
BRANCH  17  24
ATOM     24  O   LIG A   1      -5.011   4.206 129.345  0.00  0.00    -0.421 OA
BRANCH  24  25
ATOM     25  C   LIG A   1      -4.173   4.786 128.380  0.00  0.00    +0.309 C 
ATOM     26  C   LIG A   1      -2.972   3.934 128.169  0.00  0.00    +0.136 C 
ATOM     27  O   LIG A   1      -4.347   5.796 127.714  0.00  0.00    -0.251 OA
ENDBRANCH  24  25
ENDBRANCH  17  24
ENDBRANCH  10  12
BRANCH  11  28
ATOM     28  O   LIG A   1      -7.142   4.691 126.465  0.00  0.00    -0.488 OA
ATOM     29  C   LIG A   1      -8.270   5.314 125.866  0.00  0.00    +0.277 C 
ENDBRANCH  11  28
BRANCH   6  30
ATOM     30  O   LIG A   1      -7.977  -3.061 127.178  0.00  0.00    -0.491 OA
ATOM     31  C   LIG A   1      -8.106  -3.331 128.574  0.00  0.00    +0.277 C 
ENDBRANCH   6  30
BRANCH   5  32
ATOM     32  O   LIG A   1      -8.230  -2.332 124.468  0.00  0.00    -0.418 OA
BRANCH  32  33
ATOM     33  C   LIG A   1      -7.293  -2.624 123.474  0.00  0.00    +0.309 C 
ATOM     34  C   LIG A   1      -6.193  -3.427 124.116  0.00  0.00    +0.136 C 
ATOM     35  O   LIG A   1      -7.313  -2.254 122.312  0.00  0.00    -0.251 OA
ENDBRANCH  32  33
ENDBRANCH   5  32
BRANCH   4  36
ATOM     36  O   LIG A   1      -8.297   0.442 123.854  0.00  0.00    -0.421 OA
BRANCH  36  37
ATOM     37  C   LIG A   1      -9.609   0.418 123.395  0.00  0.00    +0.309 C 
ATOM     38  C   LIG A   1     -10.326   1.532 124.099  0.00  0.00    +0.136 C 
ATOM     39  O   LIG A   1     -10.091  -0.373 122.587  0.00  0.00    -0.251 OA
ENDBRANCH  36  37
ENDBRANCH   4  36
TORSDOF 12
ENDMDL
MODEL 9
REMARK VINA RESULT:      -7.3      2.892      8.395
REMARK  Name = NuBBE_1876
REMARK  19 active torsions:
REMARK  status: ('A' for Active; 'I' for Inactive)
REMARK    1  A    between atoms: C_4  and  O_36
REMARK    2  A    between atoms: C_5  and  O_6
REMARK    3  A    between atoms: O_6  and  C_7
REMARK    4  A    between atoms: C_7  and  C_8
REMARK    5  A    between atoms: C_10  and  O_34
REMARK    6  A    between atoms: C_14  and  C_15
REMARK    7  A    between atoms: C_18  and  O_29
REMARK    8  A    between atoms: C_19  and  O_20
REMARK    9  A    between atoms: O_20  and  C_21
REMARK   10  A    between atoms: C_21  and  C_22
REMARK   11  A    between atoms: C_24  and  O_25
REMARK   12  A    between atoms: O_25  and  C_26
REMARK   13  A    between atoms: C_26  and  C_27
REMARK   14  A    between atoms: O_29  and  C_30
REMARK   15  A    between atoms: C_31  and  O_32
REMARK   16  A    between atoms: O_32  and  C_33
REMARK   17  A    between atoms: O_34  and  C_35
REMARK   18  A    between atoms: O_36  and  C_37
REMARK   19  A    between atoms: C_37  and  C_38
REMARK                            x       y       z     vdW  Elec       q    Type
REMARK                         _______ _______ _______ _____ _____    ______ ____
ROOT
ATOM      1  O   LIG A   1      -5.904  -2.458 128.558  0.00  0.00    -0.283 OA
ATOM      2  C   LIG A   1      -6.064  -1.252 128.428  0.00  0.00    +0.238 A 
ATOM      3  C   LIG A   1      -7.129  -0.725 127.555  0.00  0.00    +0.114 A 
ATOM      4  C   LIG A   1      -7.682  -1.481 126.521  0.00  0.00    +0.192 A 
ATOM      5  C   LIG A   1      -8.762  -0.988 125.782  0.00  0.00    +0.216 A 
ATOM      6  C   LIG A   1      -9.290   0.281 126.074  0.00  0.00    +0.169 A 
ATOM      7  C   LIG A   1      -8.671   1.068 127.055  0.00  0.00    +0.096 A 
ATOM      8  C   LIG A   1      -7.572   0.571 127.759  0.00  0.00    +0.147 A 
ATOM      9  O   LIG A   1      -6.921   1.442 128.592  0.00  0.00    -0.451 OA
ATOM     10  C   LIG A   1      -5.724   1.022 129.156  0.00  0.00    +0.184 A 
ATOM     11  C   LIG A   1      -5.235  -0.233 129.130  0.00  0.00    +0.211 A 
ENDROOT
BRANCH  10  12
ATOM     12  C   LIG A   1      -5.040   2.094 129.857  0.00  0.00    +0.067 A 
ATOM     13  C   LIG A   1      -5.295   2.159 131.236  0.00  0.00    +0.019 A 
ATOM     14  C   LIG A   1      -4.722   3.142 132.037  0.00  0.00    +0.050 A 
ATOM     15  C   LIG A   1      -3.877   4.102 131.475  0.00  0.00    +0.166 A 
ATOM     16  C   LIG A   1      -3.654   4.080 130.079  0.00  0.00    +0.216 A 
ATOM     17  C   LIG A   1      -4.186   3.040 129.275  0.00  0.00    +0.188 A 
BRANCH  15  18
ATOM     18  O   LIG A   1      -3.272   5.074 132.235  0.00  0.00    -0.491 OA
ATOM     19  C   LIG A   1      -2.048   4.673 132.863  0.00  0.00    +0.277 C 
ENDBRANCH  15  18
BRANCH  16  20
ATOM     20  O   LIG A   1      -2.764   5.042 129.541  0.00  0.00    -0.418 OA
BRANCH  20  21
ATOM     21  C   LIG A   1      -3.273   6.231 129.023  0.00  0.00    +0.309 C 
ATOM     22  C   LIG A   1      -2.219   6.878 128.166  0.00  0.00    +0.136 C 
ATOM     23  O   LIG A   1      -4.413   6.665 129.135  0.00  0.00    -0.251 OA
ENDBRANCH  20  21
ENDBRANCH  16  20
BRANCH  17  24
ATOM     24  O   LIG A   1      -3.825   3.032 127.887  0.00  0.00    -0.421 OA
BRANCH  24  25
ATOM     25  C   LIG A   1      -4.555   3.060 126.689  0.00  0.00    +0.309 C 
ATOM     26  C   LIG A   1      -4.908   4.462 126.339  0.00  0.00    +0.136 C 
ATOM     27  O   LIG A   1      -4.850   2.137 125.944  0.00  0.00    -0.251 OA
ENDBRANCH  24  25
ENDBRANCH  17  24
ENDBRANCH  10  12
BRANCH  11  28
ATOM     28  O   LIG A   1      -4.098  -0.566 129.861  0.00  0.00    -0.488 OA
ATOM     29  C   LIG A   1      -4.331  -1.287 131.063  0.00  0.00    +0.277 C 
ENDBRANCH  11  28
BRANCH   6  30
ATOM     30  O   LIG A   1     -10.436   0.675 125.436  0.00  0.00    -0.491 OA
ATOM     31  C   LIG A   1     -10.238   1.462 124.262  0.00  0.00    +0.277 C 
ENDBRANCH   6  30
BRANCH   5  32
ATOM     32  O   LIG A   1      -9.369  -1.869 124.862  0.00  0.00    -0.418 OA
BRANCH  32  33
ATOM     33  C   LIG A   1      -9.023  -1.963 123.511  0.00  0.00    +0.309 C 
ATOM     34  C   LIG A   1      -9.559  -3.274 123.001  0.00  0.00    +0.136 C 
ATOM     35  O   LIG A   1      -8.358  -1.171 122.865  0.00  0.00    -0.251 OA
ENDBRANCH  32  33
ENDBRANCH   5  32
BRANCH   4  36
ATOM     36  O   LIG A   1      -6.879  -2.549 126.048  0.00  0.00    -0.421 OA
BRANCH  36  37
ATOM     37  C   LIG A   1      -5.903  -2.481 125.059  0.00  0.00    +0.309 C 
ATOM     38  C   LIG A   1      -5.990  -3.765 124.288  0.00  0.00    +0.136 C 
ATOM     39  O   LIG A   1      -5.113  -1.559 124.868  0.00  0.00    -0.251 OA
ENDBRANCH  36  37
ENDBRANCH   4  36
TORSDOF 12
ENDMDL
