MODEL 1
REMARK VINA RESULT:      -7.7      0.000      0.000
REMARK  Name = NuBBE_1450
REMARK  8 active torsions:
REMARK  status: ('A' for Active; 'I' for Inactive)
REMARK    1  A    between atoms: C_5  and  O_6
REMARK    2  A    between atoms: C_11  and  C_12
REMARK    3  A    between atoms: C_12  and  C_13
REMARK    4  A    between atoms: C_13  and  O_14
REMARK    5  A    between atoms: C_25  and  O_26
REMARK    6  A    between atoms: O_26  and  C_27
REMARK    7  A    between atoms: C_28  and  O_29
REMARK    8  A    between atoms: O_29  and  C_30
REMARK                            x       y       z     vdW  Elec       q    Type
REMARK                         _______ _______ _______ _____ _____    ______ ____
ROOT
ATOM      1  C   LIG A   1      -5.454   3.118 127.307  0.00  0.00    +0.138 C 
ATOM      2  C   LIG A   1      -6.650   3.363 126.405  0.00  0.00    +0.181 C 
ATOM      3  C   LIG A   1      -7.482   2.202 126.038  0.00  0.00    +0.102 A 
ATOM      4  C   LIG A   1      -8.671   2.343 125.299  0.00  0.00    +0.134 A 
ATOM      5  C   LIG A   1      -9.463   1.235 124.990  0.00  0.00    +0.092 A 
ATOM      6  C   LIG A   1      -9.034  -0.005 125.420  0.00  0.00    +0.132 A 
ATOM      7  C   LIG A   1      -7.858  -0.163 126.130  0.00  0.00    +0.041 A 
ATOM      8  C   LIG A   1      -7.685  -1.586 126.505  0.00  0.00    +0.091 C 
ATOM      9  C   LIG A   1      -8.830  -2.228 125.695  0.00  0.00    +0.206 C 
ATOM     10  O   LIG A   1      -9.702  -1.177 125.185  0.00  0.00    -0.484 OA
ATOM     11  C   LIG A   1      -7.070   0.928 126.447  0.00  0.00    +0.142 A 
ATOM     12  O   LIG A   1      -5.923   0.691 127.142  0.00  0.00    -0.483 OA
ATOM     13  C   LIG A   1      -5.575   1.767 128.018  0.00  0.00    +0.226 C 
ATOM     14  C   LIG A   1      -6.494   1.783 129.262  0.00  0.00    +0.274 C 
ATOM     15  O   LIG A   1      -7.081   3.053 129.563  0.00  0.00    -0.488 OA
ATOM     16  C   LIG A   1      -6.154   4.054 129.493  0.00  0.00    +0.128 A 
ATOM     17  C   LIG A   1      -5.313   4.159 128.389  0.00  0.00    +0.012 A 
ATOM     18  C   LIG A   1      -4.383   5.200 128.357  0.00  0.00    +0.057 A 
ATOM     19  C   LIG A   1      -4.272   6.106 129.433  0.00  0.00    +0.162 A 
ATOM     20  C   LIG A   1      -5.119   5.964 130.550  0.00  0.00    +0.165 A 
ATOM     21  C   LIG A   1      -6.090   4.956 130.544  0.00  0.00    +0.095 A 
ATOM     22  O   LIG A   1      -6.931   4.469 125.925  0.00  0.00    -0.291 OA
ENDROOT
BRANCH   4  23
ATOM     23  O   LIG A   1      -9.116   3.558 124.841  0.00  0.00    -0.506 OA
ATOM     24  H   LIG A   1     -10.099   3.562 124.883  0.00  0.00    +0.292 HD
ENDBRANCH   4  23
BRANCH   9  25
ATOM     25  C   LIG A   1      -8.351  -3.086 124.532  0.00  0.00    -0.011 C 
ATOM     26  C   LIG A   1      -7.315  -3.941 124.632  0.00  0.00    +0.013 C 
BRANCH  25  27
ATOM     27  C   LIG A   1      -9.093  -2.918 123.237  0.00  0.00    +0.189 C 
BRANCH  27  28
ATOM     28  O   LIG A   1     -10.339  -3.592 123.332  0.00  0.00    -0.391 OA
ATOM     29  H   LIG A   1     -10.315  -4.108 124.156  0.00  0.00    +0.210 HD
ENDBRANCH  27  28
ENDBRANCH  25  27
ENDBRANCH   9  25
BRANCH  19  30
ATOM     30  O   LIG A   1      -3.282   7.034 129.228  0.00  0.00    -0.491 OA
ATOM     31  C   LIG A   1      -2.291   6.769 128.245  0.00  0.00    +0.277 C 
ENDBRANCH  19  30
BRANCH  20  32
ATOM     32  O   LIG A   1      -4.996   6.826 131.610  0.00  0.00    -0.491 OA
ATOM     33  C   LIG A   1      -4.129   6.409 132.661  0.00  0.00    +0.277 C 
ENDBRANCH  20  32
TORSDOF 6
ENDMDL
MODEL 2
REMARK VINA RESULT:      -7.5      4.498      6.938
REMARK  Name = NuBBE_1450
REMARK  8 active torsions:
REMARK  status: ('A' for Active; 'I' for Inactive)
REMARK    1  A    between atoms: C_5  and  O_6
REMARK    2  A    between atoms: C_11  and  C_12
REMARK    3  A    between atoms: C_12  and  C_13
REMARK    4  A    between atoms: C_13  and  O_14
REMARK    5  A    between atoms: C_25  and  O_26
REMARK    6  A    between atoms: O_26  and  C_27
REMARK    7  A    between atoms: C_28  and  O_29
REMARK    8  A    between atoms: O_29  and  C_30
REMARK                            x       y       z     vdW  Elec       q    Type
REMARK                         _______ _______ _______ _____ _____    ______ ____
ROOT
ATOM      1  C   LIG A   1      -7.599  -1.846 129.141  0.00  0.00    +0.138 C 
ATOM      2  C   LIG A   1      -7.995  -2.728 127.971  0.00  0.00    +0.181 C 
ATOM      3  C   LIG A   1      -7.971  -2.130 126.623  0.00  0.00    +0.102 A 
ATOM      4  C   LIG A   1      -8.215  -2.894 125.467  0.00  0.00    +0.134 A 
ATOM      5  C   LIG A   1      -8.156  -2.317 124.196  0.00  0.00    +0.092 A 
ATOM      6  C   LIG A   1      -7.866  -0.970 124.112  0.00  0.00    +0.132 A 
ATOM      7  C   LIG A   1      -7.643  -0.201 125.240  0.00  0.00    +0.041 A 
ATOM      8  C   LIG A   1      -7.301   1.185 124.845  0.00  0.00    +0.091 C 
ATOM      9  C   LIG A   1      -7.592   1.122 123.331  0.00  0.00    +0.206 C 
ATOM     10  O   LIG A   1      -7.782  -0.270 122.939  0.00  0.00    -0.484 OA
ATOM     11  C   LIG A   1      -7.693  -0.763 126.502  0.00  0.00    +0.142 A 
ATOM     12  O   LIG A   1      -7.471   0.059 127.564  0.00  0.00    -0.483 OA
ATOM     13  C   LIG A   1      -6.837  -0.609 128.659  0.00  0.00    +0.226 C 
ATOM     14  C   LIG A   1      -5.341  -0.860 128.357  0.00  0.00    +0.274 C 
ATOM     15  O   LIG A   1      -4.896  -2.202 128.583  0.00  0.00    -0.488 OA
ATOM     16  C   LIG A   1      -5.352  -2.678 129.781  0.00  0.00    +0.128 A 
ATOM     17  C   LIG A   1      -6.695  -2.548 130.124  0.00  0.00    +0.012 A 
ATOM     18  C   LIG A   1      -7.118  -3.052 131.355  0.00  0.00    +0.057 A 
ATOM     19  C   LIG A   1      -6.204  -3.650 132.247  0.00  0.00    +0.162 A 
ATOM     20  C   LIG A   1      -4.845  -3.747 131.886  0.00  0.00    +0.165 A 
ATOM     21  C   LIG A   1      -4.442  -3.295 130.624  0.00  0.00    +0.095 A 
ATOM     22  O   LIG A   1      -8.381  -3.898 128.094  0.00  0.00    -0.291 OA
ENDROOT
BRANCH   4  23
ATOM     23  O   LIG A   1      -8.524  -4.231 125.516  0.00  0.00    -0.506 OA
ATOM     24  H   LIG A   1      -8.845  -4.438 126.423  0.00  0.00    +0.292 HD
ENDBRANCH   4  23
BRANCH   9  25
ATOM     25  C   LIG A   1      -8.813   1.929 122.908  0.00  0.00    -0.011 C 
ATOM     26  C   LIG A   1      -8.727   3.046 122.160  0.00  0.00    +0.013 C 
BRANCH  25  27
ATOM     27  C   LIG A   1     -10.141   1.420 123.389  0.00  0.00    +0.189 C 
BRANCH  27  28
ATOM     28  O   LIG A   1     -10.605   0.428 122.485  0.00  0.00    -0.391 OA
ATOM     29  H   LIG A   1     -11.569   0.376 122.600  0.00  0.00    +0.210 HD
ENDBRANCH  27  28
ENDBRANCH  25  27
ENDBRANCH   9  25
BRANCH  19  30
ATOM     30  O   LIG A   1      -6.805  -4.051 133.413  0.00  0.00    -0.491 OA
ATOM     31  C   LIG A   1      -7.913  -3.309 133.901  0.00  0.00    +0.277 C 
ENDBRANCH  19  30
BRANCH  20  32
ATOM     32  O   LIG A   1      -3.947  -4.301 132.762  0.00  0.00    -0.491 OA
ATOM     33  C   LIG A   1      -3.332  -3.405 133.684  0.00  0.00    +0.277 C 
ENDBRANCH  20  32
TORSDOF 6
ENDMDL
MODEL 3
REMARK VINA RESULT:      -7.3      1.622      8.611
REMARK  Name = NuBBE_1450
REMARK  8 active torsions:
REMARK  status: ('A' for Active; 'I' for Inactive)
REMARK    1  A    between atoms: C_5  and  O_6
REMARK    2  A    between atoms: C_11  and  C_12
REMARK    3  A    between atoms: C_12  and  C_13
REMARK    4  A    between atoms: C_13  and  O_14
REMARK    5  A    between atoms: C_25  and  O_26
REMARK    6  A    between atoms: O_26  and  C_27
REMARK    7  A    between atoms: C_28  and  O_29
REMARK    8  A    between atoms: O_29  and  C_30
REMARK                            x       y       z     vdW  Elec       q    Type
REMARK                         _______ _______ _______ _____ _____    ______ ____
ROOT
ATOM      1  C   LIG A   1      -7.415   3.229 126.622  0.00  0.00    +0.138 C 
ATOM      2  C   LIG A   1      -5.947   3.345 126.250  0.00  0.00    +0.181 C 
ATOM      3  C   LIG A   1      -5.035   3.951 127.239  0.00  0.00    +0.102 A 
ATOM      4  C   LIG A   1      -3.644   4.002 127.033  0.00  0.00    +0.134 A 
ATOM      5  C   LIG A   1      -2.794   4.550 127.996  0.00  0.00    +0.092 A 
ATOM      6  C   LIG A   1      -3.363   5.054 129.149  0.00  0.00    +0.132 A 
ATOM      7  C   LIG A   1      -4.730   5.029 129.357  0.00  0.00    +0.041 A 
ATOM      8  C   LIG A   1      -5.045   5.580 130.696  0.00  0.00    +0.091 C 
ATOM      9  C   LIG A   1      -3.661   6.127 131.104  0.00  0.00    +0.206 C 
ATOM     10  O   LIG A   1      -2.656   5.625 130.173  0.00  0.00    -0.484 OA
ATOM     11  C   LIG A   1      -5.580   4.483 128.414  0.00  0.00    +0.142 A 
ATOM     12  O   LIG A   1      -6.914   4.501 128.687  0.00  0.00    -0.483 OA
ATOM     13  C   LIG A   1      -7.609   3.380 128.133  0.00  0.00    +0.226 C 
ATOM     14  C   LIG A   1      -7.315   2.097 128.944  0.00  0.00    +0.274 C 
ATOM     15  O   LIG A   1      -6.918   0.966 128.161  0.00  0.00    -0.488 OA
ATOM     16  C   LIG A   1      -7.727   0.811 127.071  0.00  0.00    +0.128 A 
ATOM     17  C   LIG A   1      -8.011   1.896 126.246  0.00  0.00    +0.012 A 
ATOM     18  C   LIG A   1      -8.839   1.692 125.140  0.00  0.00    +0.057 A 
ATOM     19  C   LIG A   1      -9.404   0.426 124.881  0.00  0.00    +0.162 A 
ATOM     20  C   LIG A   1      -9.121  -0.650 125.745  0.00  0.00    +0.165 A 
ATOM     21  C   LIG A   1      -8.240  -0.451 126.815  0.00  0.00    +0.095 A 
ATOM     22  O   LIG A   1      -5.489   3.006 125.152  0.00  0.00    -0.291 OA
ENDROOT
BRANCH   4  23
ATOM     23  O   LIG A   1      -3.049   3.528 125.892  0.00  0.00    -0.506 OA
ATOM     24  H   LIG A   1      -3.237   2.564 125.825  0.00  0.00    +0.292 HD
ENDBRANCH   4  23
BRANCH   9  25
ATOM     25  C   LIG A   1      -3.589   7.648 131.142  0.00  0.00    -0.011 C 
ATOM     26  C   LIG A   1      -2.773   8.320 131.975  0.00  0.00    +0.013 C 
BRANCH  25  27
ATOM     27  C   LIG A   1      -4.503   8.376 130.199  0.00  0.00    +0.189 C 
BRANCH  27  28
ATOM     28  O   LIG A   1      -3.926   8.365 128.902  0.00  0.00    -0.391 OA
ATOM     29  H   LIG A   1      -3.820   9.295 128.636  0.00  0.00    +0.210 HD
ENDBRANCH  27  28
ENDBRANCH  25  27
ENDBRANCH   9  25
BRANCH  19  30
ATOM     30  O   LIG A   1     -10.211   0.437 123.772  0.00  0.00    -0.491 OA
ATOM     31  C   LIG A   1      -9.837   1.242 122.663  0.00  0.00    +0.277 C 
ENDBRANCH  19  30
BRANCH  20  32
ATOM     32  O   LIG A   1      -9.691  -1.876 125.513  0.00  0.00    -0.491 OA
ATOM     33  C   LIG A   1      -8.950  -2.768 124.685  0.00  0.00    +0.277 C 
ENDBRANCH  20  32
TORSDOF 6
ENDMDL
MODEL 4
REMARK VINA RESULT:      -7.2      2.558      8.230
REMARK  Name = NuBBE_1450
REMARK  8 active torsions:
REMARK  status: ('A' for Active; 'I' for Inactive)
REMARK    1  A    between atoms: C_5  and  O_6
REMARK    2  A    between atoms: C_11  and  C_12
REMARK    3  A    between atoms: C_12  and  C_13
REMARK    4  A    between atoms: C_13  and  O_14
REMARK    5  A    between atoms: C_25  and  O_26
REMARK    6  A    between atoms: O_26  and  C_27
REMARK    7  A    between atoms: C_28  and  O_29
REMARK    8  A    between atoms: O_29  and  C_30
REMARK                            x       y       z     vdW  Elec       q    Type
REMARK                         _______ _______ _______ _____ _____    ______ ____
ROOT
ATOM      1  C   LIG A   1      -8.308   0.213 127.292  0.00  0.00    +0.138 C 
ATOM      2  C   LIG A   1      -8.339   1.723 127.142  0.00  0.00    +0.181 C 
ATOM      3  C   LIG A   1      -7.995   2.537 128.323  0.00  0.00    +0.102 A 
ATOM      4  C   LIG A   1      -7.889   3.939 128.254  0.00  0.00    +0.134 A 
ATOM      5  C   LIG A   1      -7.531   4.690 129.375  0.00  0.00    +0.092 A 
ATOM      6  C   LIG A   1      -7.298   4.014 130.557  0.00  0.00    +0.132 A 
ATOM      7  C   LIG A   1      -7.417   2.639 130.646  0.00  0.00    +0.041 A 
ATOM      8  C   LIG A   1      -7.054   2.190 132.010  0.00  0.00    +0.091 C 
ATOM      9  C   LIG A   1      -6.937   3.551 132.729  0.00  0.00    +0.206 C 
ATOM     10  O   LIG A   1      -6.946   4.618 131.735  0.00  0.00    -0.484 OA
ATOM     11  C   LIG A   1      -7.766   1.886 129.541  0.00  0.00    +0.142 A 
ATOM     12  O   LIG A   1      -7.870   0.539 129.708  0.00  0.00    -0.483 OA
ATOM     13  C   LIG A   1      -7.511  -0.195 128.534  0.00  0.00    +0.226 C 
ATOM     14  C   LIG A   1      -5.977  -0.195 128.335  0.00  0.00    +0.274 C 
ATOM     15  O   LIG A   1      -5.539   0.175 127.023  0.00  0.00    -0.488 OA
ATOM     16  C   LIG A   1      -6.266  -0.466 126.060  0.00  0.00    +0.128 A 
ATOM     17  C   LIG A   1      -7.657  -0.479 126.121  0.00  0.00    +0.012 A 
ATOM     18  C   LIG A   1      -8.361  -1.142 125.114  0.00  0.00    +0.057 A 
ATOM     19  C   LIG A   1      -7.681  -1.814 124.076  0.00  0.00    +0.162 A 
ATOM     20  C   LIG A   1      -6.272  -1.806 124.051  0.00  0.00    +0.165 A 
ATOM     21  C   LIG A   1      -5.577  -1.086 125.030  0.00  0.00    +0.095 A 
ATOM     22  O   LIG A   1      -8.684   2.302 126.103  0.00  0.00    -0.291 OA
ENDROOT
BRANCH   4  23
ATOM     23  O   LIG A   1      -8.132   4.642 127.101  0.00  0.00    -0.506 OA
ATOM     24  H   LIG A   1      -9.104   4.778 127.022  0.00  0.00    +0.292 HD
ENDBRANCH   4  23
BRANCH   9  25
ATOM     25  C   LIG A   1      -8.045   3.805 133.743  0.00  0.00    -0.011 C 
ATOM     26  C   LIG A   1      -7.852   4.513 134.873  0.00  0.00    +0.013 C 
BRANCH  25  27
ATOM     27  C   LIG A   1      -9.383   3.203 133.426  0.00  0.00    +0.189 C 
BRANCH  27  28
ATOM     28  O   LIG A   1     -10.074   4.067 132.535  0.00  0.00    -0.391 OA
ATOM     29  H   LIG A   1      -9.410   4.424 131.922  0.00  0.00    +0.210 HD
ENDBRANCH  27  28
ENDBRANCH  25  27
ENDBRANCH   9  25
BRANCH  19  30
ATOM     30  O   LIG A   1      -8.545  -2.429 123.206  0.00  0.00    -0.491 OA
ATOM     31  C   LIG A   1      -9.474  -3.372 123.718  0.00  0.00    +0.277 C 
ENDBRANCH  19  30
BRANCH  20  32
ATOM     32  O   LIG A   1      -5.607  -2.482 123.060  0.00  0.00    -0.491 OA
ATOM     33  C   LIG A   1      -4.646  -3.443 123.489  0.00  0.00    +0.277 C 
ENDBRANCH  20  32
TORSDOF 6
ENDMDL
MODEL 5
REMARK VINA RESULT:      -7.1      1.363      1.508
REMARK  Name = NuBBE_1450
REMARK  8 active torsions:
REMARK  status: ('A' for Active; 'I' for Inactive)
REMARK    1  A    between atoms: C_5  and  O_6
REMARK    2  A    between atoms: C_11  and  C_12
REMARK    3  A    between atoms: C_12  and  C_13
REMARK    4  A    between atoms: C_13  and  O_14
REMARK    5  A    between atoms: C_25  and  O_26
REMARK    6  A    between atoms: O_26  and  C_27
REMARK    7  A    between atoms: C_28  and  O_29
REMARK    8  A    between atoms: O_29  and  C_30
REMARK                            x       y       z     vdW  Elec       q    Type
REMARK                         _______ _______ _______ _____ _____    ______ ____
ROOT
ATOM      1  C   LIG A   1      -4.950   2.166 127.884  0.00  0.00    +0.138 C 
ATOM      2  C   LIG A   1      -6.149   2.670 127.100  0.00  0.00    +0.181 C 
ATOM      3  C   LIG A   1      -7.132   1.674 126.635  0.00  0.00    +0.102 A 
ATOM      4  C   LIG A   1      -8.329   2.052 125.998  0.00  0.00    +0.134 A 
ATOM      5  C   LIG A   1      -9.263   1.096 125.594  0.00  0.00    +0.092 A 
ATOM      6  C   LIG A   1      -8.969  -0.233 125.827  0.00  0.00    +0.132 A 
ATOM      7  C   LIG A   1      -7.788  -0.622 126.434  0.00  0.00    +0.041 A 
ATOM      8  C   LIG A   1      -7.772  -2.094 126.604  0.00  0.00    +0.091 C 
ATOM      9  C   LIG A   1      -9.023  -2.482 125.790  0.00  0.00    +0.206 C 
ATOM     10  O   LIG A   1      -9.785  -1.277 125.481  0.00  0.00    -0.484 OA
ATOM     11  C   LIG A   1      -6.859   0.316 126.843  0.00  0.00    +0.142 A 
ATOM     12  O   LIG A   1      -5.718  -0.144 127.426  0.00  0.00    -0.483 OA
ATOM     13  C   LIG A   1      -5.201   0.752 128.415  0.00  0.00    +0.226 C 
ATOM     14  C   LIG A   1      -6.052   0.698 129.704  0.00  0.00    +0.274 C 
ATOM     15  O   LIG A   1      -6.466   1.972 130.209  0.00  0.00    -0.488 OA
ATOM     16  C   LIG A   1      -5.428   2.861 130.215  0.00  0.00    +0.128 A 
ATOM     17  C   LIG A   1      -4.633   3.022 129.084  0.00  0.00    +0.012 A 
ATOM     18  C   LIG A   1      -3.586   3.945 129.133  0.00  0.00    +0.057 A 
ATOM     19  C   LIG A   1      -3.315   4.673 130.310  0.00  0.00    +0.162 A 
ATOM     20  C   LIG A   1      -4.120   4.474 131.449  0.00  0.00    +0.165 A 
ATOM     21  C   LIG A   1      -5.206   3.594 131.370  0.00  0.00    +0.095 A 
ATOM     22  O   LIG A   1      -6.315   3.857 126.790  0.00  0.00    -0.291 OA
ENDROOT
BRANCH   4  23
ATOM     23  O   LIG A   1      -8.643   3.362 125.735  0.00  0.00    -0.506 OA
ATOM     24  H   LIG A   1      -8.793   3.453 124.767  0.00  0.00    +0.292 HD
ENDBRANCH   4  23
BRANCH   9  25
ATOM     25  C   LIG A   1      -8.708  -3.218 124.494  0.00  0.00    -0.011 C 
ATOM     26  C   LIG A   1      -9.611  -3.385 123.510  0.00  0.00    +0.013 C 
BRANCH  25  27
ATOM     27  C   LIG A   1      -7.318  -3.773 124.372  0.00  0.00    +0.189 C 
BRANCH  27  28
ATOM     28  O   LIG A   1      -6.548  -2.904 123.554  0.00  0.00    -0.391 OA
ATOM     29  H   LIG A   1      -5.682  -2.809 123.987  0.00  0.00    +0.210 HD
ENDBRANCH  27  28
ENDBRANCH  25  27
ENDBRANCH   9  25
BRANCH  19  30
ATOM     30  O   LIG A   1      -2.231   5.501 130.168  0.00  0.00    -0.491 OA
ATOM     31  C   LIG A   1      -2.186   6.385 129.058  0.00  0.00    +0.277 C 
ENDBRANCH  19  30
BRANCH  20  32
ATOM     32  O   LIG A   1      -3.843   5.159 132.605  0.00  0.00    -0.491 OA
ATOM     33  C   LIG A   1      -4.506   6.410 132.769  0.00  0.00    +0.277 C 
ENDBRANCH  20  32
TORSDOF 6
ENDMDL
MODEL 6
REMARK VINA RESULT:      -7.1      4.370      5.843
REMARK  Name = NuBBE_1450
REMARK  8 active torsions:
REMARK  status: ('A' for Active; 'I' for Inactive)
REMARK    1  A    between atoms: C_5  and  O_6
REMARK    2  A    between atoms: C_11  and  C_12
REMARK    3  A    between atoms: C_12  and  C_13
REMARK    4  A    between atoms: C_13  and  O_14
REMARK    5  A    between atoms: C_25  and  O_26
REMARK    6  A    between atoms: O_26  and  C_27
REMARK    7  A    between atoms: C_28  and  O_29
REMARK    8  A    between atoms: O_29  and  C_30
REMARK                            x       y       z     vdW  Elec       q    Type
REMARK                         _______ _______ _______ _____ _____    ______ ____
ROOT
ATOM      1  C   LIG A   1      -8.169   3.355 129.997  0.00  0.00    +0.138 C 
ATOM      2  C   LIG A   1      -8.203   2.421 128.801  0.00  0.00    +0.181 C 
ATOM      3  C   LIG A   1      -7.981   0.984 129.047  0.00  0.00    +0.102 A 
ATOM      4  C   LIG A   1      -8.102   0.027 128.022  0.00  0.00    +0.134 A 
ATOM      5  C   LIG A   1      -7.920  -1.333 128.282  0.00  0.00    +0.092 A 
ATOM      6  C   LIG A   1      -7.604  -1.707 129.574  0.00  0.00    +0.132 A 
ATOM      7  C   LIG A   1      -7.463  -0.778 130.587  0.00  0.00    +0.041 A 
ATOM      8  C   LIG A   1      -7.181  -1.468 131.867  0.00  0.00    +0.091 C 
ATOM      9  C   LIG A   1      -6.961  -2.909 131.363  0.00  0.00    +0.206 C 
ATOM     10  O   LIG A   1      -7.392  -3.000 129.972  0.00  0.00    -0.484 OA
ATOM     11  C   LIG A   1      -7.646   0.570 130.343  0.00  0.00    +0.142 A 
ATOM     12  O   LIG A   1      -7.482   1.426 131.389  0.00  0.00    -0.483 OA
ATOM     13  C   LIG A   1      -8.330   2.575 131.304  0.00  0.00    +0.226 C 
ATOM     14  C   LIG A   1      -9.792   2.206 131.649  0.00  0.00    +0.274 C 
ATOM     15  O   LIG A   1     -10.768   2.656 130.703  0.00  0.00    -0.488 OA
ATOM     16  C   LIG A   1     -10.548   3.958 130.350  0.00  0.00    +0.128 A 
ATOM     17  C   LIG A   1      -9.276   4.379 129.972  0.00  0.00    +0.012 A 
ATOM     18  C   LIG A   1      -9.097   5.717 129.614  0.00  0.00    +0.057 A 
ATOM     19  C   LIG A   1     -10.171   6.631 129.666  0.00  0.00    +0.162 A 
ATOM     20  C   LIG A   1     -11.443   6.184 130.075  0.00  0.00    +0.165 A 
ATOM     21  C   LIG A   1     -11.626   4.828 130.371  0.00  0.00    +0.095 A 
ATOM     22  O   LIG A   1      -8.355   2.806 127.635  0.00  0.00    -0.291 OA
ENDROOT
BRANCH   4  23
ATOM     23  O   LIG A   1      -8.396   0.367 126.726  0.00  0.00    -0.506 OA
ATOM     24  H   LIG A   1      -9.359   0.561 126.670  0.00  0.00    +0.292 HD
ENDBRANCH   4  23
BRANCH   9  25
ATOM     25  C   LIG A   1      -5.517  -3.382 131.468  0.00  0.00    -0.011 C 
ATOM     26  C   LIG A   1      -5.085  -4.539 130.932  0.00  0.00    +0.013 C 
BRANCH  25  27
ATOM     27  C   LIG A   1      -4.582  -2.485 132.228  0.00  0.00    +0.189 C 
BRANCH  27  28
ATOM     28  O   LIG A   1      -3.251  -2.756 131.816  0.00  0.00    -0.391 OA
ATOM     29  H   LIG A   1      -3.192  -2.501 130.879  0.00  0.00    +0.210 HD
ENDBRANCH  27  28
ENDBRANCH  25  27
ENDBRANCH   9  25
BRANCH  19  30
ATOM     30  O   LIG A   1      -9.788   7.899 129.309  0.00  0.00    -0.491 OA
ATOM     31  C   LIG A   1     -10.391   8.501 128.173  0.00  0.00    +0.277 C 
ENDBRANCH  19  30
BRANCH  20  32
ATOM     32  O   LIG A   1     -12.483   7.076 130.154  0.00  0.00    -0.491 OA
ATOM     33  C   LIG A   1     -12.833   7.519 131.462  0.00  0.00    +0.277 C 
ENDBRANCH  20  32
TORSDOF 6
ENDMDL
MODEL 7
REMARK VINA RESULT:      -7.1      1.882      2.399
REMARK  Name = NuBBE_1450
REMARK  8 active torsions:
REMARK  status: ('A' for Active; 'I' for Inactive)
REMARK    1  A    between atoms: C_5  and  O_6
REMARK    2  A    between atoms: C_11  and  C_12
REMARK    3  A    between atoms: C_12  and  C_13
REMARK    4  A    between atoms: C_13  and  O_14
REMARK    5  A    between atoms: C_25  and  O_26
REMARK    6  A    between atoms: O_26  and  C_27
REMARK    7  A    between atoms: C_28  and  O_29
REMARK    8  A    between atoms: O_29  and  C_30
REMARK                            x       y       z     vdW  Elec       q    Type
REMARK                         _______ _______ _______ _____ _____    ______ ____
ROOT
ATOM      1  C   LIG A   1      -6.849   3.157 128.509  0.00  0.00    +0.138 C 
ATOM      2  C   LIG A   1      -7.442   3.589 127.180  0.00  0.00    +0.181 C 
ATOM      3  C   LIG A   1      -7.985   2.540 126.297  0.00  0.00    +0.102 A 
ATOM      4  C   LIG A   1      -8.652   2.850 125.097  0.00  0.00    +0.134 A 
ATOM      5  C   LIG A   1      -9.188   1.844 124.291  0.00  0.00    +0.092 A 
ATOM      6  C   LIG A   1      -9.029   0.534 124.700  0.00  0.00    +0.132 A 
ATOM      7  C   LIG A   1      -8.358   0.212 125.866  0.00  0.00    +0.041 A 
ATOM      8  C   LIG A   1      -8.394  -1.254 126.078  0.00  0.00    +0.091 C 
ATOM      9  C   LIG A   1      -8.988  -1.715 124.731  0.00  0.00    +0.206 C 
ATOM     10  O   LIG A   1      -9.494  -0.553 124.010  0.00  0.00    -0.484 OA
ATOM     11  C   LIG A   1      -7.829   1.201 126.675  0.00  0.00    +0.142 A 
ATOM     12  O   LIG A   1      -7.176   0.805 127.803  0.00  0.00    -0.483 OA
ATOM     13  C   LIG A   1      -7.307   1.742 128.876  0.00  0.00    +0.226 C 
ATOM     14  C   LIG A   1      -8.721   1.672 129.498  0.00  0.00    +0.274 C 
ATOM     15  O   LIG A   1      -9.379   2.935 129.644  0.00  0.00    -0.488 OA
ATOM     16  C   LIG A   1      -8.538   3.871 130.177  0.00  0.00    +0.128 A 
ATOM     17  C   LIG A   1      -7.261   4.049 129.653  0.00  0.00    +0.012 A 
ATOM     18  C   LIG A   1      -6.437   5.020 130.224  0.00  0.00    +0.057 A 
ATOM     19  C   LIG A   1      -6.872   5.782 131.329  0.00  0.00    +0.162 A 
ATOM     20  C   LIG A   1      -8.161   5.566 131.856  0.00  0.00    +0.165 A 
ATOM     21  C   LIG A   1      -9.002   4.635 131.236  0.00  0.00    +0.095 A 
ATOM     22  O   LIG A   1      -7.448   4.761 126.781  0.00  0.00    -0.291 OA
ENDROOT
BRANCH   4  23
ATOM     23  O   LIG A   1      -8.811   4.138 124.652  0.00  0.00    -0.506 OA
ATOM     24  H   LIG A   1      -7.921   4.551 124.583  0.00  0.00    +0.292 HD
ENDBRANCH   4  23
BRANCH   9  25
ATOM     25  C   LIG A   1      -7.997  -2.459 123.846  0.00  0.00    -0.011 C 
ATOM     26  C   LIG A   1      -7.905  -2.253 122.519  0.00  0.00    +0.013 C 
BRANCH  25  27
ATOM     27  C   LIG A   1      -7.122  -3.465 124.536  0.00  0.00    +0.189 C 
BRANCH  27  28
ATOM     28  O   LIG A   1      -5.768  -3.051 124.418  0.00  0.00    -0.391 OA
ATOM     29  H   LIG A   1      -5.294  -3.430 125.178  0.00  0.00    +0.210 HD
ENDBRANCH  27  28
ENDBRANCH  25  27
ENDBRANCH   9  25
BRANCH  19  30
ATOM     30  O   LIG A   1      -5.910   6.657 131.765  0.00  0.00    -0.491 OA
ATOM     31  C   LIG A   1      -4.892   7.060 130.860  0.00  0.00    +0.277 C 
ENDBRANCH  19  30
BRANCH  20  32
ATOM     32  O   LIG A   1      -8.578   6.284 132.947  0.00  0.00    -0.491 OA
ATOM     33  C   LIG A   1      -8.235   5.748 134.222  0.00  0.00    +0.277 C 
ENDBRANCH  20  32
TORSDOF 6
ENDMDL
MODEL 8
REMARK VINA RESULT:      -6.9      3.450      5.915
REMARK  Name = NuBBE_1450
REMARK  8 active torsions:
REMARK  status: ('A' for Active; 'I' for Inactive)
REMARK    1  A    between atoms: C_5  and  O_6
REMARK    2  A    between atoms: C_11  and  C_12
REMARK    3  A    between atoms: C_12  and  C_13
REMARK    4  A    between atoms: C_13  and  O_14
REMARK    5  A    between atoms: C_25  and  O_26
REMARK    6  A    between atoms: O_26  and  C_27
REMARK    7  A    between atoms: C_28  and  O_29
REMARK    8  A    between atoms: O_29  and  C_30
REMARK                            x       y       z     vdW  Elec       q    Type
REMARK                         _______ _______ _______ _____ _____    ______ ____
ROOT
ATOM      1  C   LIG A   1      -3.987   7.264 130.174  0.00  0.00    +0.138 C 
ATOM      2  C   LIG A   1      -4.963   6.189 130.616  0.00  0.00    +0.181 C 
ATOM      3  C   LIG A   1      -5.365   5.177 129.621  0.00  0.00    +0.102 A 
ATOM      4  C   LIG A   1      -6.177   4.080 129.964  0.00  0.00    +0.134 A 
ATOM      5  C   LIG A   1      -6.521   3.114 129.015  0.00  0.00    +0.092 A 
ATOM      6  C   LIG A   1      -6.051   3.279 127.727  0.00  0.00    +0.132 A 
ATOM      7  C   LIG A   1      -5.269   4.363 127.370  0.00  0.00    +0.041 A 
ATOM      8  C   LIG A   1      -4.868   4.247 125.948  0.00  0.00    +0.091 C 
ATOM      9  C   LIG A   1      -5.739   3.050 125.511  0.00  0.00    +0.206 C 
ATOM     10  O   LIG A   1      -6.313   2.419 126.694  0.00  0.00    -0.484 OA
ATOM     11  C   LIG A   1      -4.918   5.321 128.302  0.00  0.00    +0.142 A 
ATOM     12  O   LIG A   1      -4.152   6.362 127.874  0.00  0.00    -0.483 OA
ATOM     13  C   LIG A   1      -3.269   6.854 128.886  0.00  0.00    +0.226 C 
ATOM     14  C   LIG A   1      -2.084   5.884 129.099  0.00  0.00    +0.274 C 
ATOM     15  O   LIG A   1      -1.833   5.527 130.462  0.00  0.00    -0.488 OA
ATOM     16  C   LIG A   1      -1.858   6.627 131.273  0.00  0.00    +0.128 A 
ATOM     17  C   LIG A   1      -2.910   7.535 131.195  0.00  0.00    +0.012 A 
ATOM     18  C   LIG A   1      -2.898   8.643 132.045  0.00  0.00    +0.057 A 
ATOM     19  C   LIG A   1      -1.828   8.858 132.939  0.00  0.00    +0.162 A 
ATOM     20  C   LIG A   1      -0.763   7.937 132.982  0.00  0.00    +0.165 A 
ATOM     21  C   LIG A   1      -0.816   6.797 132.171  0.00  0.00    +0.095 A 
ATOM     22  O   LIG A   1      -5.471   6.146 131.744  0.00  0.00    -0.291 OA
ENDROOT
BRANCH   4  23
ATOM     23  O   LIG A   1      -6.675   3.896 131.229  0.00  0.00    -0.506 OA
ATOM     24  H   LIG A   1      -7.554   4.336 131.281  0.00  0.00    +0.292 HD
ENDBRANCH   4  23
BRANCH   9  25
ATOM     25  C   LIG A   1      -6.861   3.427 124.553  0.00  0.00    -0.011 C 
ATOM     26  C   LIG A   1      -6.647   3.728 123.258  0.00  0.00    +0.013 C 
BRANCH  25  27
ATOM     27  C   LIG A   1      -8.244   3.463 125.137  0.00  0.00    +0.189 C 
BRANCH  27  28
ATOM     28  O   LIG A   1      -8.616   4.817 125.350  0.00  0.00    -0.391 OA
ATOM     29  H   LIG A   1      -7.845   5.259 125.746  0.00  0.00    +0.210 HD
ENDBRANCH  27  28
ENDBRANCH  25  27
ENDBRANCH   9  25
BRANCH  19  30
ATOM     30  O   LIG A   1      -1.984  10.013 133.662  0.00  0.00    -0.491 OA
ATOM     31  C   LIG A   1      -2.350  11.203 132.979  0.00  0.00    +0.277 C 
ENDBRANCH  19  30
BRANCH  20  32
ATOM     32  O   LIG A   1       0.293   8.157 133.829  0.00  0.00    -0.491 OA
ATOM     33  C   LIG A   1       0.338   7.349 135.002  0.00  0.00    +0.277 C 
ENDBRANCH  20  32
TORSDOF 6
ENDMDL
MODEL 9
REMARK VINA RESULT:      -6.9      1.892      8.915
REMARK  Name = NuBBE_1450
REMARK  8 active torsions:
REMARK  status: ('A' for Active; 'I' for Inactive)
REMARK    1  A    between atoms: C_5  and  O_6
REMARK    2  A    between atoms: C_11  and  C_12
REMARK    3  A    between atoms: C_12  and  C_13
REMARK    4  A    between atoms: C_13  and  O_14
REMARK    5  A    between atoms: C_25  and  O_26
REMARK    6  A    between atoms: O_26  and  C_27
REMARK    7  A    between atoms: C_28  and  O_29
REMARK    8  A    between atoms: O_29  and  C_30
REMARK                            x       y       z     vdW  Elec       q    Type
REMARK                         _______ _______ _______ _____ _____    ______ ____
ROOT
ATOM      1  C   LIG A   1      -6.836   2.841 128.362  0.00  0.00    +0.138 C 
ATOM      2  C   LIG A   1      -7.488   3.838 129.303  0.00  0.00    +0.181 C 
ATOM      3  C   LIG A   1      -6.625   4.861 129.923  0.00  0.00    +0.102 A 
ATOM      4  C   LIG A   1      -7.152   5.894 130.721  0.00  0.00    +0.134 A 
ATOM      5  C   LIG A   1      -6.322   6.872 131.273  0.00  0.00    +0.092 A 
ATOM      6  C   LIG A   1      -4.967   6.785 131.023  0.00  0.00    +0.132 A 
ATOM      7  C   LIG A   1      -4.431   5.766 130.257  0.00  0.00    +0.041 A 
ATOM      8  C   LIG A   1      -2.970   5.960 130.113  0.00  0.00    +0.091 C 
ATOM      9  C   LIG A   1      -2.744   7.118 131.107  0.00  0.00    +0.206 C 
ATOM     10  O   LIG A   1      -4.036   7.667 131.502  0.00  0.00    -0.484 OA
ATOM     11  C   LIG A   1      -5.244   4.796 129.702  0.00  0.00    +0.142 A 
ATOM     12  O   LIG A   1      -4.642   3.820 128.967  0.00  0.00    -0.483 OA
ATOM     13  C   LIG A   1      -5.466   3.344 127.898  0.00  0.00    +0.226 C 
ATOM     14  C   LIG A   1      -5.523   4.375 126.747  0.00  0.00    +0.274 C 
ATOM     15  O   LIG A   1      -6.840   4.693 126.286  0.00  0.00    -0.488 OA
ATOM     16  C   LIG A   1      -7.589   3.563 126.113  0.00  0.00    +0.128 A 
ATOM     17  C   LIG A   1      -7.646   2.597 127.114  0.00  0.00    +0.012 A 
ATOM     18  C   LIG A   1      -8.427   1.460 126.897  0.00  0.00    +0.057 A 
ATOM     19  C   LIG A   1      -9.117   1.276 125.681  0.00  0.00    +0.162 A 
ATOM     20  C   LIG A   1      -9.023   2.257 124.674  0.00  0.00    +0.165 A 
ATOM     21  C   LIG A   1      -8.289   3.422 124.925  0.00  0.00    +0.095 A 
ATOM     22  O   LIG A   1      -8.686   3.806 129.613  0.00  0.00    -0.291 OA
ENDROOT
BRANCH   4  23
ATOM     23  O   LIG A   1      -8.491   5.998 131.004  0.00  0.00    -0.506 OA
ATOM     24  H   LIG A   1      -8.975   6.122 130.156  0.00  0.00    +0.292 HD
ENDBRANCH   4  23
BRANCH   9  25
ATOM     25  C   LIG A   1      -1.972   6.711 132.356  0.00  0.00    -0.011 C 
ATOM     26  C   LIG A   1      -0.941   5.845 132.328  0.00  0.00    +0.013 C 
BRANCH  25  27
ATOM     27  C   LIG A   1      -2.436   7.322 133.647  0.00  0.00    +0.189 C 
BRANCH  27  28
ATOM     28  O   LIG A   1      -3.470   6.514 134.190  0.00  0.00    -0.391 OA
ATOM     29  H   LIG A   1      -4.297   6.798 133.765  0.00  0.00    +0.210 HD
ENDBRANCH  27  28
ENDBRANCH  25  27
ENDBRANCH   9  25
BRANCH  19  30
ATOM     30  O   LIG A   1      -9.800   0.086 125.648  0.00  0.00    -0.491 OA
ATOM     31  C   LIG A   1      -9.107  -1.088 125.251  0.00  0.00    +0.277 C 
ENDBRANCH  19  30
BRANCH  20  32
ATOM     32  O   LIG A   1      -9.669   2.068 123.479  0.00  0.00    -0.491 OA
ATOM     33  C   LIG A   1      -8.986   2.528 122.315  0.00  0.00    +0.277 C 
ENDBRANCH  20  32
TORSDOF 6
ENDMDL
