MODEL 1
REMARK VINA RESULT:      -7.4      0.000      0.000
REMARK  Name = NuBBE_1816
REMARK  9 active torsions:
REMARK  status: ('A' for Active; 'I' for Inactive)
REMARK    1  A    between atoms: O_1  and  C_2
REMARK    2  A    between atoms: C_4  and  O_5
REMARK    3  A    between atoms: O_5  and  C_6
REMARK    4  A    between atoms: C_9  and  C_10
REMARK    5  A    between atoms: C_10  and  C_11
REMARK    6  A    between atoms: C_16  and  O_17
REMARK    7  A    between atoms: O_17  and  C_18
REMARK    8  A    between atoms: C_19  and  O_20
REMARK    9  A    between atoms: O_20  and  C_21
REMARK                            x       y       z     vdW  Elec       q    Type
REMARK                         _______ _______ _______ _____ _____    ______ ____
ROOT
ATOM      1  C   LIG A   1      -9.702   5.555 131.173  0.00  0.00    +0.169 C 
ATOM      2  C   LIG A   1      -8.586   6.090 130.652  0.00  0.00    +0.058 C 
ATOM      3  C   LIG A   1      -7.370   6.178 131.446  0.00  0.00    -0.011 A 
ATOM      4  C   LIG A   1      -7.368   5.629 132.728  0.00  0.00    +0.001 A 
ATOM      5  C   LIG A   1      -6.210   5.716 133.512  0.00  0.00    +0.057 A 
ATOM      6  C   LIG A   1      -5.052   6.335 133.019  0.00  0.00    +0.162 A 
ATOM      7  C   LIG A   1      -5.041   6.835 131.707  0.00  0.00    +0.162 A 
ATOM      8  C   LIG A   1      -6.209   6.768 130.936  0.00  0.00    +0.057 A 
ATOM      9  C   LIG A   1      -8.575   4.859 133.194  0.00  0.00    +0.265 C 
ATOM     10  O   LIG A   1      -9.785   5.024 132.446  0.00  0.00    -0.483 OA
ENDROOT
BRANCH   1  11
ATOM     11  C   LIG A   1     -10.925   5.518 130.310  0.00  0.00    +0.231 C 
ATOM     12  O   LIG A   1     -11.433   4.443 129.937  0.00  0.00    -0.283 OA
BRANCH  11  18
ATOM     13  C   LIG A   1     -11.501   7.338 128.671  0.00  0.00    +0.131 A 
ATOM     14  C   LIG A   1     -12.119   8.551 128.388  0.00  0.00    +0.091 A 
ATOM     15  C   LIG A   1     -12.854   9.231 129.356  0.00  0.00    +0.124 A 
ATOM     16  C   LIG A   1     -13.016   8.650 130.617  0.00  0.00    +0.046 A 
ATOM     17  C   LIG A   1     -12.384   7.432 130.912  0.00  0.00    +0.019 A 
ATOM     18  C   LIG A   1     -11.594   6.786 129.946  0.00  0.00    +0.067 A 
BRANCH  13  19
ATOM     19  O   LIG A   1     -10.849   6.701 127.654  0.00  0.00    -0.506 OA
ATOM     20  H   LIG A   1      -9.947   6.478 127.943  0.00  0.00    +0.292 HD
ENDBRANCH  13  19
BRANCH  15  21
ATOM     21  O   LIG A   1     -13.471  10.432 129.115  0.00  0.00    -0.495 OA
ATOM     22  C   LIG A   1     -13.541  11.305 130.248  0.00  0.00    +0.277 C 
ENDBRANCH  15  21
ENDBRANCH  11  18
ENDBRANCH   1  11
BRANCH   6  23
ATOM     23  O   LIG A   1      -3.995   6.325 133.897  0.00  0.00    -0.491 OA
ATOM     24  C   LIG A   1      -3.484   5.043 134.249  0.00  0.00    +0.277 C 
ENDBRANCH   6  23
BRANCH   7  25
ATOM     25  O   LIG A   1      -3.850   7.252 131.175  0.00  0.00    -0.491 OA
ATOM     26  C   LIG A   1      -3.748   7.220 129.757  0.00  0.00    +0.277 C 
ENDBRANCH   7  25
TORSDOF 6
ENDMDL
MODEL 2
REMARK VINA RESULT:      -7.4      1.636      3.001
REMARK  Name = NuBBE_1816
REMARK  9 active torsions:
REMARK  status: ('A' for Active; 'I' for Inactive)
REMARK    1  A    between atoms: O_1  and  C_2
REMARK    2  A    between atoms: C_4  and  O_5
REMARK    3  A    between atoms: O_5  and  C_6
REMARK    4  A    between atoms: C_9  and  C_10
REMARK    5  A    between atoms: C_10  and  C_11
REMARK    6  A    between atoms: C_16  and  O_17
REMARK    7  A    between atoms: O_17  and  C_18
REMARK    8  A    between atoms: C_19  and  O_20
REMARK    9  A    between atoms: O_20  and  C_21
REMARK                            x       y       z     vdW  Elec       q    Type
REMARK                         _______ _______ _______ _____ _____    ______ ____
ROOT
ATOM      1  C   LIG A   1      -8.879   5.698 130.942  0.00  0.00    +0.169 C 
ATOM      2  C   LIG A   1      -8.939   5.548 132.274  0.00  0.00    +0.058 C 
ATOM      3  C   LIG A   1      -7.735   5.661 133.084  0.00  0.00    -0.011 A 
ATOM      4  C   LIG A   1      -6.538   6.001 132.457  0.00  0.00    +0.001 A 
ATOM      5  C   LIG A   1      -5.366   6.102 133.219  0.00  0.00    +0.057 A 
ATOM      6  C   LIG A   1      -5.386   5.878 134.603  0.00  0.00    +0.162 A 
ATOM      7  C   LIG A   1      -6.605   5.593 135.239  0.00  0.00    +0.162 A 
ATOM      8  C   LIG A   1      -7.769   5.469 134.470  0.00  0.00    +0.057 A 
ATOM      9  C   LIG A   1      -6.556   6.360 130.995  0.00  0.00    +0.265 C 
ATOM     10  O   LIG A   1      -7.723   6.000 130.248  0.00  0.00    -0.483 OA
ENDROOT
BRANCH   1  11
ATOM     11  C   LIG A   1     -10.151   5.544 130.166  0.00  0.00    +0.231 C 
ATOM     12  O   LIG A   1     -10.550   4.430 129.775  0.00  0.00    -0.283 OA
BRANCH  11  18
ATOM     13  C   LIG A   1     -12.083   7.054 130.726  0.00  0.00    +0.131 A 
ATOM     14  C   LIG A   1     -12.869   8.162 130.431  0.00  0.00    +0.091 A 
ATOM     15  C   LIG A   1     -12.585   8.981 129.341  0.00  0.00    +0.124 A 
ATOM     16  C   LIG A   1     -11.452   8.711 128.567  0.00  0.00    +0.046 A 
ATOM     17  C   LIG A   1     -10.663   7.586 128.852  0.00  0.00    +0.019 A 
ATOM     18  C   LIG A   1     -10.997   6.732 129.918  0.00  0.00    +0.067 A 
BRANCH  13  19
ATOM     19  O   LIG A   1     -12.389   6.334 131.846  0.00  0.00    -0.506 OA
ATOM     20  H   LIG A   1     -11.679   6.448 132.502  0.00  0.00    +0.292 HD
ENDBRANCH  13  19
BRANCH  15  21
ATOM     21  O   LIG A   1     -13.342  10.077 129.015  0.00  0.00    -0.495 OA
ATOM     22  C   LIG A   1     -13.528  11.014 130.083  0.00  0.00    +0.277 C 
ENDBRANCH  15  21
ENDBRANCH  11  18
ENDBRANCH   1  11
BRANCH   6  23
ATOM     23  O   LIG A   1      -4.164   6.031 135.212  0.00  0.00    -0.491 OA
ATOM     24  C   LIG A   1      -3.026   5.674 134.433  0.00  0.00    +0.277 C 
ENDBRANCH   6  23
BRANCH   7  25
ATOM     25  O   LIG A   1      -6.642   5.576 136.607  0.00  0.00    -0.491 OA
ATOM     26  C   LIG A   1      -7.584   6.444 137.223  0.00  0.00    +0.277 C 
ENDBRANCH   7  25
TORSDOF 6
ENDMDL
MODEL 3
REMARK VINA RESULT:      -7.3      1.566      2.719
REMARK  Name = NuBBE_1816
REMARK  9 active torsions:
REMARK  status: ('A' for Active; 'I' for Inactive)
REMARK    1  A    between atoms: O_1  and  C_2
REMARK    2  A    between atoms: C_4  and  O_5
REMARK    3  A    between atoms: O_5  and  C_6
REMARK    4  A    between atoms: C_9  and  C_10
REMARK    5  A    between atoms: C_10  and  C_11
REMARK    6  A    between atoms: C_16  and  O_17
REMARK    7  A    between atoms: O_17  and  C_18
REMARK    8  A    between atoms: C_19  and  O_20
REMARK    9  A    between atoms: O_20  and  C_21
REMARK                            x       y       z     vdW  Elec       q    Type
REMARK                         _______ _______ _______ _____ _____    ______ ____
ROOT
ATOM      1  C   LIG A   1      -9.169   5.009 129.815  0.00  0.00    +0.169 C 
ATOM      2  C   LIG A   1      -8.427   5.758 130.647  0.00  0.00    +0.058 C 
ATOM      3  C   LIG A   1      -6.974   5.705 130.589  0.00  0.00    -0.011 A 
ATOM      4  C   LIG A   1      -6.374   4.921 129.605  0.00  0.00    +0.001 A 
ATOM      5  C   LIG A   1      -4.976   4.849 129.542  0.00  0.00    +0.057 A 
ATOM      6  C   LIG A   1      -4.176   5.564 130.446  0.00  0.00    +0.162 A 
ATOM      7  C   LIG A   1      -4.785   6.397 131.397  0.00  0.00    +0.162 A 
ATOM      8  C   LIG A   1      -6.183   6.447 131.472  0.00  0.00    +0.057 A 
ATOM      9  C   LIG A   1      -7.241   4.262 128.566  0.00  0.00    +0.265 C 
ATOM     10  O   LIG A   1      -8.644   4.183 128.840  0.00  0.00    -0.483 OA
ENDROOT
BRANCH   1  11
ATOM     11  C   LIG A   1     -10.659   5.093 129.946  0.00  0.00    +0.231 C 
ATOM     12  O   LIG A   1     -11.349   4.097 130.240  0.00  0.00    -0.283 OA
BRANCH  11  18
ATOM     13  C   LIG A   1     -12.135   6.946 130.789  0.00  0.00    +0.131 A 
ATOM     14  C   LIG A   1     -12.771   8.166 130.585  0.00  0.00    +0.091 A 
ATOM     15  C   LIG A   1     -12.605   8.878 129.400  0.00  0.00    +0.124 A 
ATOM     16  C   LIG A   1     -11.736   8.379 128.425  0.00  0.00    +0.046 A 
ATOM     17  C   LIG A   1     -11.103   7.142 128.620  0.00  0.00    +0.019 A 
ATOM     18  C   LIG A   1     -11.327   6.404 129.794  0.00  0.00    +0.067 A 
BRANCH  13  19
ATOM     19  O   LIG A   1     -12.299   6.336 132.000  0.00  0.00    -0.506 OA
ATOM     20  H   LIG A   1     -12.710   5.465 131.865  0.00  0.00    +0.292 HD
ENDBRANCH  13  19
BRANCH  15  21
ATOM     21  O   LIG A   1     -13.221  10.080 129.161  0.00  0.00    -0.495 OA
ATOM     22  C   LIG A   1     -13.407  10.898 130.322  0.00  0.00    +0.277 C 
ENDBRANCH  15  21
ENDBRANCH  11  18
ENDBRANCH   1  11
BRANCH   6  23
ATOM     23  O   LIG A   1      -2.826   5.405 130.245  0.00  0.00    -0.491 OA
ATOM     24  C   LIG A   1      -2.238   6.236 129.248  0.00  0.00    +0.277 C 
ENDBRANCH   6  23
BRANCH   7  25
ATOM     25  O   LIG A   1      -3.994   7.237 132.134  0.00  0.00    -0.491 OA
ATOM     26  C   LIG A   1      -3.620   6.778 133.426  0.00  0.00    +0.277 C 
ENDBRANCH   7  25
TORSDOF 6
ENDMDL
MODEL 4
REMARK VINA RESULT:      -7.2      2.205      7.787
REMARK  Name = NuBBE_1816
REMARK  9 active torsions:
REMARK  status: ('A' for Active; 'I' for Inactive)
REMARK    1  A    between atoms: O_1  and  C_2
REMARK    2  A    between atoms: C_4  and  O_5
REMARK    3  A    between atoms: O_5  and  C_6
REMARK    4  A    between atoms: C_9  and  C_10
REMARK    5  A    between atoms: C_10  and  C_11
REMARK    6  A    between atoms: C_16  and  O_17
REMARK    7  A    between atoms: O_17  and  C_18
REMARK    8  A    between atoms: C_19  and  O_20
REMARK    9  A    between atoms: O_20  and  C_21
REMARK                            x       y       z     vdW  Elec       q    Type
REMARK                         _______ _______ _______ _____ _____    ______ ____
ROOT
ATOM      1  C   LIG A   1      -6.203   6.114 132.255  0.00  0.00    +0.169 C 
ATOM      2  C   LIG A   1      -6.874   6.719 131.261  0.00  0.00    +0.058 C 
ATOM      3  C   LIG A   1      -8.328   6.697 131.233  0.00  0.00    -0.011 A 
ATOM      4  C   LIG A   1      -9.008   6.102 132.295  0.00  0.00    +0.001 A 
ATOM      5  C   LIG A   1     -10.408   6.061 132.279  0.00  0.00    +0.057 A 
ATOM      6  C   LIG A   1     -11.133   6.621 131.216  0.00  0.00    +0.162 A 
ATOM      7  C   LIG A   1     -10.445   7.269 130.177  0.00  0.00    +0.162 A 
ATOM      8  C   LIG A   1      -9.044   7.287 130.186  0.00  0.00    +0.057 A 
ATOM      9  C   LIG A   1      -8.223   5.619 133.485  0.00  0.00    +0.265 C 
ATOM     10  O   LIG A   1      -6.808   5.475 133.321  0.00  0.00    -0.483 OA
ENDROOT
BRANCH   1  11
ATOM     11  C   LIG A   1      -4.707   6.153 132.209  0.00  0.00    +0.231 C 
ATOM     12  O   LIG A   1      -4.026   6.432 133.215  0.00  0.00    -0.283 OA
BRANCH  11  18
ATOM     13  C   LIG A   1      -3.307   6.706 130.194  0.00  0.00    +0.131 A 
ATOM     14  C   LIG A   1      -2.697   6.313 129.007  0.00  0.00    +0.091 A 
ATOM     15  C   LIG A   1      -2.759   4.994 128.565  0.00  0.00    +0.124 A 
ATOM     16  C   LIG A   1      -3.399   4.040 129.362  0.00  0.00    +0.046 A 
ATOM     17  C   LIG A   1      -4.027   4.434 130.554  0.00  0.00    +0.019 A 
ATOM     18  C   LIG A   1      -4.010   5.780 130.959  0.00  0.00    +0.067 A 
BRANCH  13  19
ATOM     19  O   LIG A   1      -3.151   8.002 130.593  0.00  0.00    -0.506 OA
ATOM     20  H   LIG A   1      -3.484   8.099 131.501  0.00  0.00    +0.292 HD
ENDBRANCH  13  19
BRANCH  15  21
ATOM     21  O   LIG A   1      -2.177   4.573 127.396  0.00  0.00    -0.495 OA
ATOM     22  C   LIG A   1      -2.238   3.159 127.175  0.00  0.00    +0.277 C 
ENDBRANCH  15  21
ENDBRANCH  11  18
ENDBRANCH   1  11
BRANCH   6  23
ATOM     23  O   LIG A   1     -12.496   6.518 131.352  0.00  0.00    -0.491 OA
ATOM     24  C   LIG A   1     -13.190   7.727 131.648  0.00  0.00    +0.277 C 
ENDBRANCH   6  23
BRANCH   7  25
ATOM     25  O   LIG A   1     -11.168   7.981 129.258  0.00  0.00    -0.491 OA
ATOM     26  C   LIG A   1     -10.519   8.258 128.024  0.00  0.00    +0.277 C 
ENDBRANCH   7  25
TORSDOF 6
ENDMDL
MODEL 5
REMARK VINA RESULT:      -7.1      3.849      5.288
REMARK  Name = NuBBE_1816
REMARK  9 active torsions:
REMARK  status: ('A' for Active; 'I' for Inactive)
REMARK    1  A    between atoms: O_1  and  C_2
REMARK    2  A    between atoms: C_4  and  O_5
REMARK    3  A    between atoms: O_5  and  C_6
REMARK    4  A    between atoms: C_9  and  C_10
REMARK    5  A    between atoms: C_10  and  C_11
REMARK    6  A    between atoms: C_16  and  O_17
REMARK    7  A    between atoms: O_17  and  C_18
REMARK    8  A    between atoms: C_19  and  O_20
REMARK    9  A    between atoms: O_20  and  C_21
REMARK                            x       y       z     vdW  Elec       q    Type
REMARK                         _______ _______ _______ _____ _____    ______ ____
ROOT
ATOM      1  C   LIG A   1      -8.945   5.081 130.029  0.00  0.00    +0.169 C 
ATOM      2  C   LIG A   1      -8.986   3.929 130.718  0.00  0.00    +0.058 C 
ATOM      3  C   LIG A   1      -8.555   2.684 130.101  0.00  0.00    -0.011 A 
ATOM      4  C   LIG A   1      -8.032   2.725 128.810  0.00  0.00    +0.001 A 
ATOM      5  C   LIG A   1      -7.624   1.534 128.195  0.00  0.00    +0.057 A 
ATOM      6  C   LIG A   1      -7.724   0.306 128.866  0.00  0.00    +0.162 A 
ATOM      7  C   LIG A   1      -8.198   0.278 130.187  0.00  0.00    +0.162 A 
ATOM      8  C   LIG A   1      -8.628   1.468 130.789  0.00  0.00    +0.057 A 
ATOM      9  C   LIG A   1      -7.814   4.062 128.152  0.00  0.00    +0.265 C 
ATOM     10  O   LIG A   1      -8.471   5.192 128.735  0.00  0.00    -0.483 OA
ENDROOT
BRANCH   1  11
ATOM     11  C   LIG A   1      -9.426   6.321 130.716  0.00  0.00    +0.231 C 
ATOM     12  O   LIG A   1      -8.848   6.781 131.720  0.00  0.00    -0.283 OA
BRANCH  11  18
ATOM     13  C   LIG A   1     -11.861   6.946 130.662  0.00  0.00    +0.131 A 
ATOM     14  C   LIG A   1     -12.913   7.639 130.073  0.00  0.00    +0.091 A 
ATOM     15  C   LIG A   1     -12.706   8.475 128.979  0.00  0.00    +0.124 A 
ATOM     16  C   LIG A   1     -11.404   8.660 128.504  0.00  0.00    +0.046 A 
ATOM     17  C   LIG A   1     -10.340   7.952 129.086  0.00  0.00    +0.019 A 
ATOM     18  C   LIG A   1     -10.573   7.065 130.151  0.00  0.00    +0.067 A 
BRANCH  13  19
ATOM     19  O   LIG A   1     -12.133   6.193 131.769  0.00  0.00    -0.506 OA
ATOM     20  H   LIG A   1     -11.457   6.366 132.446  0.00  0.00    +0.292 HD
ENDBRANCH  13  19
BRANCH  15  21
ATOM     21  O   LIG A   1     -13.720   9.168 128.368  0.00  0.00    -0.495 OA
ATOM     22  C   LIG A   1     -13.852  10.530 128.792  0.00  0.00    +0.277 C 
ENDBRANCH  15  21
ENDBRANCH  11  18
ENDBRANCH   1  11
BRANCH   6  23
ATOM     23  O   LIG A   1      -7.268  -0.767 128.139  0.00  0.00    -0.491 OA
ATOM     24  C   LIG A   1      -5.857  -0.968 128.134  0.00  0.00    +0.277 C 
ENDBRANCH   6  23
BRANCH   7  25
ATOM     25  O   LIG A   1      -8.102  -0.891 130.892  0.00  0.00    -0.491 OA
ATOM     26  C   LIG A   1      -7.866  -0.767 132.289  0.00  0.00    +0.277 C 
ENDBRANCH   7  25
TORSDOF 6
ENDMDL
MODEL 6
REMARK VINA RESULT:      -7.1      1.951      2.568
REMARK  Name = NuBBE_1816
REMARK  9 active torsions:
REMARK  status: ('A' for Active; 'I' for Inactive)
REMARK    1  A    between atoms: O_1  and  C_2
REMARK    2  A    between atoms: C_4  and  O_5
REMARK    3  A    between atoms: O_5  and  C_6
REMARK    4  A    between atoms: C_9  and  C_10
REMARK    5  A    between atoms: C_10  and  C_11
REMARK    6  A    between atoms: C_16  and  O_17
REMARK    7  A    between atoms: O_17  and  C_18
REMARK    8  A    between atoms: C_19  and  O_20
REMARK    9  A    between atoms: O_20  and  C_21
REMARK                            x       y       z     vdW  Elec       q    Type
REMARK                         _______ _______ _______ _____ _____    ______ ____
ROOT
ATOM      1  C   LIG A   1      -8.626   5.603 130.498  0.00  0.00    +0.169 C 
ATOM      2  C   LIG A   1      -7.714   5.028 129.698  0.00  0.00    +0.058 C 
ATOM      3  C   LIG A   1      -6.292   5.185 129.967  0.00  0.00    -0.011 A 
ATOM      4  C   LIG A   1      -5.902   5.878 131.111  0.00  0.00    +0.001 A 
ATOM      5  C   LIG A   1      -4.538   6.049 131.380  0.00  0.00    +0.057 A 
ATOM      6  C   LIG A   1      -3.563   5.521 130.521  0.00  0.00    +0.162 A 
ATOM      7  C   LIG A   1      -3.961   4.775 129.401  0.00  0.00    +0.162 A 
ATOM      8  C   LIG A   1      -5.326   4.627 129.123  0.00  0.00    +0.057 A 
ATOM      9  C   LIG A   1      -6.956   6.328 132.087  0.00  0.00    +0.265 C 
ATOM     10  O   LIG A   1      -8.312   6.333 131.629  0.00  0.00    -0.483 OA
ENDROOT
BRANCH   1  11
ATOM     11  C   LIG A   1     -10.071   5.423 130.149  0.00  0.00    +0.231 C 
ATOM     12  O   LIG A   1     -10.601   4.295 130.112  0.00  0.00    -0.283 OA
BRANCH  11  18
ATOM     13  C   LIG A   1     -11.974   6.955 130.746  0.00  0.00    +0.131 A 
ATOM     14  C   LIG A   1     -12.759   8.066 130.462  0.00  0.00    +0.091 A 
ATOM     15  C   LIG A   1     -12.499   8.870 129.355  0.00  0.00    +0.124 A 
ATOM     16  C   LIG A   1     -11.391   8.582 128.552  0.00  0.00    +0.046 A 
ATOM     17  C   LIG A   1     -10.603   7.454 128.828  0.00  0.00    +0.019 A 
ATOM     18  C   LIG A   1     -10.913   6.615 129.912  0.00  0.00    +0.067 A 
BRANCH  13  19
ATOM     19  O   LIG A   1     -12.254   6.250 131.882  0.00  0.00    -0.506 OA
ATOM     20  H   LIG A   1     -12.508   5.343 131.640  0.00  0.00    +0.292 HD
ENDBRANCH  13  19
BRANCH  15  21
ATOM     21  O   LIG A   1     -13.256   9.970 129.038  0.00  0.00    -0.495 OA
ATOM     22  C   LIG A   1     -13.450  10.892 130.117  0.00  0.00    +0.277 C 
ENDBRANCH  15  21
ENDBRANCH  11  18
ENDBRANCH   1  11
BRANCH   6  23
ATOM     23  O   LIG A   1      -2.272   5.756 130.928  0.00  0.00    -0.491 OA
ATOM     24  C   LIG A   1      -2.109   6.199 132.273  0.00  0.00    +0.277 C 
ENDBRANCH   6  23
BRANCH   7  25
ATOM     25  O   LIG A   1      -3.005   4.101 128.689  0.00  0.00    -0.491 OA
ATOM     26  C   LIG A   1      -3.390   2.844 128.149  0.00  0.00    +0.277 C 
ENDBRANCH   7  25
TORSDOF 6
ENDMDL
MODEL 7
REMARK VINA RESULT:      -6.9      3.777      4.922
REMARK  Name = NuBBE_1816
REMARK  9 active torsions:
REMARK  status: ('A' for Active; 'I' for Inactive)
REMARK    1  A    between atoms: O_1  and  C_2
REMARK    2  A    between atoms: C_4  and  O_5
REMARK    3  A    between atoms: O_5  and  C_6
REMARK    4  A    between atoms: C_9  and  C_10
REMARK    5  A    between atoms: C_10  and  C_11
REMARK    6  A    between atoms: C_16  and  O_17
REMARK    7  A    between atoms: O_17  and  C_18
REMARK    8  A    between atoms: C_19  and  O_20
REMARK    9  A    between atoms: O_20  and  C_21
REMARK                            x       y       z     vdW  Elec       q    Type
REMARK                         _______ _______ _______ _____ _____    ______ ____
ROOT
ATOM      1  C   LIG A   1      -9.385   4.394 131.789  0.00  0.00    +0.169 C 
ATOM      2  C   LIG A   1      -9.092   4.021 130.533  0.00  0.00    +0.058 C 
ATOM      3  C   LIG A   1      -8.741   2.640 130.236  0.00  0.00    -0.011 A 
ATOM      4  C   LIG A   1      -8.789   1.703 131.267  0.00  0.00    +0.001 A 
ATOM      5  C   LIG A   1      -8.442   0.371 131.002  0.00  0.00    +0.057 A 
ATOM      6  C   LIG A   1      -8.061  -0.031 129.713  0.00  0.00    +0.162 A 
ATOM      7  C   LIG A   1      -8.070   0.905 128.667  0.00  0.00    +0.162 A 
ATOM      8  C   LIG A   1      -8.394   2.240 128.941  0.00  0.00    +0.057 A 
ATOM      9  C   LIG A   1      -9.319   2.123 132.611  0.00  0.00    +0.265 C 
ATOM     10  O   LIG A   1      -9.418   3.528 132.866  0.00  0.00    -0.483 OA
ENDROOT
BRANCH   1  11
ATOM     11  C   LIG A   1      -9.713   5.835 132.028  0.00  0.00    +0.231 C 
ATOM     12  O   LIG A   1      -9.223   6.471 132.981  0.00  0.00    -0.283 OA
BRANCH  11  18
ATOM     13  C   LIG A   1     -10.077   7.386 130.081  0.00  0.00    +0.131 A 
ATOM     14  C   LIG A   1     -10.940   8.062 129.226  0.00  0.00    +0.091 A 
ATOM     15  C   LIG A   1     -12.321   7.910 129.324  0.00  0.00    +0.124 A 
ATOM     16  C   LIG A   1     -12.840   7.014 130.264  0.00  0.00    +0.046 A 
ATOM     17  C   LIG A   1     -11.974   6.339 131.138  0.00  0.00    +0.019 A 
ATOM     18  C   LIG A   1     -10.586   6.549 131.069  0.00  0.00    +0.067 A 
BRANCH  13  19
ATOM     19  O   LIG A   1      -8.734   7.539 129.885  0.00  0.00    -0.506 OA
ATOM     20  H   LIG A   1      -8.255   6.905 130.445  0.00  0.00    +0.292 HD
ENDBRANCH  13  19
BRANCH  15  21
ATOM     21  O   LIG A   1     -13.203   8.566 128.503  0.00  0.00    -0.495 OA
ATOM     22  C   LIG A   1     -13.444   9.933 128.857  0.00  0.00    +0.277 C 
ENDBRANCH  15  21
ENDBRANCH  11  18
ENDBRANCH   1  11
BRANCH   6  23
ATOM     23  O   LIG A   1      -7.768  -1.369 129.609  0.00  0.00    -0.491 OA
ATOM     24  C   LIG A   1      -6.547  -1.793 130.210  0.00  0.00    +0.277 C 
ENDBRANCH   6  23
BRANCH   7  25
ATOM     25  O   LIG A   1      -7.892   0.456 127.386  0.00  0.00    -0.491 OA
ATOM     26  C   LIG A   1      -8.659   1.103 126.379  0.00  0.00    +0.277 C 
ENDBRANCH   7  25
TORSDOF 6
ENDMDL
MODEL 8
REMARK VINA RESULT:      -6.8      8.614      9.860
REMARK  Name = NuBBE_1816
REMARK  9 active torsions:
REMARK  status: ('A' for Active; 'I' for Inactive)
REMARK    1  A    between atoms: O_1  and  C_2
REMARK    2  A    between atoms: C_4  and  O_5
REMARK    3  A    between atoms: O_5  and  C_6
REMARK    4  A    between atoms: C_9  and  C_10
REMARK    5  A    between atoms: C_10  and  C_11
REMARK    6  A    between atoms: C_16  and  O_17
REMARK    7  A    between atoms: O_17  and  C_18
REMARK    8  A    between atoms: C_19  and  O_20
REMARK    9  A    between atoms: O_20  and  C_21
REMARK                            x       y       z     vdW  Elec       q    Type
REMARK                         _______ _______ _______ _____ _____    ______ ____
ROOT
ATOM      1  C   LIG A   1      -7.840  -2.267 126.899  0.00  0.00    +0.169 C 
ATOM      2  C   LIG A   1      -8.170  -2.578 128.163  0.00  0.00    +0.058 C 
ATOM      3  C   LIG A   1      -7.138  -2.881 129.142  0.00  0.00    -0.011 A 
ATOM      4  C   LIG A   1      -5.802  -2.767 128.760  0.00  0.00    +0.001 A 
ATOM      5  C   LIG A   1      -4.794  -3.066 129.686  0.00  0.00    +0.057 A 
ATOM      6  C   LIG A   1      -5.112  -3.466 130.993  0.00  0.00    +0.162 A 
ATOM      7  C   LIG A   1      -6.457  -3.523 131.389  0.00  0.00    +0.162 A 
ATOM      8  C   LIG A   1      -7.462  -3.246 130.453  0.00  0.00    +0.057 A 
ATOM      9  C   LIG A   1      -5.476  -2.218 127.397  0.00  0.00    +0.265 C 
ATOM     10  O   LIG A   1      -6.540  -2.170 126.440  0.00  0.00    -0.483 OA
ENDROOT
BRANCH   1  11
ATOM     11  C   LIG A   1      -8.954  -1.991 125.937  0.00  0.00    +0.231 C 
ATOM     12  O   LIG A   1      -9.887  -2.799 125.764  0.00  0.00    -0.283 OA
BRANCH  11  18
ATOM     13  C   LIG A   1      -9.223  -0.607 123.854  0.00  0.00    +0.131 A 
ATOM     14  C   LIG A   1      -9.214   0.632 123.222  0.00  0.00    +0.091 A 
ATOM     15  C   LIG A   1      -8.991   1.806 123.937  0.00  0.00    +0.124 A 
ATOM     16  C   LIG A   1      -8.831   1.735 125.325  0.00  0.00    +0.046 A 
ATOM     17  C   LIG A   1      -8.826   0.487 125.965  0.00  0.00    +0.019 A 
ATOM     18  C   LIG A   1      -8.991  -0.696 125.223  0.00  0.00    +0.067 A 
BRANCH  13  19
ATOM     19  O   LIG A   1      -9.508  -1.707 123.097  0.00  0.00    -0.506 OA
ATOM     20  H   LIG A   1     -10.426  -1.647 122.780  0.00  0.00    +0.292 HD
ENDBRANCH  13  19
BRANCH  15  21
ATOM     21  O   LIG A   1      -8.967   3.044 123.348  0.00  0.00    -0.495 OA
ATOM     22  C   LIG A   1      -8.216   3.111 122.130  0.00  0.00    +0.277 C 
ENDBRANCH  15  21
ENDBRANCH  11  18
ENDBRANCH   1  11
BRANCH   6  23
ATOM     23  O   LIG A   1      -4.017  -3.706 131.787  0.00  0.00    -0.491 OA
ATOM     24  C   LIG A   1      -3.522  -2.594 132.527  0.00  0.00    +0.277 C 
ENDBRANCH   6  23
BRANCH   7  25
ATOM     25  O   LIG A   1      -6.743  -3.717 132.714  0.00  0.00    -0.491 OA
ATOM     26  C   LIG A   1      -7.668  -2.811 133.299  0.00  0.00    +0.277 C 
ENDBRANCH   7  25
TORSDOF 6
ENDMDL
MODEL 9
REMARK VINA RESULT:      -6.8      9.299     10.196
REMARK  Name = NuBBE_1816
REMARK  9 active torsions:
REMARK  status: ('A' for Active; 'I' for Inactive)
REMARK    1  A    between atoms: O_1  and  C_2
REMARK    2  A    between atoms: C_4  and  O_5
REMARK    3  A    between atoms: O_5  and  C_6
REMARK    4  A    between atoms: C_9  and  C_10
REMARK    5  A    between atoms: C_10  and  C_11
REMARK    6  A    between atoms: C_16  and  O_17
REMARK    7  A    between atoms: O_17  and  C_18
REMARK    8  A    between atoms: C_19  and  O_20
REMARK    9  A    between atoms: O_20  and  C_21
REMARK                            x       y       z     vdW  Elec       q    Type
REMARK                         _______ _______ _______ _____ _____    ______ ____
ROOT
ATOM      1  C   LIG A   1      -8.783  -1.986 125.189  0.00  0.00    +0.169 C 
ATOM      2  C   LIG A   1      -7.576  -1.754 125.729  0.00  0.00    +0.058 C 
ATOM      3  C   LIG A   1      -7.244  -2.276 127.046  0.00  0.00    -0.011 A 
ATOM      4  C   LIG A   1      -8.176  -3.081 127.699  0.00  0.00    +0.001 A 
ATOM      5  C   LIG A   1      -7.879  -3.582 128.974  0.00  0.00    +0.057 A 
ATOM      6  C   LIG A   1      -6.653  -3.295 129.593  0.00  0.00    +0.162 A 
ATOM      7  C   LIG A   1      -5.695  -2.531 128.906  0.00  0.00    +0.162 A 
ATOM      8  C   LIG A   1      -6.006  -2.012 127.643  0.00  0.00    +0.057 A 
ATOM      9  C   LIG A   1      -9.431  -3.483 126.972  0.00  0.00    +0.265 C 
ATOM     10  O   LIG A   1      -9.768  -2.744 125.793  0.00  0.00    -0.483 OA
ENDROOT
BRANCH   1  11
ATOM     11  C   LIG A   1      -9.067  -1.398 123.842  0.00  0.00    +0.231 C 
ATOM     12  O   LIG A   1      -9.749  -2.004 122.992  0.00  0.00    -0.283 OA
BRANCH  11  18
ATOM     13  C   LIG A   1      -9.456   1.049 123.411  0.00  0.00    +0.131 A 
ATOM     14  C   LIG A   1      -8.963   2.307 123.082  0.00  0.00    +0.091 A 
ATOM     15  C   LIG A   1      -7.601   2.519 122.882  0.00  0.00    +0.124 A 
ATOM     16  C   LIG A   1      -6.713   1.456 123.073  0.00  0.00    +0.046 A 
ATOM     17  C   LIG A   1      -7.207   0.181 123.392  0.00  0.00    +0.019 A 
ATOM     18  C   LIG A   1      -8.590  -0.033 123.530  0.00  0.00    +0.067 A 
BRANCH  13  19
ATOM     19  O   LIG A   1     -10.795   0.932 123.651  0.00  0.00    -0.506 OA
ATOM     20  H   LIG A   1     -10.962   0.102 124.130  0.00  0.00    +0.292 HD
ENDBRANCH  13  19
BRANCH  15  21
ATOM     21  O   LIG A   1      -7.079   3.743 122.550  0.00  0.00    -0.495 OA
ATOM     22  C   LIG A   1      -6.291   3.752 121.353  0.00  0.00    +0.277 C 
ENDBRANCH  15  21
ENDBRANCH  11  18
ENDBRANCH   1  11
BRANCH   6  23
ATOM     23  O   LIG A   1      -6.503  -3.872 130.831  0.00  0.00    -0.491 OA
ATOM     24  C   LIG A   1      -6.923  -3.087 131.943  0.00  0.00    +0.277 C 
ENDBRANCH   6  23
BRANCH   7  25
ATOM     25  O   LIG A   1      -4.437  -2.430 129.436  0.00  0.00    -0.491 OA
ATOM     26  C   LIG A   1      -3.537  -3.486 129.130  0.00  0.00    +0.277 C 
ENDBRANCH   7  25
TORSDOF 6
ENDMDL
