MODEL 1
REMARK VINA RESULT:      -8.1      0.000      0.000
REMARK  Name = NuBBE_2402
REMARK  2 active torsions:
REMARK  status: ('A' for Active; 'I' for Inactive)
REMARK    1  A    between atoms: O_1  and  C_2
REMARK    2  A    between atoms: O_1  and  C_3
REMARK                            x       y       z     vdW  Elec       q    Type
REMARK                         _______ _______ _______ _____ _____    ______ ____
ROOT
ATOM      1  C   LIG A   1     -12.159   7.170 129.744  0.00  0.00    +0.124 A 
ATOM      2  C   LIG A   1     -11.833   6.510 130.934  0.00  0.00    +0.092 A 
ATOM      3  C   LIG A   1     -10.503   6.400 131.342  0.00  0.00    +0.135 A 
ATOM      4  C   LIG A   1      -9.489   6.965 130.550  0.00  0.00    +0.059 A 
ATOM      5  C   LIG A   1      -9.806   7.627 129.366  0.00  0.00    +0.019 A 
ATOM      6  C   LIG A   1     -11.143   7.729 128.963  0.00  0.00    +0.046 A 
ATOM      7  C   LIG A   1      -8.159   6.802 131.053  0.00  0.00    +0.146 A 
ATOM      8  C   LIG A   1      -7.849   6.131 132.201  0.00  0.00    +0.043 A 
ATOM      9  C   LIG A   1      -8.923   5.511 133.004  0.00  0.00    +0.268 C 
ATOM     10  O   LIG A   1     -10.284   5.733 132.530  0.00  0.00    -0.486 OA
ATOM     11  C   LIG A   1      -6.440   6.204 132.329  0.00  0.00    +0.031 A 
ATOM     12  C   LIG A   1      -6.005   6.939 131.213  0.00  0.00    +0.140 A 
ATOM     13  O   LIG A   1      -7.071   7.302 130.432  0.00  0.00    -0.454 OA
ATOM     14  C   LIG A   1      -4.672   7.251 130.940  0.00  0.00    +0.096 A 
ATOM     15  C   LIG A   1      -3.777   6.770 131.877  0.00  0.00    +0.170 A 
ATOM     16  C   LIG A   1      -4.164   6.046 132.983  0.00  0.00    +0.167 A 
ATOM     17  C   LIG A   1      -5.487   5.736 133.255  0.00  0.00    +0.061 A 
ATOM     18  O   LIG A   1      -3.106   5.680 133.759  0.00  0.00    -0.453 OA
ATOM     19  C   LIG A   1      -2.010   6.254 133.018  0.00  0.00    +0.466 C 
ATOM     20  O   LIG A   1      -2.426   6.947 131.824  0.00  0.00    -0.453 OA
ENDROOT
BRANCH   1  21
ATOM     21  O   LIG A   1     -13.498   7.202 129.460  0.00  0.00    -0.495 OA
ATOM     22  C   LIG A   1     -13.866   7.183 128.088  0.00  0.00    +0.277 C 
ENDBRANCH   1  21
TORSDOF 1
ENDMDL
MODEL 2
REMARK VINA RESULT:      -7.9      1.226      7.415
REMARK  Name = NuBBE_2402
REMARK  2 active torsions:
REMARK  status: ('A' for Active; 'I' for Inactive)
REMARK    1  A    between atoms: O_1  and  C_2
REMARK    2  A    between atoms: O_1  and  C_3
REMARK                            x       y       z     vdW  Elec       q    Type
REMARK                         _______ _______ _______ _____ _____    ______ ____
ROOT
ATOM      1  C   LIG A   1      -2.761   6.355 132.244  0.00  0.00    +0.124 A 
ATOM      2  C   LIG A   1      -3.717   5.756 133.071  0.00  0.00    +0.092 A 
ATOM      3  C   LIG A   1      -5.077   5.879 132.787  0.00  0.00    +0.135 A 
ATOM      4  C   LIG A   1      -5.483   6.606 131.655  0.00  0.00    +0.059 A 
ATOM      5  C   LIG A   1      -4.537   7.202 130.824  0.00  0.00    +0.019 A 
ATOM      6  C   LIG A   1      -3.175   7.077 131.119  0.00  0.00    +0.046 A 
ATOM      7  C   LIG A   1      -6.898   6.673 131.447  0.00  0.00    +0.146 A 
ATOM      8  C   LIG A   1      -7.824   6.109 132.277  0.00  0.00    +0.043 A 
ATOM      9  C   LIG A   1      -7.383   5.379 133.483  0.00  0.00    +0.268 C 
ATOM     10  O   LIG A   1      -5.940   5.251 133.661  0.00  0.00    -0.486 OA
ATOM     11  C   LIG A   1      -9.089   6.408 131.714  0.00  0.00    +0.031 A 
ATOM     12  C   LIG A   1      -8.810   7.150 130.553  0.00  0.00    +0.140 A 
ATOM     13  O   LIG A   1      -7.458   7.309 130.397  0.00  0.00    -0.454 OA
ATOM     14  C   LIG A   1      -9.779   7.655 129.685  0.00  0.00    +0.096 A 
ATOM     15  C   LIG A   1     -11.078   7.365 130.058  0.00  0.00    +0.170 A 
ATOM     16  C   LIG A   1     -11.391   6.642 131.188  0.00  0.00    +0.167 A 
ATOM     17  C   LIG A   1     -10.430   6.140 132.051  0.00  0.00    +0.061 A 
ATOM     18  O   LIG A   1     -12.735   6.487 131.348  0.00  0.00    -0.453 OA
ATOM     19  C   LIG A   1     -13.232   7.193 130.193  0.00  0.00    +0.466 C 
ATOM     20  O   LIG A   1     -12.189   7.753 129.370  0.00  0.00    -0.453 OA
ENDROOT
BRANCH   1  21
ATOM     21  O   LIG A   1      -1.465   6.161 132.638  0.00  0.00    -0.495 OA
ATOM     22  C   LIG A   1      -0.608   7.295 132.621  0.00  0.00    +0.277 C 
ENDBRANCH   1  21
TORSDOF 1
ENDMDL
MODEL 3
REMARK VINA RESULT:      -7.7      1.323      7.356
REMARK  Name = NuBBE_2402
REMARK  2 active torsions:
REMARK  status: ('A' for Active; 'I' for Inactive)
REMARK    1  A    between atoms: O_1  and  C_2
REMARK    2  A    between atoms: O_1  and  C_3
REMARK                            x       y       z     vdW  Elec       q    Type
REMARK                         _______ _______ _______ _____ _____    ______ ____
ROOT
ATOM      1  C   LIG A   1      -4.775   5.409 133.646  0.00  0.00    +0.124 A 
ATOM      2  C   LIG A   1      -6.033   4.897 133.980  0.00  0.00    +0.092 A 
ATOM      3  C   LIG A   1      -7.163   5.257 133.244  0.00  0.00    +0.135 A 
ATOM      4  C   LIG A   1      -7.026   6.135 132.155  0.00  0.00    +0.059 A 
ATOM      5  C   LIG A   1      -5.775   6.646 131.814  0.00  0.00    +0.019 A 
ATOM      6  C   LIG A   1      -4.650   6.282 132.561  0.00  0.00    +0.046 A 
ATOM      7  C   LIG A   1      -8.240   6.441 131.462  0.00  0.00    +0.146 A 
ATOM      8  C   LIG A   1      -9.469   5.959 131.814  0.00  0.00    +0.043 A 
ATOM      9  C   LIG A   1      -9.601   5.065 132.983  0.00  0.00    +0.268 C 
ATOM     10  O   LIG A   1      -8.357   4.698 133.650  0.00  0.00    -0.486 OA
ATOM     11  C   LIG A   1     -10.385   6.502 130.880  0.00  0.00    +0.031 A 
ATOM     12  C   LIG A   1      -9.607   7.289 130.014  0.00  0.00    +0.140 A 
ATOM     13  O   LIG A   1      -8.288   7.247 130.381  0.00  0.00    -0.454 OA
ATOM     14  C   LIG A   1     -10.112   8.014 128.934  0.00  0.00    +0.096 A 
ATOM     15  C   LIG A   1     -11.480   7.901 128.768  0.00  0.00    +0.170 A 
ATOM     16  C   LIG A   1     -12.276   7.140 129.595  0.00  0.00    +0.167 A 
ATOM     17  C   LIG A   1     -11.775   6.419 130.668  0.00  0.00    +0.061 A 
ATOM     18  O   LIG A   1     -13.589   7.184 129.235  0.00  0.00    -0.453 OA
ATOM     19  C   LIG A   1     -13.531   8.058 128.090  0.00  0.00    +0.466 C 
ATOM     20  O   LIG A   1     -12.198   8.517 127.787  0.00  0.00    -0.453 OA
ENDROOT
BRANCH   1  21
ATOM     21  O   LIG A   1      -3.754   4.979 134.451  0.00  0.00    -0.495 OA
ATOM     22  C   LIG A   1      -3.547   3.575 134.535  0.00  0.00    +0.277 C 
ENDBRANCH   1  21
TORSDOF 1
ENDMDL
MODEL 4
REMARK VINA RESULT:      -7.4      3.730      4.402
REMARK  Name = NuBBE_2402
REMARK  2 active torsions:
REMARK  status: ('A' for Active; 'I' for Inactive)
REMARK    1  A    between atoms: O_1  and  C_2
REMARK    2  A    between atoms: O_1  and  C_3
REMARK                            x       y       z     vdW  Elec       q    Type
REMARK                         _______ _______ _______ _____ _____    ______ ____
ROOT
ATOM      1  C   LIG A   1     -12.513   8.451 129.420  0.00  0.00    +0.124 A 
ATOM      2  C   LIG A   1     -11.521   7.877 128.616  0.00  0.00    +0.092 A 
ATOM      3  C   LIG A   1     -10.720   6.846 129.108  0.00  0.00    +0.135 A 
ATOM      4  C   LIG A   1     -10.921   6.381 130.418  0.00  0.00    +0.059 A 
ATOM      5  C   LIG A   1     -11.909   6.944 131.223  0.00  0.00    +0.019 A 
ATOM      6  C   LIG A   1     -12.705   7.980 130.723  0.00  0.00    +0.046 A 
ATOM      7  C   LIG A   1     -10.051   5.321 130.830  0.00  0.00    +0.146 A 
ATOM      8  C   LIG A   1      -9.067   4.787 130.047  0.00  0.00    +0.043 A 
ATOM      9  C   LIG A   1      -8.845   5.312 128.684  0.00  0.00    +0.268 C 
ATOM     10  O   LIG A   1      -9.773   6.346 128.239  0.00  0.00    -0.486 OA
ATOM     11  C   LIG A   1      -8.451   3.777 130.827  0.00  0.00    +0.031 A 
ATOM     12  C   LIG A   1      -9.140   3.786 132.052  0.00  0.00    +0.140 A 
ATOM     13  O   LIG A   1     -10.122   4.740 132.045  0.00  0.00    -0.454 OA
ATOM     14  C   LIG A   1      -8.856   2.939 133.126  0.00  0.00    +0.096 A 
ATOM     15  C   LIG A   1      -7.813   2.062 132.893  0.00  0.00    +0.170 A 
ATOM     16  C   LIG A   1      -7.115   2.023 131.706  0.00  0.00    +0.167 A 
ATOM     17  C   LIG A   1      -7.396   2.863 130.639  0.00  0.00    +0.061 A 
ATOM     18  O   LIG A   1      -6.134   1.078 131.713  0.00  0.00    -0.453 OA
ATOM     19  C   LIG A   1      -6.293   0.527 133.035  0.00  0.00    +0.466 C 
ATOM     20  O   LIG A   1      -7.355   1.144 133.790  0.00  0.00    -0.453 OA
ENDROOT
BRANCH   1  21
ATOM     21  O   LIG A   1     -13.223   9.454 128.817  0.00  0.00    -0.495 OA
ATOM     22  C   LIG A   1     -13.464  10.625 129.586  0.00  0.00    +0.277 C 
ENDBRANCH   1  21
TORSDOF 1
ENDMDL
MODEL 5
REMARK VINA RESULT:      -7.2      8.397      9.333
REMARK  Name = NuBBE_2402
REMARK  2 active torsions:
REMARK  status: ('A' for Active; 'I' for Inactive)
REMARK    1  A    between atoms: O_1  and  C_2
REMARK    2  A    between atoms: O_1  and  C_3
REMARK                            x       y       z     vdW  Elec       q    Type
REMARK                         _______ _______ _______ _____ _____    ______ ____
ROOT
ATOM      1  C   LIG A   1      -6.666   4.355 119.943  0.00  0.00    +0.124 A 
ATOM      2  C   LIG A   1      -7.835   3.817 120.493  0.00  0.00    +0.092 A 
ATOM      3  C   LIG A   1      -7.844   3.331 121.801  0.00  0.00    +0.135 A 
ATOM      4  C   LIG A   1      -6.668   3.391 122.567  0.00  0.00    +0.059 A 
ATOM      5  C   LIG A   1      -5.501   3.928 122.028  0.00  0.00    +0.019 A 
ATOM      6  C   LIG A   1      -5.501   4.410 120.714  0.00  0.00    +0.046 A 
ATOM      7  C   LIG A   1      -6.778   2.869 123.896  0.00  0.00    +0.146 A 
ATOM      8  C   LIG A   1      -7.916   2.321 124.414  0.00  0.00    +0.043 A 
ATOM      9  C   LIG A   1      -9.135   2.232 123.583  0.00  0.00    +0.268 C 
ATOM     10  O   LIG A   1      -9.044   2.823 122.252  0.00  0.00    -0.486 OA
ATOM     11  C   LIG A   1      -7.597   1.934 125.739  0.00  0.00    +0.031 A 
ATOM     12  C   LIG A   1      -6.250   2.296 125.915  0.00  0.00    +0.140 A 
ATOM     13  O   LIG A   1      -5.754   2.870 124.774  0.00  0.00    -0.454 OA
ATOM     14  C   LIG A   1      -5.523   2.094 127.089  0.00  0.00    +0.096 A 
ATOM     15  C   LIG A   1      -6.244   1.492 128.103  0.00  0.00    +0.170 A 
ATOM     16  C   LIG A   1      -7.564   1.123 127.969  0.00  0.00    +0.167 A 
ATOM     17  C   LIG A   1      -8.287   1.323 126.803  0.00  0.00    +0.061 A 
ATOM     18  O   LIG A   1      -8.058   0.547 129.100  0.00  0.00    -0.453 OA
ATOM     19  C   LIG A   1      -6.902   0.595 129.961  0.00  0.00    +0.466 C 
ATOM     20  O   LIG A   1      -5.748   1.192 129.337  0.00  0.00    -0.453 OA
ENDROOT
BRANCH   1  21
ATOM     21  O   LIG A   1      -6.794   4.792 118.652  0.00  0.00    -0.495 OA
ATOM     22  C   LIG A   1      -5.994   5.901 118.264  0.00  0.00    +0.277 C 
ENDBRANCH   1  21
TORSDOF 1
ENDMDL
MODEL 6
REMARK VINA RESULT:      -7.1      9.940     10.445
REMARK  Name = NuBBE_2402
REMARK  2 active torsions:
REMARK  status: ('A' for Active; 'I' for Inactive)
REMARK    1  A    between atoms: O_1  and  C_2
REMARK    2  A    between atoms: O_1  and  C_3
REMARK                            x       y       z     vdW  Elec       q    Type
REMARK                         _______ _______ _______ _____ _____    ______ ____
ROOT
ATOM      1  C   LIG A   1      -8.983  -1.753 125.562  0.00  0.00    +0.124 A 
ATOM      2  C   LIG A   1      -7.885  -1.003 125.999  0.00  0.00    +0.092 A 
ATOM      3  C   LIG A   1      -7.128  -1.427 127.091  0.00  0.00    +0.135 A 
ATOM      4  C   LIG A   1      -7.472  -2.621 127.748  0.00  0.00    +0.059 A 
ATOM      5  C   LIG A   1      -8.561  -3.375 127.316  0.00  0.00    +0.019 A 
ATOM      6  C   LIG A   1      -9.317  -2.940 126.222  0.00  0.00    +0.046 A 
ATOM      7  C   LIG A   1      -6.634  -2.971 128.855  0.00  0.00    +0.146 A 
ATOM      8  C   LIG A   1      -5.582  -2.218 129.291  0.00  0.00    +0.043 A 
ATOM      9  C   LIG A   1      -5.256  -0.947 128.612  0.00  0.00    +0.268 C 
ATOM     10  O   LIG A   1      -6.065  -0.621 127.444  0.00  0.00    -0.486 OA
ATOM     11  C   LIG A   1      -5.031  -2.916 130.394  0.00  0.00    +0.031 A 
ATOM     12  C   LIG A   1      -5.821  -4.070 130.533  0.00  0.00    +0.140 A 
ATOM     13  O   LIG A   1      -6.806  -4.095 129.581  0.00  0.00    -0.454 OA
ATOM     14  C   LIG A   1      -5.627  -5.050 131.508  0.00  0.00    +0.096 A 
ATOM     15  C   LIG A   1      -4.567  -4.798 132.359  0.00  0.00    +0.170 A 
ATOM     16  C   LIG A   1      -3.770  -3.679 132.255  0.00  0.00    +0.167 A 
ATOM     17  C   LIG A   1      -3.962  -2.705 131.287  0.00  0.00    +0.061 A 
ATOM     18  O   LIG A   1      -2.793  -3.649 133.203  0.00  0.00    -0.453 OA
ATOM     19  C   LIG A   1      -3.063  -4.873 133.915  0.00  0.00    +0.466 C 
ATOM     20  O   LIG A   1      -4.186  -5.608 133.386  0.00  0.00    -0.453 OA
ENDROOT
BRANCH   1  21
ATOM     21  O   LIG A   1      -9.640  -1.224 124.484  0.00  0.00    -0.495 OA
ATOM     22  C   LIG A   1      -8.935  -1.191 123.250  0.00  0.00    +0.277 C 
ENDBRANCH   1  21
TORSDOF 1
ENDMDL
MODEL 7
REMARK VINA RESULT:      -7.1      7.903     10.046
REMARK  Name = NuBBE_2402
REMARK  2 active torsions:
REMARK  status: ('A' for Active; 'I' for Inactive)
REMARK    1  A    between atoms: O_1  and  C_2
REMARK    2  A    between atoms: O_1  and  C_3
REMARK                            x       y       z     vdW  Elec       q    Type
REMARK                         _______ _______ _______ _____ _____    ______ ____
ROOT
ATOM      1  C   LIG A   1      -2.900   5.044 127.633  0.00  0.00    +0.124 A 
ATOM      2  C   LIG A   1      -4.272   5.215 127.418  0.00  0.00    +0.092 A 
ATOM      3  C   LIG A   1      -5.048   4.166 126.923  0.00  0.00    +0.135 A 
ATOM      4  C   LIG A   1      -4.441   2.929 126.648  0.00  0.00    +0.059 A 
ATOM      5  C   LIG A   1      -3.076   2.750 126.863  0.00  0.00    +0.019 A 
ATOM      6  C   LIG A   1      -2.306   3.809 127.356  0.00  0.00    +0.046 A 
ATOM      7  C   LIG A   1      -5.319   1.917 126.146  0.00  0.00    +0.146 A 
ATOM      8  C   LIG A   1      -6.652   2.102 125.912  0.00  0.00    +0.043 A 
ATOM      9  C   LIG A   1      -7.268   3.420 126.173  0.00  0.00    +0.268 C 
ATOM     10  O   LIG A   1      -6.390   4.433 126.748  0.00  0.00    -0.486 OA
ATOM     11  C   LIG A   1      -7.140   0.865 125.425  0.00  0.00    +0.031 A 
ATOM     12  C   LIG A   1      -6.026   0.009 125.408  0.00  0.00    +0.140 A 
ATOM     13  O   LIG A   1      -4.909   0.665 125.852  0.00  0.00    -0.454 OA
ATOM     14  C   LIG A   1      -6.057  -1.323 124.992  0.00  0.00    +0.096 A 
ATOM     15  C   LIG A   1      -7.304  -1.758 124.583  0.00  0.00    +0.170 A 
ATOM     16  C   LIG A   1      -8.419  -0.950 124.585  0.00  0.00    +0.167 A 
ATOM     17  C   LIG A   1      -8.389   0.374 124.998  0.00  0.00    +0.061 A 
ATOM     18  O   LIG A   1      -9.531  -1.598 124.139  0.00  0.00    -0.453 OA
ATOM     19  C   LIG A   1      -8.990  -2.905 123.855  0.00  0.00    +0.466 C 
ATOM     20  O   LIG A   1      -7.580  -3.015 124.134  0.00  0.00    -0.453 OA
ENDROOT
BRANCH   1  21
ATOM     21  O   LIG A   1      -2.258   6.152 128.117  0.00  0.00    -0.495 OA
ATOM     22  C   LIG A   1      -3.072   7.245 128.519  0.00  0.00    +0.277 C 
ENDBRANCH   1  21
TORSDOF 1
ENDMDL
MODEL 8
REMARK VINA RESULT:      -7.0      7.681      8.323
REMARK  Name = NuBBE_2402
REMARK  2 active torsions:
REMARK  status: ('A' for Active; 'I' for Inactive)
REMARK    1  A    between atoms: O_1  and  C_2
REMARK    2  A    between atoms: O_1  and  C_3
REMARK                            x       y       z     vdW  Elec       q    Type
REMARK                         _______ _______ _______ _____ _____    ______ ____
ROOT
ATOM      1  C   LIG A   1      -7.084   4.063 120.082  0.00  0.00    +0.124 A 
ATOM      2  C   LIG A   1      -7.994   3.671 121.070  0.00  0.00    +0.092 A 
ATOM      3  C   LIG A   1      -7.589   3.558 122.401  0.00  0.00    +0.135 A 
ATOM      4  C   LIG A   1      -6.258   3.847 122.744  0.00  0.00    +0.059 A 
ATOM      5  C   LIG A   1      -5.347   4.241 121.766  0.00  0.00    +0.019 A 
ATOM      6  C   LIG A   1      -5.762   4.348 120.434  0.00  0.00    +0.046 A 
ATOM      7  C   LIG A   1      -5.940   3.703 124.132  0.00  0.00    +0.146 A 
ATOM      8  C   LIG A   1      -6.828   3.293 125.085  0.00  0.00    +0.043 A 
ATOM      9  C   LIG A   1      -8.215   2.958 124.702  0.00  0.00    +0.268 C 
ATOM     10  O   LIG A   1      -8.559   3.168 123.300  0.00  0.00    -0.486 OA
ATOM     11  C   LIG A   1      -6.115   3.287 126.309  0.00  0.00    +0.031 A 
ATOM     12  C   LIG A   1      -4.815   3.711 125.981  0.00  0.00    +0.140 A 
ATOM     13  O   LIG A   1      -4.717   3.964 124.638  0.00  0.00    -0.454 OA
ATOM     14  C   LIG A   1      -3.773   3.850 126.899  0.00  0.00    +0.096 A 
ATOM     15  C   LIG A   1      -4.118   3.530 128.199  0.00  0.00    +0.170 A 
ATOM     16  C   LIG A   1      -5.380   3.112 128.559  0.00  0.00    +0.167 A 
ATOM     17  C   LIG A   1      -6.416   2.973 127.649  0.00  0.00    +0.061 A 
ATOM     18  O   LIG A   1      -5.479   2.855 129.893  0.00  0.00    -0.453 OA
ATOM     19  C   LIG A   1      -4.139   3.158 130.332  0.00  0.00    +0.466 C 
ATOM     20  O   LIG A   1      -3.270   3.587 129.264  0.00  0.00    -0.453 OA
ENDROOT
BRANCH   1  21
ATOM     21  O   LIG A   1      -7.611   4.130 118.820  0.00  0.00    -0.495 OA
ATOM     22  C   LIG A   1      -9.020   4.282 118.716  0.00  0.00    +0.277 C 
ENDBRANCH   1  21
TORSDOF 1
ENDMDL
MODEL 9
REMARK VINA RESULT:      -6.9      1.973      7.613
REMARK  Name = NuBBE_2402
REMARK  2 active torsions:
REMARK  status: ('A' for Active; 'I' for Inactive)
REMARK    1  A    between atoms: O_1  and  C_2
REMARK    2  A    between atoms: O_1  and  C_3
REMARK                            x       y       z     vdW  Elec       q    Type
REMARK                         _______ _______ _______ _____ _____    ______ ____
ROOT
ATOM      1  C   LIG A   1      -5.859   3.095 134.046  0.00  0.00    +0.124 A 
ATOM      2  C   LIG A   1      -5.573   4.309 133.412  0.00  0.00    +0.092 A 
ATOM      3  C   LIG A   1      -6.548   4.959 132.654  0.00  0.00    +0.135 A 
ATOM      4  C   LIG A   1      -7.826   4.387 132.537  0.00  0.00    +0.059 A 
ATOM      5  C   LIG A   1      -8.119   3.181 133.169  0.00  0.00    +0.019 A 
ATOM      6  C   LIG A   1      -7.134   2.534 133.923  0.00  0.00    +0.046 A 
ATOM      7  C   LIG A   1      -8.756   5.130 131.742  0.00  0.00    +0.146 A 
ATOM      8  C   LIG A   1      -8.459   6.300 131.103  0.00  0.00    +0.043 A 
ATOM      9  C   LIG A   1      -7.100   6.869 131.206  0.00  0.00    +0.268 C 
ATOM     10  O   LIG A   1      -6.170   6.150 132.071  0.00  0.00    -0.486 OA
ATOM     11  C   LIG A   1      -9.645   6.695 130.437  0.00  0.00    +0.031 A 
ATOM     12  C   LIG A   1     -10.589   5.699 130.742  0.00  0.00    +0.140 A 
ATOM     13  O   LIG A   1     -10.033   4.739 131.545  0.00  0.00    -0.454 OA
ATOM     14  C   LIG A   1     -11.908   5.692 130.285  0.00  0.00    +0.096 A 
ATOM     15  C   LIG A   1     -12.234   6.770 129.483  0.00  0.00    +0.170 A 
ATOM     16  C   LIG A   1     -11.337   7.765 129.162  0.00  0.00    +0.167 A 
ATOM     17  C   LIG A   1     -10.027   7.773 129.615  0.00  0.00    +0.061 A 
ATOM     18  O   LIG A   1     -11.886   8.718 128.359  0.00  0.00    -0.453 OA
ATOM     19  C   LIG A   1     -13.229   8.212 128.211  0.00  0.00    +0.466 C 
ATOM     20  O   LIG A   1     -13.457   6.978 128.920  0.00  0.00    -0.453 OA
ENDROOT
BRANCH   1  21
ATOM     21  O   LIG A   1      -4.814   2.563 134.753  0.00  0.00    -0.495 OA
ATOM     22  C   LIG A   1      -3.814   3.467 135.205  0.00  0.00    +0.277 C 
ENDBRANCH   1  21
TORSDOF 1
ENDMDL
