MODEL 1
REMARK VINA RESULT:      -9.2      0.000      0.000
REMARK  Name = NuBBE_382
REMARK  11 active torsions:
REMARK  status: ('A' for Active; 'I' for Inactive)
REMARK    1  A    between atoms: C_3  and  O_4
REMARK    2  A    between atoms: C_5  and  C_6
REMARK    3  A    between atoms: C_12  and  C_13
REMARK    4  A    between atoms: C_15  and  C_27
REMARK    5  A    between atoms: C_17  and  O_19
REMARK    6  A    between atoms: C_20  and  C_21
REMARK    7  A    between atoms: C_20  and  C_22
REMARK    8  A    between atoms: C_22  and  O_23
REMARK    9  A    between atoms: O_23  and  C_24
REMARK   10  A    between atoms: C_30  and  C_31
REMARK   11  A    between atoms: C_34  and  C_35
REMARK                            x       y       z     vdW  Elec       q    Type
REMARK                         _______ _______ _______ _____ _____    ______ ____
ROOT
ATOM      1  O   LIG A   1      -4.617   4.654 120.340  0.00  0.00    -0.284 OA
ATOM      2  C   LIG A   1      -5.663   4.270 120.857  0.00  0.00    +0.221 C 
ATOM      3  C   LIG A   1      -6.943   4.348 120.090  0.00  0.00    +0.167 C 
ATOM      4  C   LIG A   1      -8.081   3.837 120.598  0.00  0.00    +0.002 C 
ATOM      5  C   LIG A   1      -9.387   3.926 119.855  0.00  0.00    +0.048 C 
ATOM      6  C   LIG A   1      -8.020   3.134 121.889  0.00  0.00    -0.014 C 
ATOM      7  C   LIG A   1      -9.013   2.321 122.309  0.00  0.00    +0.009 C 
ATOM      8  C   LIG A   1      -8.857   1.427 123.442  0.00  0.00    +0.005 C 
ATOM      9  C   LIG A   1      -7.805   1.490 124.290  0.00  0.00    -0.034 C 
ATOM     10  C   LIG A   1      -7.478   0.418 125.283  0.00  0.00    -0.038 C 
ATOM     11  C   LIG A   1      -8.048  -0.826 125.327  0.00  0.00    -0.068 C 
ATOM     12  C   LIG A   1      -8.873  -1.489 124.244  0.00  0.00    +0.039 C 
ATOM     13  C   LIG A   1      -7.911  -1.792 126.507  0.00  0.00    +0.037 C 
ATOM     14  C   LIG A   1      -7.127  -1.340 127.766  0.00  0.00    -0.022 C 
ATOM     15  C   LIG A   1      -7.973  -1.612 129.036  0.00  0.00    +0.039 C 
ATOM     16  C   LIG A   1      -7.263  -1.184 130.326  0.00  0.00    +0.132 C 
ATOM     17  C   LIG A   1      -6.795   0.294 130.307  0.00  0.00    +0.091 C 
ATOM     18  C   LIG A   1      -7.974   1.261 130.557  0.00  0.00    +0.025 C 
ATOM     19  C   LIG A   1      -6.103   0.675 128.958  0.00  0.00    +0.025 C 
ATOM     20  C   LIG A   1      -5.859  -2.234 127.897  0.00  0.00    +0.012 C 
ATOM     21  C   LIG A   1      -6.878   0.196 127.711  0.00  0.00    +0.007 C 
ATOM     22  C   LIG A   1      -6.344   0.691 126.315  0.00  0.00    -0.003 C 
ATOM     23  C   LIG A   1      -5.076  -0.079 125.847  0.00  0.00    +0.016 C 
ATOM     24  C   LIG A   1      -5.927   2.176 126.410  0.00  0.00    +0.013 C 
ATOM     25  C   LIG A   1      -5.730   2.813 125.041  0.00  0.00    +0.017 C 
ATOM     26  C   LIG A   1      -7.044   2.844 124.245  0.00  0.00    +0.019 C 
ATOM     27  C   LIG A   1      -7.937   3.943 124.922  0.00  0.00    +0.021 C 
ATOM     28  C   LIG A   1      -6.843   3.285 122.772  0.00  0.00    -0.026 C 
ATOM     29  C   LIG A   1      -5.712   3.798 122.258  0.00  0.00    +0.059 C 
ENDROOT
BRANCH   3  30
ATOM     30  O   LIG A   1      -6.884   4.951 118.846  0.00  0.00    -0.503 OA
ATOM     31  H   LIG A   1      -7.775   4.813 118.460  0.00  0.00    +0.292 HD
ENDBRANCH   3  30
BRANCH  16  32
ATOM     32  O   LIG A   1      -8.163  -1.421 131.410  0.00  0.00    -0.391 OA
ATOM     33  H   LIG A   1      -8.932  -0.836 131.296  0.00  0.00    +0.210 HD
ENDBRANCH  16  32
BRANCH  17  34
ATOM     34  C   LIG A   1      -5.794   0.435 131.469  0.00  0.00    +0.315 C 
ATOM     35  O   LIG A   1      -5.559   1.457 132.086  0.00  0.00    -0.250 OA
BRANCH  34  36
ATOM     36  O   LIG A   1      -5.256  -0.785 131.776  0.00  0.00    -0.468 OA
ATOM     37  C   LIG A   1      -3.831  -0.836 131.831  0.00  0.00    +0.280 C 
ENDBRANCH  34  36
ENDBRANCH  17  34
TORSDOF 4
ENDMDL
MODEL 2
REMARK VINA RESULT:      -8.9      4.303     10.495
REMARK  Name = NuBBE_382
REMARK  11 active torsions:
REMARK  status: ('A' for Active; 'I' for Inactive)
REMARK    1  A    between atoms: C_3  and  O_4
REMARK    2  A    between atoms: C_5  and  C_6
REMARK    3  A    between atoms: C_12  and  C_13
REMARK    4  A    between atoms: C_15  and  C_27
REMARK    5  A    between atoms: C_17  and  O_19
REMARK    6  A    between atoms: C_20  and  C_21
REMARK    7  A    between atoms: C_20  and  C_22
REMARK    8  A    between atoms: C_22  and  O_23
REMARK    9  A    between atoms: O_23  and  C_24
REMARK   10  A    between atoms: C_30  and  C_31
REMARK   11  A    between atoms: C_34  and  C_35
REMARK                            x       y       z     vdW  Elec       q    Type
REMARK                         _______ _______ _______ _____ _____    ______ ____
ROOT
ATOM      1  O   LIG A   1      -1.674  -4.569 134.689  0.00  0.00    -0.284 OA
ATOM      2  C   LIG A   1      -2.860  -4.587 134.369  0.00  0.00    +0.221 C 
ATOM      3  C   LIG A   1      -3.891  -5.003 135.367  0.00  0.00    +0.167 C 
ATOM      4  C   LIG A   1      -5.202  -4.930 135.071  0.00  0.00    +0.002 C 
ATOM      5  C   LIG A   1      -6.259  -5.367 136.050  0.00  0.00    +0.048 C 
ATOM      6  C   LIG A   1      -5.599  -4.361 133.772  0.00  0.00    -0.014 C 
ATOM      7  C   LIG A   1      -6.861  -3.949 133.527  0.00  0.00    +0.009 C 
ATOM      8  C   LIG A   1      -7.205  -3.156 132.361  0.00  0.00    +0.005 C 
ATOM      9  C   LIG A   1      -6.352  -2.954 131.330  0.00  0.00    -0.034 C 
ATOM     10  C   LIG A   1      -6.572  -1.925 130.265  0.00  0.00    -0.038 C 
ATOM     11  C   LIG A   1      -7.521  -0.938 130.296  0.00  0.00    -0.068 C 
ATOM     12  C   LIG A   1      -8.321  -0.482 131.498  0.00  0.00    +0.039 C 
ATOM     13  C   LIG A   1      -7.915  -0.087 129.085  0.00  0.00    +0.037 C 
ATOM     14  C   LIG A   1      -7.251  -0.373 127.714  0.00  0.00    -0.022 C 
ATOM     15  C   LIG A   1      -8.343  -0.500 126.620  0.00  0.00    +0.039 C 
ATOM     16  C   LIG A   1      -7.762  -0.789 125.231  0.00  0.00    +0.132 C 
ATOM     17  C   LIG A   1      -6.835  -2.032 125.201  0.00  0.00    +0.091 C 
ATOM     18  C   LIG A   1      -7.653  -3.343 125.205  0.00  0.00    +0.025 C 
ATOM     19  C   LIG A   1      -5.837  -2.051 126.404  0.00  0.00    +0.025 C 
ATOM     20  C   LIG A   1      -6.393   0.864 127.320  0.00  0.00    +0.012 C 
ATOM     21  C   LIG A   1      -6.502  -1.737 127.762  0.00  0.00    +0.007 C 
ATOM     22  C   LIG A   1      -5.605  -1.910 129.044  0.00  0.00    -0.003 C 
ATOM     23  C   LIG A   1      -4.603  -0.736 129.241  0.00  0.00    +0.016 C 
ATOM     24  C   LIG A   1      -4.743  -3.186 128.912  0.00  0.00    +0.013 C 
ATOM     25  C   LIG A   1      -4.116  -3.603 130.235  0.00  0.00    +0.017 C 
ATOM     26  C   LIG A   1      -5.190  -3.983 131.267  0.00  0.00    +0.019 C 
ATOM     27  C   LIG A   1      -5.770  -5.365 130.803  0.00  0.00    +0.021 C 
ATOM     28  C   LIG A   1      -4.607  -4.205 132.687  0.00  0.00    -0.026 C 
ATOM     29  C   LIG A   1      -3.299  -4.281 132.991  0.00  0.00    +0.059 C 
ENDROOT
BRANCH   3  30
ATOM     30  O   LIG A   1      -3.425  -5.443 136.594  0.00  0.00    -0.503 OA
ATOM     31  H   LIG A   1      -3.109  -4.632 137.046  0.00  0.00    +0.292 HD
ENDBRANCH   3  30
BRANCH  16  32
ATOM     32  O   LIG A   1      -8.861  -0.950 124.331  0.00  0.00    -0.391 OA
ATOM     33  H   LIG A   1      -8.608  -1.609 123.662  0.00  0.00    +0.210 HD
ENDBRANCH  16  32
BRANCH  17  34
ATOM     34  C   LIG A   1      -6.057  -1.947 123.874  0.00  0.00    +0.315 C 
ATOM     35  O   LIG A   1      -6.463  -1.446 122.842  0.00  0.00    -0.250 OA
BRANCH  34  36
ATOM     36  O   LIG A   1      -4.793  -2.443 124.039  0.00  0.00    -0.468 OA
ATOM     37  C   LIG A   1      -4.524  -3.681 123.380  0.00  0.00    +0.280 C 
ENDBRANCH  34  36
ENDBRANCH  17  34
TORSDOF 4
ENDMDL
MODEL 3
REMARK VINA RESULT:      -8.7      3.376     10.012
REMARK  Name = NuBBE_382
REMARK  11 active torsions:
REMARK  status: ('A' for Active; 'I' for Inactive)
REMARK    1  A    between atoms: C_3  and  O_4
REMARK    2  A    between atoms: C_5  and  C_6
REMARK    3  A    between atoms: C_12  and  C_13
REMARK    4  A    between atoms: C_15  and  C_27
REMARK    5  A    between atoms: C_17  and  O_19
REMARK    6  A    between atoms: C_20  and  C_21
REMARK    7  A    between atoms: C_20  and  C_22
REMARK    8  A    between atoms: C_22  and  O_23
REMARK    9  A    between atoms: O_23  and  C_24
REMARK   10  A    between atoms: C_30  and  C_31
REMARK   11  A    between atoms: C_34  and  C_35
REMARK                            x       y       z     vdW  Elec       q    Type
REMARK                         _______ _______ _______ _____ _____    ______ ____
ROOT
ATOM      1  O   LIG A   1      -2.178  -4.868 133.508  0.00  0.00    -0.284 OA
ATOM      2  C   LIG A   1      -3.378  -4.701 133.308  0.00  0.00    +0.221 C 
ATOM      3  C   LIG A   1      -4.375  -5.243 134.279  0.00  0.00    +0.167 C 
ATOM      4  C   LIG A   1      -5.688  -4.983 134.135  0.00  0.00    +0.002 C 
ATOM      5  C   LIG A   1      -6.714  -5.539 135.087  0.00  0.00    +0.048 C 
ATOM      6  C   LIG A   1      -6.111  -4.089 133.044  0.00  0.00    -0.014 C 
ATOM      7  C   LIG A   1      -7.333  -3.516 133.021  0.00  0.00    +0.009 C 
ATOM      8  C   LIG A   1      -7.669  -2.442 132.105  0.00  0.00    +0.005 C 
ATOM      9  C   LIG A   1      -6.876  -2.082 131.070  0.00  0.00    -0.034 C 
ATOM     10  C   LIG A   1      -7.055  -0.815 130.292  0.00  0.00    -0.038 C 
ATOM     11  C   LIG A   1      -7.883   0.220 130.638  0.00  0.00    -0.068 C 
ATOM     12  C   LIG A   1      -8.538   0.452 131.983  0.00  0.00    +0.039 C 
ATOM     13  C   LIG A   1      -8.265   1.365 129.696  0.00  0.00    +0.037 C 
ATOM     14  C   LIG A   1      -7.738   1.351 128.238  0.00  0.00    -0.022 C 
ATOM     15  C   LIG A   1      -8.913   1.588 127.255  0.00  0.00    +0.039 C 
ATOM     16  C   LIG A   1      -8.470   1.582 125.787  0.00  0.00    +0.132 C 
ATOM     17  C   LIG A   1      -7.693   0.301 125.386  0.00  0.00    +0.091 C 
ATOM     18  C   LIG A   1      -8.649  -0.893 125.171  0.00  0.00    +0.025 C 
ATOM     19  C   LIG A   1      -6.619  -0.094 126.452  0.00  0.00    +0.025 C 
ATOM     20  C   LIG A   1      -6.777   2.562 128.055  0.00  0.00    +0.012 C 
ATOM     21  C   LIG A   1      -7.145  -0.049 127.903  0.00  0.00    +0.007 C 
ATOM     22  C   LIG A   1      -6.183  -0.602 129.020  0.00  0.00    -0.003 C 
ATOM     23  C   LIG A   1      -5.045   0.395 129.381  0.00  0.00    +0.016 C 
ATOM     24  C   LIG A   1      -5.481  -1.884 128.519  0.00  0.00    +0.013 C 
ATOM     25  C   LIG A   1      -4.811  -2.657 129.646  0.00  0.00    +0.017 C 
ATOM     26  C   LIG A   1      -5.844  -3.170 130.663  0.00  0.00    +0.019 C 
ATOM     27  C   LIG A   1      -6.607  -4.343 129.955  0.00  0.00    +0.021 C 
ATOM     28  C   LIG A   1      -5.188  -3.773 131.932  0.00  0.00    -0.026 C 
ATOM     29  C   LIG A   1      -3.879  -4.039 132.084  0.00  0.00    +0.059 C 
ENDROOT
BRANCH   3  30
ATOM     30  O   LIG A   1      -3.874  -6.002 135.323  0.00  0.00    -0.503 OA
ATOM     31  H   LIG A   1      -4.511  -6.741 135.423  0.00  0.00    +0.292 HD
ENDBRANCH   3  30
BRANCH  16  32
ATOM     32  O   LIG A   1      -9.642   1.740 124.984  0.00  0.00    -0.391 OA
ATOM     33  H   LIG A   1     -10.282   2.272 125.488  0.00  0.00    +0.210 HD
ENDBRANCH  16  32
BRANCH  17  34
ATOM     34  C   LIG A   1      -7.008   0.625 124.045  0.00  0.00    +0.315 C 
ATOM     35  O   LIG A   1      -6.778  -0.170 123.153  0.00  0.00    -0.250 OA
BRANCH  34  36
ATOM     36  O   LIG A   1      -6.764   1.968 123.954  0.00  0.00    -0.468 OA
ATOM     37  C   LIG A   1      -6.763   2.509 122.633  0.00  0.00    +0.280 C 
ENDBRANCH  34  36
ENDBRANCH  17  34
TORSDOF 4
ENDMDL
MODEL 4
REMARK VINA RESULT:      -8.7      7.030      8.855
REMARK  Name = NuBBE_382
REMARK  11 active torsions:
REMARK  status: ('A' for Active; 'I' for Inactive)
REMARK    1  A    between atoms: C_3  and  O_4
REMARK    2  A    between atoms: C_5  and  C_6
REMARK    3  A    between atoms: C_12  and  C_13
REMARK    4  A    between atoms: C_15  and  C_27
REMARK    5  A    between atoms: C_17  and  O_19
REMARK    6  A    between atoms: C_20  and  C_21
REMARK    7  A    between atoms: C_20  and  C_22
REMARK    8  A    between atoms: C_22  and  O_23
REMARK    9  A    between atoms: O_23  and  C_24
REMARK   10  A    between atoms: C_30  and  C_31
REMARK   11  A    between atoms: C_34  and  C_35
REMARK                            x       y       z     vdW  Elec       q    Type
REMARK                         _______ _______ _______ _____ _____    ______ ____
ROOT
ATOM      1  O   LIG A   1     -13.416   7.459 131.889  0.00  0.00    -0.284 OA
ATOM      2  C   LIG A   1     -12.358   7.208 131.318  0.00  0.00    +0.221 C 
ATOM      3  C   LIG A   1     -12.009   7.925 130.055  0.00  0.00    +0.167 C 
ATOM      4  C   LIG A   1     -10.810   7.743 129.469  0.00  0.00    +0.002 C 
ATOM      5  C   LIG A   1     -10.445   8.434 128.182  0.00  0.00    +0.048 C 
ATOM      6  C   LIG A   1      -9.824   6.881 130.142  0.00  0.00    -0.014 C 
ATOM      7  C   LIG A   1      -8.515   6.901 129.815  0.00  0.00    +0.009 C 
ATOM      8  C   LIG A   1      -7.501   6.260 130.632  0.00  0.00    +0.005 C 
ATOM      9  C   LIG A   1      -7.799   5.419 131.649  0.00  0.00    -0.034 C 
ATOM     10  C   LIG A   1      -6.801   4.973 132.673  0.00  0.00    -0.038 C 
ATOM     11  C   LIG A   1      -5.548   5.498 132.843  0.00  0.00    -0.068 C 
ATOM     12  C   LIG A   1      -5.020   6.799 132.275  0.00  0.00    +0.039 C 
ATOM     13  C   LIG A   1      -4.452   4.847 133.691  0.00  0.00    +0.037 C 
ATOM     14  C   LIG A   1      -4.733   3.481 134.369  0.00  0.00    -0.022 C 
ATOM     15  C   LIG A   1      -3.578   2.495 134.059  0.00  0.00    +0.039 C 
ATOM     16  C   LIG A   1      -3.789   1.115 134.694  0.00  0.00    +0.132 C 
ATOM     17  C   LIG A   1      -5.150   0.471 134.324  0.00  0.00    +0.091 C 
ATOM     18  C   LIG A   1      -5.123  -0.117 132.895  0.00  0.00    +0.025 C 
ATOM     19  C   LIG A   1      -6.332   1.489 134.433  0.00  0.00    +0.025 C 
ATOM     20  C   LIG A   1      -4.715   3.690 135.911  0.00  0.00    +0.012 C 
ATOM     21  C   LIG A   1      -6.031   2.855 133.779  0.00  0.00    +0.007 C 
ATOM     22  C   LIG A   1      -7.228   3.873 133.688  0.00  0.00    -0.003 C 
ATOM     23  C   LIG A   1      -7.533   4.568 135.047  0.00  0.00    +0.016 C 
ATOM     24  C   LIG A   1      -8.522   3.126 133.295  0.00  0.00    +0.013 C 
ATOM     25  C   LIG A   1      -9.630   4.074 132.856  0.00  0.00    +0.017 C 
ATOM     26  C   LIG A   1      -9.238   4.839 131.581  0.00  0.00    +0.019 C 
ATOM     27  C   LIG A   1      -9.303   3.797 130.411  0.00  0.00    +0.021 C 
ATOM     28  C   LIG A   1     -10.243   5.965 131.225  0.00  0.00    -0.026 C 
ATOM     29  C   LIG A   1     -11.443   6.153 131.802  0.00  0.00    +0.059 C 
ENDROOT
BRANCH   3  30
ATOM     30  O   LIG A   1     -12.967   8.783 129.542  0.00  0.00    -0.503 OA
ATOM     31  H   LIG A   1     -13.649   8.843 130.245  0.00  0.00    +0.292 HD
ENDBRANCH   3  30
BRANCH  16  32
ATOM     32  O   LIG A   1      -2.702   0.283 134.284  0.00  0.00    -0.391 OA
ATOM     33  H   LIG A   1      -3.054  -0.606 134.105  0.00  0.00    +0.210 HD
ENDBRANCH  16  32
BRANCH  17  34
ATOM     34  C   LIG A   1      -5.357  -0.683 135.322  0.00  0.00    +0.315 C 
ATOM     35  O   LIG A   1      -4.570  -1.029 136.184  0.00  0.00    -0.250 OA
BRANCH  34  36
ATOM     36  O   LIG A   1      -6.604  -1.223 135.164  0.00  0.00    -0.468 OA
ATOM     37  C   LIG A   1      -6.680  -2.645 135.263  0.00  0.00    +0.280 C 
ENDBRANCH  34  36
ENDBRANCH  17  34
TORSDOF 4
ENDMDL
MODEL 5
REMARK VINA RESULT:      -8.6      3.088      5.597
REMARK  Name = NuBBE_382
REMARK  11 active torsions:
REMARK  status: ('A' for Active; 'I' for Inactive)
REMARK    1  A    between atoms: C_3  and  O_4
REMARK    2  A    between atoms: C_5  and  C_6
REMARK    3  A    between atoms: C_12  and  C_13
REMARK    4  A    between atoms: C_15  and  C_27
REMARK    5  A    between atoms: C_17  and  O_19
REMARK    6  A    between atoms: C_20  and  C_21
REMARK    7  A    between atoms: C_20  and  C_22
REMARK    8  A    between atoms: C_22  and  O_23
REMARK    9  A    between atoms: O_23  and  C_24
REMARK   10  A    between atoms: C_30  and  C_31
REMARK   11  A    between atoms: C_34  and  C_35
REMARK                            x       y       z     vdW  Elec       q    Type
REMARK                         _______ _______ _______ _____ _____    ______ ____
ROOT
ATOM      1  O   LIG A   1      -9.733  -2.381 123.239  0.00  0.00    -0.284 OA
ATOM      2  C   LIG A   1      -9.264  -1.491 123.943  0.00  0.00    +0.221 C 
ATOM      3  C   LIG A   1      -9.438  -0.062 123.545  0.00  0.00    +0.167 C 
ATOM      4  C   LIG A   1      -9.024   0.932 124.353  0.00  0.00    +0.002 C 
ATOM      5  C   LIG A   1      -9.164   2.380 123.963  0.00  0.00    +0.048 C 
ATOM      6  C   LIG A   1      -8.467   0.581 125.670  0.00  0.00    -0.014 C 
ATOM      7  C   LIG A   1      -8.338   1.491 126.659  0.00  0.00    +0.009 C 
ATOM      8  C   LIG A   1      -8.040   1.112 128.028  0.00  0.00    +0.005 C 
ATOM      9  C   LIG A   1      -7.658  -0.137 128.380  0.00  0.00    -0.034 C 
ATOM     10  C   LIG A   1      -7.620  -0.622 129.796  0.00  0.00    -0.038 C 
ATOM     11  C   LIG A   1      -8.147   0.034 130.876  0.00  0.00    -0.068 C 
ATOM     12  C   LIG A   1      -9.123   1.193 130.850  0.00  0.00    +0.039 C 
ATOM     13  C   LIG A   1      -7.850  -0.332 132.332  0.00  0.00    +0.037 C 
ATOM     14  C   LIG A   1      -6.854  -1.481 132.634  0.00  0.00    -0.022 C 
ATOM     15  C   LIG A   1      -5.803  -1.004 133.670  0.00  0.00    +0.039 C 
ATOM     16  C   LIG A   1      -4.775  -2.087 134.016  0.00  0.00    +0.132 C 
ATOM     17  C   LIG A   1      -4.063  -2.676 132.771  0.00  0.00    +0.091 C 
ATOM     18  C   LIG A   1      -2.972  -1.718 132.241  0.00  0.00    +0.025 C 
ATOM     19  C   LIG A   1      -5.065  -2.995 131.614  0.00  0.00    +0.025 C 
ATOM     20  C   LIG A   1      -7.636  -2.638 133.320  0.00  0.00    +0.012 C 
ATOM     21  C   LIG A   1      -6.072  -1.856 131.341  0.00  0.00    +0.007 C 
ATOM     22  C   LIG A   1      -6.999  -2.022 130.079  0.00  0.00    -0.003 C 
ATOM     23  C   LIG A   1      -8.166  -3.024 130.316  0.00  0.00    +0.016 C 
ATOM     24  C   LIG A   1      -6.181  -2.594 128.899  0.00  0.00    +0.013 C 
ATOM     25  C   LIG A   1      -6.909  -2.461 127.569  0.00  0.00    +0.017 C 
ATOM     26  C   LIG A   1      -7.121  -0.985 127.194  0.00  0.00    +0.019 C 
ATOM     27  C   LIG A   1      -5.712  -0.434 126.781  0.00  0.00    +0.021 C 
ATOM     28  C   LIG A   1      -8.043  -0.806 125.960  0.00  0.00    -0.026 C 
ATOM     29  C   LIG A   1      -8.459  -1.792 125.146  0.00  0.00    +0.059 C 
ENDROOT
BRANCH   3  30
ATOM     30  O   LIG A   1     -10.051   0.173 122.326  0.00  0.00    -0.503 OA
ATOM     31  H   LIG A   1     -10.209   1.141 122.309  0.00  0.00    +0.292 HD
ENDBRANCH   3  30
BRANCH  16  32
ATOM     32  O   LIG A   1      -3.831  -1.510 134.919  0.00  0.00    -0.391 OA
ATOM     33  H   LIG A   1      -3.212  -2.209 135.195  0.00  0.00    +0.210 HD
ENDBRANCH  16  32
BRANCH  17  34
ATOM     34  C   LIG A   1      -3.382  -3.973 133.247  0.00  0.00    +0.315 C 
ATOM     35  O   LIG A   1      -3.835  -5.097 133.137  0.00  0.00    -0.250 OA
BRANCH  34  36
ATOM     36  O   LIG A   1      -2.138  -3.695 133.745  0.00  0.00    -0.468 OA
ATOM     37  C   LIG A   1      -1.733  -4.474 134.869  0.00  0.00    +0.280 C 
ENDBRANCH  34  36
ENDBRANCH  17  34
TORSDOF 4
ENDMDL
MODEL 6
REMARK VINA RESULT:      -8.5      2.440      4.808
REMARK  Name = NuBBE_382
REMARK  11 active torsions:
REMARK  status: ('A' for Active; 'I' for Inactive)
REMARK    1  A    between atoms: C_3  and  O_4
REMARK    2  A    between atoms: C_5  and  C_6
REMARK    3  A    between atoms: C_12  and  C_13
REMARK    4  A    between atoms: C_15  and  C_27
REMARK    5  A    between atoms: C_17  and  O_19
REMARK    6  A    between atoms: C_20  and  C_21
REMARK    7  A    between atoms: C_20  and  C_22
REMARK    8  A    between atoms: C_22  and  O_23
REMARK    9  A    between atoms: O_23  and  C_24
REMARK   10  A    between atoms: C_30  and  C_31
REMARK   11  A    between atoms: C_34  and  C_35
REMARK                            x       y       z     vdW  Elec       q    Type
REMARK                         _______ _______ _______ _____ _____    ______ ____
ROOT
ATOM      1  O   LIG A   1     -10.160   1.929 123.212  0.00  0.00    -0.284 OA
ATOM      2  C   LIG A   1      -8.992   2.007 123.584  0.00  0.00    +0.221 C 
ATOM      3  C   LIG A   1      -8.064   2.969 122.918  0.00  0.00    +0.167 C 
ATOM      4  C   LIG A   1      -6.811   3.145 123.376  0.00  0.00    +0.002 C 
ATOM      5  C   LIG A   1      -5.848   4.090 122.707  0.00  0.00    +0.048 C 
ATOM      6  C   LIG A   1      -6.401   2.426 124.594  0.00  0.00    -0.014 C 
ATOM      7  C   LIG A   1      -5.309   2.781 125.303  0.00  0.00    +0.009 C 
ATOM      8  C   LIG A   1      -5.040   2.259 126.630  0.00  0.00    +0.005 C 
ATOM      9  C   LIG A   1      -5.729   1.226 127.167  0.00  0.00    -0.034 C 
ATOM     10  C   LIG A   1      -5.667   0.856 128.617  0.00  0.00    -0.038 C 
ATOM     11  C   LIG A   1      -5.093   1.609 129.606  0.00  0.00    -0.068 C 
ATOM     12  C   LIG A   1      -4.686   3.065 129.522  0.00  0.00    +0.039 C 
ATOM     13  C   LIG A   1      -4.788   1.089 131.014  0.00  0.00    +0.037 C 
ATOM     14  C   LIG A   1      -5.091  -0.393 131.353  0.00  0.00    -0.022 C 
ATOM     15  C   LIG A   1      -3.849  -1.043 132.014  0.00  0.00    +0.039 C 
ATOM     16  C   LIG A   1      -4.071  -2.517 132.375  0.00  0.00    +0.132 C 
ATOM     17  C   LIG A   1      -4.545  -3.377 131.175  0.00  0.00    +0.091 C 
ATOM     18  C   LIG A   1      -3.373  -3.717 130.228  0.00  0.00    +0.025 C 
ATOM     19  C   LIG A   1      -5.673  -2.671 130.353  0.00  0.00    +0.025 C 
ATOM     20  C   LIG A   1      -6.215  -0.426 132.430  0.00  0.00    +0.012 C 
ATOM     21  C   LIG A   1      -5.375  -1.188 130.045  0.00  0.00    +0.007 C 
ATOM     22  C   LIG A   1      -6.373  -0.454 129.074  0.00  0.00    -0.003 C 
ATOM     23  C   LIG A   1      -7.709  -0.062 129.767  0.00  0.00    +0.016 C 
ATOM     24  C   LIG A   1      -6.760  -1.396 127.911  0.00  0.00    +0.013 C 
ATOM     25  C   LIG A   1      -7.436  -0.656 126.765  0.00  0.00    +0.017 C 
ATOM     26  C   LIG A   1      -6.484   0.363 126.119  0.00  0.00    +0.019 C 
ATOM     27  C   LIG A   1      -5.434  -0.474 125.309  0.00  0.00    +0.021 C 
ATOM     28  C   LIG A   1      -7.197   1.284 125.095  0.00  0.00    -0.026 C 
ATOM     29  C   LIG A   1      -8.447   1.115 124.629  0.00  0.00    +0.059 C 
ENDROOT
BRANCH   3  30
ATOM     30  O   LIG A   1      -8.566   3.665 121.832  0.00  0.00    -0.503 OA
ATOM     31  H   LIG A   1      -8.117   4.536 121.864  0.00  0.00    +0.292 HD
ENDBRANCH   3  30
BRANCH  16  32
ATOM     32  O   LIG A   1      -2.844  -3.018 132.908  0.00  0.00    -0.391 OA
ATOM     33  H   LIG A   1      -3.030  -3.865 133.349  0.00  0.00    +0.210 HD
ENDBRANCH  16  32
BRANCH  17  34
ATOM     34  C   LIG A   1      -5.079  -4.689 131.780  0.00  0.00    +0.315 C 
ATOM     35  O   LIG A   1      -5.462  -5.659 131.153  0.00  0.00    -0.250 OA
BRANCH  34  36
ATOM     36  O   LIG A   1      -4.983  -4.650 133.145  0.00  0.00    -0.468 OA
ATOM     37  C   LIG A   1      -6.013  -5.334 133.857  0.00  0.00    +0.280 C 
ENDBRANCH  34  36
ENDBRANCH  17  34
TORSDOF 4
ENDMDL
MODEL 7
REMARK VINA RESULT:      -8.3      6.460     10.663
REMARK  Name = NuBBE_382
REMARK  11 active torsions:
REMARK  status: ('A' for Active; 'I' for Inactive)
REMARK    1  A    between atoms: C_3  and  O_4
REMARK    2  A    between atoms: C_5  and  C_6
REMARK    3  A    between atoms: C_12  and  C_13
REMARK    4  A    between atoms: C_15  and  C_27
REMARK    5  A    between atoms: C_17  and  O_19
REMARK    6  A    between atoms: C_20  and  C_21
REMARK    7  A    between atoms: C_20  and  C_22
REMARK    8  A    between atoms: C_22  and  O_23
REMARK    9  A    between atoms: O_23  and  C_24
REMARK   10  A    between atoms: C_30  and  C_31
REMARK   11  A    between atoms: C_34  and  C_35
REMARK                            x       y       z     vdW  Elec       q    Type
REMARK                         _______ _______ _______ _____ _____    ______ ____
ROOT
ATOM      1  O   LIG A   1      -1.552  10.756 132.480  0.00  0.00    -0.284 OA
ATOM      2  C   LIG A   1      -1.819   9.780 133.176  0.00  0.00    +0.221 C 
ATOM      3  C   LIG A   1      -1.236   9.665 134.547  0.00  0.00    +0.167 C 
ATOM      4  C   LIG A   1      -1.597   8.658 135.365  0.00  0.00    +0.002 C 
ATOM      5  C   LIG A   1      -1.005   8.506 136.741  0.00  0.00    +0.048 C 
ATOM      6  C   LIG A   1      -2.635   7.719 134.908  0.00  0.00    -0.014 C 
ATOM      7  C   LIG A   1      -3.286   6.901 135.761  0.00  0.00    +0.009 C 
ATOM      8  C   LIG A   1      -4.477   6.166 135.376  0.00  0.00    +0.005 C 
ATOM      9  C   LIG A   1      -4.900   6.070 134.094  0.00  0.00    -0.034 C 
ATOM     10  C   LIG A   1      -6.256   5.567 133.707  0.00  0.00    -0.038 C 
ATOM     11  C   LIG A   1      -7.297   5.342 134.568  0.00  0.00    -0.068 C 
ATOM     12  C   LIG A   1      -7.416   5.825 135.998  0.00  0.00    +0.039 C 
ATOM     13  C   LIG A   1      -8.564   4.567 134.198  0.00  0.00    +0.037 C 
ATOM     14  C   LIG A   1      -8.682   3.941 132.785  0.00  0.00    -0.022 C 
ATOM     15  C   LIG A   1      -9.105   2.455 132.904  0.00  0.00    +0.039 C 
ATOM     16  C   LIG A   1      -9.237   1.763 131.541  0.00  0.00    +0.132 C 
ATOM     17  C   LIG A   1      -7.962   1.884 130.667  0.00  0.00    +0.091 C 
ATOM     18  C   LIG A   1      -6.866   0.900 131.133  0.00  0.00    +0.025 C 
ATOM     19  C   LIG A   1      -7.379   3.335 130.671  0.00  0.00    +0.025 C 
ATOM     20  C   LIG A   1      -9.840   4.657 132.030  0.00  0.00    +0.012 C 
ATOM     21  C   LIG A   1      -7.293   3.959 132.081  0.00  0.00    +0.007 C 
ATOM     22  C   LIG A   1      -6.555   5.345 132.195  0.00  0.00    -0.003 C 
ATOM     23  C   LIG A   1      -7.427   6.535 131.700  0.00  0.00    +0.016 C 
ATOM     24  C   LIG A   1      -5.295   5.343 131.301  0.00  0.00    +0.013 C 
ATOM     25  C   LIG A   1      -4.356   6.499 131.617  0.00  0.00    +0.017 C 
ATOM     26  C   LIG A   1      -3.800   6.392 133.046  0.00  0.00    +0.019 C 
ATOM     27  C   LIG A   1      -2.767   5.211 133.024  0.00  0.00    +0.021 C 
ATOM     28  C   LIG A   1      -3.014   7.656 133.480  0.00  0.00    -0.026 C 
ATOM     29  C   LIG A   1      -2.647   8.665 132.669  0.00  0.00    +0.059 C 
ENDROOT
BRANCH   3  30
ATOM     30  O   LIG A   1      -0.333  10.644 134.921  0.00  0.00    -0.503 OA
ATOM     31  H   LIG A   1       0.461  10.474 134.371  0.00  0.00    +0.292 HD
ENDBRANCH   3  30
BRANCH  16  32
ATOM     32  O   LIG A   1      -9.562   0.394 131.784  0.00  0.00    -0.391 OA
ATOM     33  H   LIG A   1      -9.237  -0.131 131.032  0.00  0.00    +0.210 HD
ENDBRANCH  16  32
BRANCH  17  34
ATOM     34  C   LIG A   1      -8.391   1.495 129.239  0.00  0.00    +0.315 C 
ATOM     35  O   LIG A   1      -8.914   2.234 128.426  0.00  0.00    -0.250 OA
BRANCH  34  36
ATOM     36  O   LIG A   1      -8.020   0.205 128.973  0.00  0.00    -0.468 OA
ATOM     37  C   LIG A   1      -7.738  -0.087 127.605  0.00  0.00    +0.280 C 
ENDBRANCH  34  36
ENDBRANCH  17  34
TORSDOF 4
ENDMDL
MODEL 8
REMARK VINA RESULT:      -8.2      3.929      7.507
REMARK  Name = NuBBE_382
REMARK  11 active torsions:
REMARK  status: ('A' for Active; 'I' for Inactive)
REMARK    1  A    between atoms: C_3  and  O_4
REMARK    2  A    between atoms: C_5  and  C_6
REMARK    3  A    between atoms: C_12  and  C_13
REMARK    4  A    between atoms: C_15  and  C_27
REMARK    5  A    between atoms: C_17  and  O_19
REMARK    6  A    between atoms: C_20  and  C_21
REMARK    7  A    between atoms: C_20  and  C_22
REMARK    8  A    between atoms: C_22  and  O_23
REMARK    9  A    between atoms: O_23  and  C_24
REMARK   10  A    between atoms: C_30  and  C_31
REMARK   11  A    between atoms: C_34  and  C_35
REMARK                            x       y       z     vdW  Elec       q    Type
REMARK                         _______ _______ _______ _____ _____    ______ ____
ROOT
ATOM      1  O   LIG A   1      -3.959   7.937 128.832  0.00  0.00    -0.284 OA
ATOM      2  C   LIG A   1      -3.755   6.780 129.191  0.00  0.00    +0.221 C 
ATOM      3  C   LIG A   1      -3.045   6.516 130.478  0.00  0.00    +0.167 C 
ATOM      4  C   LIG A   1      -2.904   5.260 130.940  0.00  0.00    +0.002 C 
ATOM      5  C   LIG A   1      -2.170   4.966 132.222  0.00  0.00    +0.048 C 
ATOM      6  C   LIG A   1      -3.532   4.160 130.189  0.00  0.00    -0.014 C 
ATOM      7  C   LIG A   1      -3.727   2.940 130.734  0.00  0.00    +0.009 C 
ATOM      8  C   LIG A   1      -4.569   1.937 130.109  0.00  0.00    +0.005 C 
ATOM      9  C   LIG A   1      -5.042   2.055 128.847  0.00  0.00    -0.034 C 
ATOM     10  C   LIG A   1      -6.126   1.187 128.286  0.00  0.00    -0.038 C 
ATOM     11  C   LIG A   1      -6.908   0.325 129.007  0.00  0.00    -0.068 C 
ATOM     12  C   LIG A   1      -7.068   0.283 130.512  0.00  0.00    +0.039 C 
ATOM     13  C   LIG A   1      -7.802  -0.750 128.382  0.00  0.00    +0.037 C 
ATOM     14  C   LIG A   1      -7.802  -0.931 126.843  0.00  0.00    -0.022 C 
ATOM     15  C   LIG A   1      -7.599  -2.427 126.492  0.00  0.00    +0.039 C 
ATOM     16  C   LIG A   1      -7.582  -2.686 124.980  0.00  0.00    +0.132 C 
ATOM     17  C   LIG A   1      -6.546  -1.817 124.221  0.00  0.00    +0.091 C 
ATOM     18  C   LIG A   1      -5.113  -2.368 124.398  0.00  0.00    +0.025 C 
ATOM     19  C   LIG A   1      -6.577  -0.324 124.684  0.00  0.00    +0.025 C 
ATOM     20  C   LIG A   1      -9.214  -0.554 126.308  0.00  0.00    +0.012 C 
ATOM     21  C   LIG A   1      -6.605  -0.155 126.219  0.00  0.00    +0.007 C 
ATOM     22  C   LIG A   1      -6.458   1.313 126.770  0.00  0.00    -0.003 C 
ATOM     23  C   LIG A   1      -7.769   2.141 126.635  0.00  0.00    +0.016 C 
ATOM     24  C   LIG A   1      -5.390   2.074 125.954  0.00  0.00    +0.013 C 
ATOM     25  C   LIG A   1      -4.950   3.364 126.634  0.00  0.00    +0.017 C 
ATOM     26  C   LIG A   1      -4.261   3.079 127.979  0.00  0.00    +0.019 C 
ATOM     27  C   LIG A   1      -2.858   2.473 127.629  0.00  0.00    +0.021 C 
ATOM     28  C   LIG A   1      -3.993   4.367 128.799  0.00  0.00    -0.026 C 
ATOM     29  C   LIG A   1      -4.128   5.626 128.345  0.00  0.00    +0.059 C 
ENDROOT
BRANCH   3  30
ATOM     30  O   LIG A   1      -2.563   7.621 131.158  0.00  0.00    -0.503 OA
ATOM     31  H   LIG A   1      -3.345   7.989 131.621  0.00  0.00    +0.292 HD
ENDBRANCH   3  30
BRANCH  16  32
ATOM     32  O   LIG A   1      -7.322  -4.077 124.786  0.00  0.00    -0.391 OA
ATOM     33  H   LIG A   1      -7.512  -4.538 125.621  0.00  0.00    +0.210 HD
ENDBRANCH  16  32
BRANCH  17  34
ATOM     34  C   LIG A   1      -6.924  -1.913 122.731  0.00  0.00    +0.315 C 
ATOM     35  O   LIG A   1      -6.153  -1.822 121.794  0.00  0.00    -0.250 OA
BRANCH  34  36
ATOM     36  O   LIG A   1      -8.254  -2.206 122.603  0.00  0.00    -0.468 OA
ATOM     37  C   LIG A   1      -9.131  -1.081 122.536  0.00  0.00    +0.280 C 
ENDBRANCH  34  36
ENDBRANCH  17  34
TORSDOF 4
ENDMDL
MODEL 9
REMARK VINA RESULT:      -8.1      3.742      5.872
REMARK  Name = NuBBE_382
REMARK  11 active torsions:
REMARK  status: ('A' for Active; 'I' for Inactive)
REMARK    1  A    between atoms: C_3  and  O_4
REMARK    2  A    between atoms: C_5  and  C_6
REMARK    3  A    between atoms: C_12  and  C_13
REMARK    4  A    between atoms: C_15  and  C_27
REMARK    5  A    between atoms: C_17  and  O_19
REMARK    6  A    between atoms: C_20  and  C_21
REMARK    7  A    between atoms: C_20  and  C_22
REMARK    8  A    between atoms: C_22  and  O_23
REMARK    9  A    between atoms: O_23  and  C_24
REMARK   10  A    between atoms: C_30  and  C_31
REMARK   11  A    between atoms: C_34  and  C_35
REMARK                            x       y       z     vdW  Elec       q    Type
REMARK                         _______ _______ _______ _____ _____    ______ ____
ROOT
ATOM      1  O   LIG A   1     -10.911   1.043 123.983  0.00  0.00    -0.284 OA
ATOM      2  C   LIG A   1      -9.828   0.634 124.392  0.00  0.00    +0.221 C 
ATOM      3  C   LIG A   1      -9.071  -0.381 123.600  0.00  0.00    +0.167 C 
ATOM      4  C   LIG A   1      -7.836  -0.765 123.975  0.00  0.00    +0.002 C 
ATOM      5  C   LIG A   1      -7.064  -1.806 123.207  0.00  0.00    +0.048 C 
ATOM      6  C   LIG A   1      -7.219  -0.106 125.138  0.00  0.00    -0.014 C 
ATOM      7  C   LIG A   1      -5.893  -0.181 125.383  0.00  0.00    +0.009 C 
ATOM      8  C   LIG A   1      -5.236   0.665 126.362  0.00  0.00    +0.005 C 
ATOM      9  C   LIG A   1      -5.915   1.429 127.248  0.00  0.00    -0.034 C 
ATOM     10  C   LIG A   1      -5.278   2.509 128.067  0.00  0.00    -0.038 C 
ATOM     11  C   LIG A   1      -4.013   3.001 127.888  0.00  0.00    -0.068 C 
ATOM     12  C   LIG A   1      -3.120   2.801 126.681  0.00  0.00    +0.039 C 
ATOM     13  C   LIG A   1      -3.286   3.890 128.901  0.00  0.00    +0.037 C 
ATOM     14  C   LIG A   1      -3.982   4.228 130.244  0.00  0.00    -0.022 C 
ATOM     15  C   LIG A   1      -3.013   3.946 131.421  0.00  0.00    +0.039 C 
ATOM     16  C   LIG A   1      -3.634   4.252 132.790  0.00  0.00    +0.132 C 
ATOM     17  C   LIG A   1      -4.983   3.525 133.027  0.00  0.00    +0.091 C 
ATOM     18  C   LIG A   1      -4.764   2.038 133.385  0.00  0.00    +0.025 C 
ATOM     19  C   LIG A   1      -5.927   3.614 131.784  0.00  0.00    +0.025 C 
ATOM     20  C   LIG A   1      -4.261   5.759 130.278  0.00  0.00    +0.012 C 
ATOM     21  C   LIG A   1      -5.218   3.304 130.448  0.00  0.00    +0.007 C 
ATOM     22  C   LIG A   1      -6.133   3.197 129.171  0.00  0.00    -0.003 C 
ATOM     23  C   LIG A   1      -6.580   4.588 128.633  0.00  0.00    +0.016 C 
ATOM     24  C   LIG A   1      -7.434   2.440 129.520  0.00  0.00    +0.013 C 
ATOM     25  C   LIG A   1      -8.201   2.001 128.281  0.00  0.00    +0.017 C 
ATOM     26  C   LIG A   1      -7.392   0.991 127.451  0.00  0.00    +0.019 C 
ATOM     27  C   LIG A   1      -7.409  -0.352 128.262  0.00  0.00    +0.021 C 
ATOM     28  C   LIG A   1      -8.043   0.685 126.077  0.00  0.00    -0.026 C 
ATOM     29  C   LIG A   1      -9.276   1.062 125.695  0.00  0.00    +0.059 C 
ENDROOT
BRANCH   3  30
ATOM     30  O   LIG A   1      -9.699  -0.882 122.472  0.00  0.00    -0.503 OA
ATOM     31  H   LIG A   1      -9.899  -0.091 121.927  0.00  0.00    +0.292 HD
ENDBRANCH   3  30
BRANCH  16  32
ATOM     32  O   LIG A   1      -2.677   3.891 133.786  0.00  0.00    -0.391 OA
ATOM     33  H   LIG A   1      -1.980   3.364 133.358  0.00  0.00    +0.210 HD
ENDBRANCH  16  32
BRANCH  17  34
ATOM     34  C   LIG A   1      -5.635   4.226 134.233  0.00  0.00    +0.315 C 
ATOM     35  O   LIG A   1      -5.179   5.182 134.833  0.00  0.00    -0.250 OA
BRANCH  34  36
ATOM     36  O   LIG A   1      -6.859   3.673 134.492  0.00  0.00    -0.468 OA
ATOM     37  C   LIG A   1      -7.891   4.594 134.848  0.00  0.00    +0.280 C 
ENDBRANCH  34  36
ENDBRANCH  17  34
TORSDOF 4
ENDMDL
