MODEL 1
REMARK VINA RESULT:      -8.2      0.000      0.000
REMARK  Name = NuBBE_1003
REMARK  13 active torsions:
REMARK  status: ('A' for Active; 'I' for Inactive)
REMARK    1  A    between atoms: C_1  and  C_2
REMARK    2  A    between atoms: C_2  and  C_3
REMARK    3  A    between atoms: C_8  and  C_9
REMARK    4  A    between atoms: C_12  and  C_14
REMARK    5  A    between atoms: C_14  and  C_16
REMARK    6  A    between atoms: C_14  and  C_23
REMARK    7  A    between atoms: C_16  and  C_17
REMARK    8  A    between atoms: C_17  and  C_18
REMARK    9  A    between atoms: C_18  and  C_19
REMARK   10  A    between atoms: C_19  and  C_20
REMARK   11  A    between atoms: C_19  and  C_21
REMARK   12  A    between atoms: C_24  and  C_25
REMARK   13  A    between atoms: C_33  and  O_35
REMARK                            x       y       z     vdW  Elec       q    Type
REMARK                         _______ _______ _______ _____ _____    ______ ____
ROOT
ATOM      1  C   LIG A   1      -6.262  -1.656 122.872  0.00  0.00    +0.014 C 
ATOM      2  C   LIG A   1      -7.325  -1.865 123.982  0.00  0.00    -0.006 C 
ATOM      3  C   LIG A   1      -7.323  -3.362 124.371  0.00  0.00    +0.014 C 
ATOM      4  C   LIG A   1      -7.008  -0.999 125.258  0.00  0.00    +0.004 C 
ATOM      5  C   LIG A   1      -5.541  -1.221 125.728  0.00  0.00    +0.005 C 
ATOM      6  C   LIG A   1      -4.971  -0.188 126.688  0.00  0.00    +0.005 C 
ATOM      7  C   LIG A   1      -4.975   1.215 126.056  0.00  0.00    +0.002 C 
ATOM      8  C   LIG A   1      -4.315   2.342 126.979  0.00  0.00    -0.023 C 
ATOM      9  C   LIG A   1      -4.275   1.936 128.474  0.00  0.00    +0.012 C 
ATOM     10  C   LIG A   1      -2.858   2.632 126.536  0.00  0.00    +0.008 C 
ATOM     11  C   LIG A   1      -2.528   4.021 127.095  0.00  0.00    +0.005 C 
ATOM     12  C   LIG A   1      -3.855   4.836 127.183  0.00  0.00    -0.002 C 
ATOM     13  C   LIG A   1      -4.976   3.761 126.790  0.00  0.00    -0.023 C 
ATOM     14  C   LIG A   1      -6.264   3.872 127.603  0.00  0.00    +0.012 C 
ATOM     15  C   LIG A   1      -5.339   3.904 125.272  0.00  0.00    +0.008 C 
ATOM     16  C   LIG A   1      -6.417   2.915 124.808  0.00  0.00    +0.008 C 
ATOM     17  C   LIG A   1      -6.382   1.588 125.554  0.00  0.00    -0.019 C 
ATOM     18  C   LIG A   1      -7.562   1.210 126.422  0.00  0.00    +0.015 C 
ATOM     19  C   LIG A   1      -7.395   0.490 125.112  0.00  0.00    -0.019 C 
ATOM     20  C   LIG A   1      -8.625   0.815 124.255  0.00  0.00    +0.010 C 
ATOM     21  C   LIG A   1      -8.814  -0.048 123.031  0.00  0.00    +0.032 C 
ATOM     22  C   LIG A   1      -8.715  -1.522 123.389  0.00  0.00    +0.120 C 
ENDROOT
BRANCH  12  23
ATOM     23  C   LIG A   1      -3.873   5.696 128.560  0.00  0.00    -0.010 C 
ATOM     24  C   LIG A   1      -3.500   7.181 128.415  0.00  0.00    +0.008 C 
BRANCH  23  25
ATOM     25  C   LIG A   1      -2.944   5.021 129.632  0.00  0.00    +0.008 C 
BRANCH  25  26
ATOM     26  C   LIG A   1      -3.467   4.465 131.009  0.00  0.00    +0.030 C 
BRANCH  26  27
ATOM     27  C   LIG A   1      -4.914   4.587 131.482  0.00  0.00    -0.074 C 
ATOM     28  C   LIG A   1      -5.754   3.497 131.506  0.00  0.00    +0.008 C 
BRANCH  27  29
ATOM     29  C   LIG A   1      -5.335   5.851 132.239  0.00  0.00    +0.008 C 
ATOM     30  C   LIG A   1      -4.136   6.671 132.738  0.00  0.00    +0.012 C 
ATOM     31  C   LIG A   1      -6.229   6.745 131.346  0.00  0.00    +0.012 C 
ENDBRANCH  27  29
ENDBRANCH  26  27
ENDBRANCH  25  26
ENDBRANCH  23  25
ENDBRANCH  12  23
BRANCH  22  32
ATOM     32  O   LIG A   1      -9.780  -1.883 124.269  0.00  0.00    -0.391 OA
ATOM     33  H   LIG A   1      -9.463  -1.827 125.185  0.00  0.00    +0.210 HD
ENDBRANCH  22  32
TORSDOF 6
ENDMDL
MODEL 2
REMARK VINA RESULT:      -8.1      3.886      9.182
REMARK  Name = NuBBE_1003
REMARK  13 active torsions:
REMARK  status: ('A' for Active; 'I' for Inactive)
REMARK    1  A    between atoms: C_1  and  C_2
REMARK    2  A    between atoms: C_2  and  C_3
REMARK    3  A    between atoms: C_8  and  C_9
REMARK    4  A    between atoms: C_12  and  C_14
REMARK    5  A    between atoms: C_14  and  C_16
REMARK    6  A    between atoms: C_14  and  C_23
REMARK    7  A    between atoms: C_16  and  C_17
REMARK    8  A    between atoms: C_17  and  C_18
REMARK    9  A    between atoms: C_18  and  C_19
REMARK   10  A    between atoms: C_19  and  C_20
REMARK   11  A    between atoms: C_19  and  C_21
REMARK   12  A    between atoms: C_24  and  C_25
REMARK   13  A    between atoms: C_33  and  O_35
REMARK                            x       y       z     vdW  Elec       q    Type
REMARK                         _______ _______ _______ _____ _____    ______ ____
ROOT
ATOM      1  C   LIG A   1      -6.935   6.216 131.765  0.00  0.00    +0.014 C 
ATOM      2  C   LIG A   1      -8.463   6.000 131.614  0.00  0.00    -0.006 C 
ATOM      3  C   LIG A   1      -9.020   7.127 130.714  0.00  0.00    +0.014 C 
ATOM      4  C   LIG A   1      -8.789   4.606 130.959  0.00  0.00    +0.004 C 
ATOM      5  C   LIG A   1      -7.984   4.412 129.641  0.00  0.00    +0.005 C 
ATOM      6  C   LIG A   1      -7.889   2.992 129.106  0.00  0.00    +0.005 C 
ATOM      7  C   LIG A   1      -7.210   2.061 130.125  0.00  0.00    +0.002 C 
ATOM      8  C   LIG A   1      -7.003   0.565 129.597  0.00  0.00    -0.023 C 
ATOM      9  C   LIG A   1      -7.951   0.213 128.423  0.00  0.00    +0.012 C 
ATOM     10  C   LIG A   1      -5.550   0.352 129.102  0.00  0.00    +0.008 C 
ATOM     11  C   LIG A   1      -5.324  -1.164 129.131  0.00  0.00    +0.005 C 
ATOM     12  C   LIG A   1      -6.224  -1.767 130.253  0.00  0.00    -0.002 C 
ATOM     13  C   LIG A   1      -7.091  -0.513 130.745  0.00  0.00    -0.023 C 
ATOM     14  C   LIG A   1      -8.546  -0.845 131.067  0.00  0.00    +0.012 C 
ATOM     15  C   LIG A   1      -6.436   0.117 132.023  0.00  0.00    +0.008 C 
ATOM     16  C   LIG A   1      -7.210   1.324 132.571  0.00  0.00    +0.008 C 
ATOM     17  C   LIG A   1      -7.916   2.131 131.491  0.00  0.00    -0.019 C 
ATOM     18  C   LIG A   1      -9.428   2.189 131.499  0.00  0.00    +0.015 C 
ATOM     19  C   LIG A   1      -8.676   3.416 131.937  0.00  0.00    -0.019 C 
ATOM     20  C   LIG A   1      -9.045   3.675 133.403  0.00  0.00    +0.010 C 
ATOM     21  C   LIG A   1      -8.651   5.027 133.946  0.00  0.00    +0.032 C 
ATOM     22  C   LIG A   1      -9.109   6.137 133.016  0.00  0.00    +0.120 C 
ENDROOT
BRANCH  12  23
ATOM     23  C   LIG A   1      -6.870  -3.165 129.738  0.00  0.00    -0.010 C 
ATOM     24  C   LIG A   1      -6.093  -4.433 130.127  0.00  0.00    +0.008 C 
BRANCH  23  25
ATOM     25  C   LIG A   1      -7.072  -3.126 128.181  0.00  0.00    +0.008 C 
BRANCH  25  26
ATOM     26  C   LIG A   1      -8.461  -3.367 127.478  0.00  0.00    +0.030 C 
BRANCH  26  27
ATOM     27  C   LIG A   1      -8.812  -2.844 126.087  0.00  0.00    -0.074 C 
ATOM     28  C   LIG A   1      -9.112  -1.517 125.876  0.00  0.00    +0.008 C 
BRANCH  27  29
ATOM     29  C   LIG A   1      -8.511  -3.727 124.872  0.00  0.00    +0.008 C 
ATOM     30  C   LIG A   1      -9.444  -3.443 123.686  0.00  0.00    +0.012 C 
ATOM     31  C   LIG A   1      -7.041  -3.544 124.421  0.00  0.00    +0.012 C 
ENDBRANCH  27  29
ENDBRANCH  26  27
ENDBRANCH  25  26
ENDBRANCH  23  25
ENDBRANCH  12  23
BRANCH  22  32
ATOM     32  O   LIG A   1     -10.536   6.163 132.952  0.00  0.00    -0.391 OA
ATOM     33  H   LIG A   1     -10.860   6.918 133.471  0.00  0.00    +0.210 HD
ENDBRANCH  22  32
TORSDOF 6
ENDMDL
MODEL 3
REMARK VINA RESULT:      -8.1      5.777      7.733
REMARK  Name = NuBBE_1003
REMARK  13 active torsions:
REMARK  status: ('A' for Active; 'I' for Inactive)
REMARK    1  A    between atoms: C_1  and  C_2
REMARK    2  A    between atoms: C_2  and  C_3
REMARK    3  A    between atoms: C_8  and  C_9
REMARK    4  A    between atoms: C_12  and  C_14
REMARK    5  A    between atoms: C_14  and  C_16
REMARK    6  A    between atoms: C_14  and  C_23
REMARK    7  A    between atoms: C_16  and  C_17
REMARK    8  A    between atoms: C_17  and  C_18
REMARK    9  A    between atoms: C_18  and  C_19
REMARK   10  A    between atoms: C_19  and  C_20
REMARK   11  A    between atoms: C_19  and  C_21
REMARK   12  A    between atoms: C_24  and  C_25
REMARK   13  A    between atoms: C_33  and  O_35
REMARK                            x       y       z     vdW  Elec       q    Type
REMARK                         _______ _______ _______ _____ _____    ______ ____
ROOT
ATOM      1  C   LIG A   1      -7.607  -4.381 124.728  0.00  0.00    +0.014 C 
ATOM      2  C   LIG A   1      -8.129  -2.935 124.921  0.00  0.00    -0.006 C 
ATOM      3  C   LIG A   1      -9.622  -2.906 124.518  0.00  0.00    +0.014 C 
ATOM      4  C   LIG A   1      -7.989  -2.462 126.416  0.00  0.00    +0.004 C 
ATOM      5  C   LIG A   1      -8.618  -3.503 127.387  0.00  0.00    +0.005 C 
ATOM      6  C   LIG A   1      -8.226  -3.388 128.852  0.00  0.00    +0.005 C 
ATOM      7  C   LIG A   1      -6.706  -3.547 129.033  0.00  0.00    +0.002 C 
ATOM      8  C   LIG A   1      -6.229  -3.518 130.559  0.00  0.00    -0.023 C 
ATOM      9  C   LIG A   1      -7.265  -2.839 131.491  0.00  0.00    +0.012 C 
ATOM     10  C   LIG A   1      -5.995  -4.955 131.090  0.00  0.00    +0.008 C 
ATOM     11  C   LIG A   1      -5.073  -4.798 132.306  0.00  0.00    +0.005 C 
ATOM     12  C   LIG A   1      -4.195  -3.528 132.087  0.00  0.00    -0.002 C 
ATOM     13  C   LIG A   1      -4.795  -2.890 130.746  0.00  0.00    -0.023 C 
ATOM     14  C   LIG A   1      -4.867  -1.365 130.756  0.00  0.00    +0.012 C 
ATOM     15  C   LIG A   1      -3.932  -3.333 129.515  0.00  0.00    +0.008 C 
ATOM     16  C   LIG A   1      -4.431  -2.757 128.183  0.00  0.00    +0.008 C 
ATOM     17  C   LIG A   1      -5.939  -2.557 128.137  0.00  0.00    -0.019 C 
ATOM     18  C   LIG A   1      -6.483  -1.151 128.016  0.00  0.00    +0.015 C 
ATOM     19  C   LIG A   1      -6.554  -2.038 126.803  0.00  0.00    -0.019 C 
ATOM     20  C   LIG A   1      -5.696  -1.385 125.712  0.00  0.00    +0.010 C 
ATOM     21  C   LIG A   1      -5.877  -1.940 124.320  0.00  0.00    +0.032 C 
ATOM     22  C   LIG A   1      -7.350  -2.008 123.953  0.00  0.00    +0.120 C 
ENDROOT
BRANCH  12  23
ATOM     23  C   LIG A   1      -4.054  -2.719 133.488  0.00  0.00    -0.010 C 
ATOM     24  C   LIG A   1      -3.053  -3.312 134.494  0.00  0.00    +0.008 C 
BRANCH  23  25
ATOM     25  C   LIG A   1      -5.461  -2.568 134.170  0.00  0.00    +0.008 C 
BRANCH  25  26
ATOM     26  C   LIG A   1      -5.959  -3.486 135.349  0.00  0.00    +0.030 C 
BRANCH  26  27
ATOM     27  C   LIG A   1      -7.120  -4.470 135.228  0.00  0.00    -0.074 C 
ATOM     28  C   LIG A   1      -8.353  -4.070 134.765  0.00  0.00    +0.008 C 
BRANCH  27  29
ATOM     29  C   LIG A   1      -6.823  -5.971 135.311  0.00  0.00    +0.008 C 
ATOM     30  C   LIG A   1      -5.349  -6.268 135.622  0.00  0.00    +0.012 C 
ATOM     31  C   LIG A   1      -7.716  -6.641 136.383  0.00  0.00    +0.012 C 
ENDBRANCH  27  29
ENDBRANCH  26  27
ENDBRANCH  25  26
ENDBRANCH  23  25
ENDBRANCH  12  23
BRANCH  22  32
ATOM     32  O   LIG A   1      -7.903  -0.692 123.904  0.00  0.00    -0.391 OA
ATOM     33  H   LIG A   1      -7.176  -0.048 123.864  0.00  0.00    +0.210 HD
ENDBRANCH  22  32
TORSDOF 6
ENDMDL
MODEL 4
REMARK VINA RESULT:      -7.9      4.890      7.240
REMARK  Name = NuBBE_1003
REMARK  13 active torsions:
REMARK  status: ('A' for Active; 'I' for Inactive)
REMARK    1  A    between atoms: C_1  and  C_2
REMARK    2  A    between atoms: C_2  and  C_3
REMARK    3  A    between atoms: C_8  and  C_9
REMARK    4  A    between atoms: C_12  and  C_14
REMARK    5  A    between atoms: C_14  and  C_16
REMARK    6  A    between atoms: C_14  and  C_23
REMARK    7  A    between atoms: C_16  and  C_17
REMARK    8  A    between atoms: C_17  and  C_18
REMARK    9  A    between atoms: C_18  and  C_19
REMARK   10  A    between atoms: C_19  and  C_20
REMARK   11  A    between atoms: C_19  and  C_21
REMARK   12  A    between atoms: C_24  and  C_25
REMARK   13  A    between atoms: C_33  and  O_35
REMARK                            x       y       z     vdW  Elec       q    Type
REMARK                         _______ _______ _______ _____ _____    ______ ____
ROOT
ATOM      1  C   LIG A   1      -6.223  -3.589 132.800  0.00  0.00    +0.014 C 
ATOM      2  C   LIG A   1      -5.414  -3.504 131.481  0.00  0.00    -0.006 C 
ATOM      3  C   LIG A   1      -5.722  -4.769 130.647  0.00  0.00    +0.014 C 
ATOM      4  C   LIG A   1      -5.801  -2.227 130.646  0.00  0.00    +0.004 C 
ATOM      5  C   LIG A   1      -7.343  -2.136 130.456  0.00  0.00    +0.005 C 
ATOM      6  C   LIG A   1      -7.895  -0.787 130.020  0.00  0.00    +0.005 C 
ATOM      7  C   LIG A   1      -7.558   0.307 131.047  0.00  0.00    +0.002 C 
ATOM      8  C   LIG A   1      -8.176   1.739 130.694  0.00  0.00    -0.023 C 
ATOM      9  C   LIG A   1      -8.535   1.876 129.193  0.00  0.00    +0.012 C 
ATOM     10  C   LIG A   1      -9.470   1.996 131.508  0.00  0.00    +0.008 C 
ATOM     11  C   LIG A   1      -9.664   3.516 131.503  0.00  0.00    +0.005 C 
ATOM     12  C   LIG A   1      -8.258   4.183 131.396  0.00  0.00    -0.002 C 
ATOM     13  C   LIG A   1      -7.274   2.938 131.177  0.00  0.00    -0.023 C 
ATOM     14  C   LIG A   1      -6.142   3.200 130.186  0.00  0.00    +0.012 C 
ATOM     15  C   LIG A   1      -6.639   2.516 132.547  0.00  0.00    +0.008 C 
ATOM     16  C   LIG A   1      -5.670   1.332 132.430  0.00  0.00    +0.008 C 
ATOM     17  C   LIG A   1      -6.044   0.351 131.328  0.00  0.00    -0.019 C 
ATOM     18  C   LIG A   1      -5.106   0.185 130.152  0.00  0.00    +0.015 C 
ATOM     19  C   LIG A   1      -5.160  -0.923 131.169  0.00  0.00    -0.019 C 
ATOM     20  C   LIG A   1      -3.767  -1.028 131.801  0.00  0.00    +0.010 C 
ATOM     21  C   LIG A   1      -3.512  -2.273 132.616  0.00  0.00    +0.032 C 
ATOM     22  C   LIG A   1      -3.906  -3.518 131.839  0.00  0.00    +0.120 C 
ENDROOT
BRANCH  12  23
ATOM     23  C   LIG A   1      -8.338   5.458 130.393  0.00  0.00    -0.010 C 
ATOM     24  C   LIG A   1      -8.146   6.832 131.057  0.00  0.00    +0.008 C 
BRANCH  23  25
ATOM     25  C   LIG A   1      -9.693   5.439 129.600  0.00  0.00    +0.008 C 
BRANCH  25  26
ATOM     26  C   LIG A   1     -10.619   6.701 129.431  0.00  0.00    +0.030 C 
BRANCH  26  27
ATOM     27  C   LIG A   1     -11.924   6.909 130.196  0.00  0.00    -0.074 C 
ATOM     28  C   LIG A   1     -11.999   6.694 131.554  0.00  0.00    +0.008 C 
BRANCH  27  29
ATOM     29  C   LIG A   1     -13.063   7.672 129.513  0.00  0.00    +0.008 C 
ATOM     30  C   LIG A   1     -12.702   9.134 129.213  0.00  0.00    +0.012 C 
ATOM     31  C   LIG A   1     -13.474   6.968 128.197  0.00  0.00    +0.012 C 
ENDBRANCH  27  29
ENDBRANCH  26  27
ENDBRANCH  25  26
ENDBRANCH  23  25
ENDBRANCH  12  23
BRANCH  22  32
ATOM     32  O   LIG A   1      -3.078  -3.654 130.683  0.00  0.00    -0.391 OA
ATOM     33  H   LIG A   1      -2.224  -4.030 130.952  0.00  0.00    +0.210 HD
ENDBRANCH  22  32
TORSDOF 6
ENDMDL
MODEL 5
REMARK VINA RESULT:      -7.9      4.654      6.621
REMARK  Name = NuBBE_1003
REMARK  13 active torsions:
REMARK  status: ('A' for Active; 'I' for Inactive)
REMARK    1  A    between atoms: C_1  and  C_2
REMARK    2  A    between atoms: C_2  and  C_3
REMARK    3  A    between atoms: C_8  and  C_9
REMARK    4  A    between atoms: C_12  and  C_14
REMARK    5  A    between atoms: C_14  and  C_16
REMARK    6  A    between atoms: C_14  and  C_23
REMARK    7  A    between atoms: C_16  and  C_17
REMARK    8  A    between atoms: C_17  and  C_18
REMARK    9  A    between atoms: C_18  and  C_19
REMARK   10  A    between atoms: C_19  and  C_20
REMARK   11  A    between atoms: C_19  and  C_21
REMARK   12  A    between atoms: C_24  and  C_25
REMARK   13  A    between atoms: C_33  and  O_35
REMARK                            x       y       z     vdW  Elec       q    Type
REMARK                         _______ _______ _______ _____ _____    ______ ____
ROOT
ATOM      1  C   LIG A   1      -7.498  -4.343 124.844  0.00  0.00    +0.014 C 
ATOM      2  C   LIG A   1      -8.038  -2.905 125.053  0.00  0.00    -0.006 C 
ATOM      3  C   LIG A   1      -9.530  -2.889 124.646  0.00  0.00    +0.014 C 
ATOM      4  C   LIG A   1      -7.907  -2.450 126.554  0.00  0.00    +0.004 C 
ATOM      5  C   LIG A   1      -8.526  -3.509 127.510  0.00  0.00    +0.005 C 
ATOM      6  C   LIG A   1      -8.140  -3.408 128.978  0.00  0.00    +0.005 C 
ATOM      7  C   LIG A   1      -6.620  -3.552 129.161  0.00  0.00    +0.002 C 
ATOM      8  C   LIG A   1      -6.147  -3.536 130.689  0.00  0.00    -0.023 C 
ATOM      9  C   LIG A   1      -7.193  -2.881 131.626  0.00  0.00    +0.012 C 
ATOM     10  C   LIG A   1      -5.897  -4.976 131.203  0.00  0.00    +0.008 C 
ATOM     11  C   LIG A   1      -4.982  -4.824 132.423  0.00  0.00    +0.005 C 
ATOM     12  C   LIG A   1      -4.118  -3.541 132.223  0.00  0.00    -0.002 C 
ATOM     13  C   LIG A   1      -4.721  -2.894 130.888  0.00  0.00    -0.023 C 
ATOM     14  C   LIG A   1      -4.811  -1.370 130.916  0.00  0.00    +0.012 C 
ATOM     15  C   LIG A   1      -3.849  -3.312 129.654  0.00  0.00    +0.008 C 
ATOM     16  C   LIG A   1      -4.351  -2.725 128.328  0.00  0.00    +0.008 C 
ATOM     17  C   LIG A   1      -5.861  -2.542 128.280  0.00  0.00    -0.019 C 
ATOM     18  C   LIG A   1      -6.422  -1.141 128.174  0.00  0.00    +0.015 C 
ATOM     19  C   LIG A   1      -6.478  -2.014 126.950  0.00  0.00    -0.019 C 
ATOM     20  C   LIG A   1      -5.625  -1.338 125.870  0.00  0.00    +0.010 C 
ATOM     21  C   LIG A   1      -5.796  -1.877 124.471  0.00  0.00    +0.032 C 
ATOM     22  C   LIG A   1      -7.267  -1.958 124.098  0.00  0.00    +0.120 C 
ENDROOT
BRANCH  12  23
ATOM     23  C   LIG A   1      -3.990  -2.748 133.634  0.00  0.00    -0.010 C 
ATOM     24  C   LIG A   1      -2.697  -3.012 134.424  0.00  0.00    +0.008 C 
BRANCH  23  25
ATOM     25  C   LIG A   1      -5.235  -3.054 134.541  0.00  0.00    +0.008 C 
BRANCH  25  26
ATOM     26  C   LIG A   1      -6.182  -1.938 135.123  0.00  0.00    +0.030 C 
BRANCH  26  27
ATOM     27  C   LIG A   1      -5.689  -0.587 135.636  0.00  0.00    -0.074 C 
ATOM     28  C   LIG A   1      -5.011  -0.478 136.829  0.00  0.00    +0.008 C 
BRANCH  27  29
ATOM     29  C   LIG A   1      -5.659   0.600 134.668  0.00  0.00    +0.008 C 
ATOM     30  C   LIG A   1      -4.255   0.873 134.107  0.00  0.00    +0.012 C 
ATOM     31  C   LIG A   1      -6.641   0.367 133.494  0.00  0.00    +0.012 C 
ENDBRANCH  27  29
ENDBRANCH  26  27
ENDBRANCH  25  26
ENDBRANCH  23  25
ENDBRANCH  12  23
BRANCH  22  32
ATOM     32  O   LIG A   1      -7.834  -0.648 124.064  0.00  0.00    -0.391 OA
ATOM     33  H   LIG A   1      -7.125   0.004 124.193  0.00  0.00    +0.210 HD
ENDBRANCH  22  32
TORSDOF 6
ENDMDL
MODEL 6
REMARK VINA RESULT:      -7.8      5.678      9.438
REMARK  Name = NuBBE_1003
REMARK  13 active torsions:
REMARK  status: ('A' for Active; 'I' for Inactive)
REMARK    1  A    between atoms: C_1  and  C_2
REMARK    2  A    between atoms: C_2  and  C_3
REMARK    3  A    between atoms: C_8  and  C_9
REMARK    4  A    between atoms: C_12  and  C_14
REMARK    5  A    between atoms: C_14  and  C_16
REMARK    6  A    between atoms: C_14  and  C_23
REMARK    7  A    between atoms: C_16  and  C_17
REMARK    8  A    between atoms: C_17  and  C_18
REMARK    9  A    between atoms: C_18  and  C_19
REMARK   10  A    between atoms: C_19  and  C_20
REMARK   11  A    between atoms: C_19  and  C_21
REMARK   12  A    between atoms: C_24  and  C_25
REMARK   13  A    between atoms: C_33  and  O_35
REMARK                            x       y       z     vdW  Elec       q    Type
REMARK                         _______ _______ _______ _____ _____    ______ ____
ROOT
ATOM      1  C   LIG A   1      -6.779  -5.504 134.553  0.00  0.00    +0.014 C 
ATOM      2  C   LIG A   1      -5.342  -4.923 134.592  0.00  0.00    -0.006 C 
ATOM      3  C   LIG A   1      -4.357  -6.094 134.814  0.00  0.00    +0.014 C 
ATOM      4  C   LIG A   1      -4.978  -4.189 133.248  0.00  0.00    +0.004 C 
ATOM      5  C   LIG A   1      -5.263  -5.104 132.022  0.00  0.00    +0.005 C 
ATOM      6  C   LIG A   1      -5.333  -4.421 130.665  0.00  0.00    +0.005 C 
ATOM      7  C   LIG A   1      -6.449  -3.363 130.636  0.00  0.00    +0.002 C 
ATOM      8  C   LIG A   1      -6.635  -2.657 129.213  0.00  0.00    -0.023 C 
ATOM      9  C   LIG A   1      -5.375  -2.782 128.319  0.00  0.00    +0.012 C 
ATOM     10  C   LIG A   1      -7.821  -3.285 128.438  0.00  0.00    +0.008 C 
ATOM     11  C   LIG A   1      -8.230  -2.239 127.394  0.00  0.00    +0.005 C 
ATOM     12  C   LIG A   1      -7.886  -0.828 127.963  0.00  0.00    -0.002 C 
ATOM     13  C   LIG A   1      -7.109  -1.157 129.324  0.00  0.00    -0.023 C 
ATOM     14  C   LIG A   1      -5.927  -0.234 129.610  0.00  0.00    +0.012 C 
ATOM     15  C   LIG A   1      -8.101  -1.074 130.535  0.00  0.00    +0.008 C 
ATOM     16  C   LIG A   1      -7.437  -1.366 131.887  0.00  0.00    +0.008 C 
ATOM     17  C   LIG A   1      -6.288  -2.361 131.794  0.00  0.00    -0.019 C 
ATOM     18  C   LIG A   1      -4.889  -1.890 132.128  0.00  0.00    +0.015 C 
ATOM     19  C   LIG A   1      -5.589  -2.776 133.124  0.00  0.00    -0.019 C 
ATOM     20  C   LIG A   1      -5.753  -1.966 134.416  0.00  0.00    +0.010 C 
ATOM     21  C   LIG A   1      -6.145  -2.759 135.639  0.00  0.00    +0.032 C 
ATOM     22  C   LIG A   1      -5.242  -3.969 135.809  0.00  0.00    +0.120 C 
ENDROOT
BRANCH  12  23
ATOM     23  C   LIG A   1      -7.278   0.100 126.777  0.00  0.00    -0.010 C 
ATOM     24  C   LIG A   1      -8.319   0.825 125.908  0.00  0.00    +0.008 C 
BRANCH  23  25
ATOM     25  C   LIG A   1      -6.324  -0.748 125.862  0.00  0.00    +0.008 C 
BRANCH  25  26
ATOM     26  C   LIG A   1      -6.608  -1.035 124.340  0.00  0.00    +0.030 C 
BRANCH  26  27
ATOM     27  C   LIG A   1      -7.024  -2.399 123.795  0.00  0.00    -0.074 C 
ATOM     28  C   LIG A   1      -6.332  -3.543 124.124  0.00  0.00    +0.008 C 
BRANCH  27  29
ATOM     29  C   LIG A   1      -8.405  -2.542 123.147  0.00  0.00    +0.008 C 
ATOM     30  C   LIG A   1      -9.387  -3.344 124.013  0.00  0.00    +0.012 C 
ATOM     31  C   LIG A   1      -9.009  -1.149 122.847  0.00  0.00    +0.012 C 
ENDBRANCH  27  29
ENDBRANCH  26  27
ENDBRANCH  25  26
ENDBRANCH  23  25
ENDBRANCH  12  23
BRANCH  22  32
ATOM     32  O   LIG A   1      -3.899  -3.547 136.054  0.00  0.00    -0.391 OA
ATOM     33  H   LIG A   1      -3.404  -3.577 135.218  0.00  0.00    +0.210 HD
ENDBRANCH  22  32
TORSDOF 6
ENDMDL
MODEL 7
REMARK VINA RESULT:      -7.8      2.927      8.379
REMARK  Name = NuBBE_1003
REMARK  13 active torsions:
REMARK  status: ('A' for Active; 'I' for Inactive)
REMARK    1  A    between atoms: C_1  and  C_2
REMARK    2  A    between atoms: C_2  and  C_3
REMARK    3  A    between atoms: C_8  and  C_9
REMARK    4  A    between atoms: C_12  and  C_14
REMARK    5  A    between atoms: C_14  and  C_16
REMARK    6  A    between atoms: C_14  and  C_23
REMARK    7  A    between atoms: C_16  and  C_17
REMARK    8  A    between atoms: C_17  and  C_18
REMARK    9  A    between atoms: C_18  and  C_19
REMARK   10  A    between atoms: C_19  and  C_20
REMARK   11  A    between atoms: C_19  and  C_21
REMARK   12  A    between atoms: C_24  and  C_25
REMARK   13  A    between atoms: C_33  and  O_35
REMARK                            x       y       z     vdW  Elec       q    Type
REMARK                         _______ _______ _______ _____ _____    ______ ____
ROOT
ATOM      1  C   LIG A   1      -4.681   7.558 129.935  0.00  0.00    +0.014 C 
ATOM      2  C   LIG A   1      -3.968   6.441 130.740  0.00  0.00    -0.006 C 
ATOM      3  C   LIG A   1      -4.307   6.638 132.237  0.00  0.00    +0.014 C 
ATOM      4  C   LIG A   1      -4.441   5.009 130.288  0.00  0.00    +0.004 C 
ATOM      5  C   LIG A   1      -5.993   4.910 130.297  0.00  0.00    +0.005 C 
ATOM      6  C   LIG A   1      -6.604   3.748 129.528  0.00  0.00    +0.005 C 
ATOM      7  C   LIG A   1      -6.220   3.806 128.040  0.00  0.00    +0.002 C 
ATOM      8  C   LIG A   1      -6.893   2.658 127.152  0.00  0.00    -0.023 C 
ATOM      9  C   LIG A   1      -7.359   1.449 128.002  0.00  0.00    +0.012 C 
ATOM     10  C   LIG A   1      -8.132   3.202 126.396  0.00  0.00    +0.008 C 
ATOM     11  C   LIG A   1      -8.359   2.235 125.229  0.00  0.00    +0.005 C 
ATOM     12  C   LIG A   1      -6.979   1.629 124.827  0.00  0.00    -0.002 C 
ATOM     13  C   LIG A   1      -5.985   2.196 125.949  0.00  0.00    -0.023 C 
ATOM     14  C   LIG A   1      -4.932   1.194 126.417  0.00  0.00    +0.012 C 
ATOM     15  C   LIG A   1      -5.247   3.469 125.410  0.00  0.00    +0.008 C 
ATOM     16  C   LIG A   1      -4.263   4.075 126.420  0.00  0.00    +0.008 C 
ATOM     17  C   LIG A   1      -4.692   3.889 127.868  0.00  0.00    -0.019 C 
ATOM     18  C   LIG A   1      -3.835   3.036 128.777  0.00  0.00    +0.015 C 
ATOM     19  C   LIG A   1      -3.794   4.527 128.971  0.00  0.00    -0.019 C 
ATOM     20  C   LIG A   1      -2.357   4.983 128.686  0.00  0.00    +0.010 C 
ATOM     21  C   LIG A   1      -2.019   6.388 129.122  0.00  0.00    +0.032 C 
ATOM     22  C   LIG A   1      -2.439   6.621 130.563  0.00  0.00    +0.120 C 
ENDROOT
BRANCH  12  23
ATOM     23  C   LIG A   1      -7.157   0.050 124.493  0.00  0.00    -0.010 C 
ATOM     24  C   LIG A   1      -6.733  -0.376 123.077  0.00  0.00    +0.008 C 
BRANCH  23  25
ATOM     25  C   LIG A   1      -8.640  -0.395 124.757  0.00  0.00    +0.008 C 
BRANCH  25  26
ATOM     26  C   LIG A   1      -9.063  -1.358 125.928  0.00  0.00    +0.030 C 
BRANCH  26  27
ATOM     27  C   LIG A   1      -8.632  -2.820 126.025  0.00  0.00    -0.074 C 
ATOM     28  C   LIG A   1      -8.312  -3.549 124.902  0.00  0.00    +0.008 C 
BRANCH  27  29
ATOM     29  C   LIG A   1      -8.238  -3.381 127.396  0.00  0.00    +0.008 C 
ATOM     30  C   LIG A   1      -7.730  -2.295 128.357  0.00  0.00    +0.012 C 
ATOM     31  C   LIG A   1      -9.435  -4.117 128.045  0.00  0.00    +0.012 C 
ENDBRANCH  27  29
ENDBRANCH  26  27
ENDBRANCH  25  26
ENDBRANCH  23  25
ENDBRANCH  12  23
BRANCH  22  32
ATOM     32  O   LIG A   1      -1.691   5.770 131.434  0.00  0.00    -0.391 OA
ATOM     33  H   LIG A   1      -1.969   5.938 132.350  0.00  0.00    +0.210 HD
ENDBRANCH  22  32
TORSDOF 6
ENDMDL
MODEL 8
REMARK VINA RESULT:      -7.7      2.964      8.645
REMARK  Name = NuBBE_1003
REMARK  13 active torsions:
REMARK  status: ('A' for Active; 'I' for Inactive)
REMARK    1  A    between atoms: C_1  and  C_2
REMARK    2  A    between atoms: C_2  and  C_3
REMARK    3  A    between atoms: C_8  and  C_9
REMARK    4  A    between atoms: C_12  and  C_14
REMARK    5  A    between atoms: C_14  and  C_16
REMARK    6  A    between atoms: C_14  and  C_23
REMARK    7  A    between atoms: C_16  and  C_17
REMARK    8  A    between atoms: C_17  and  C_18
REMARK    9  A    between atoms: C_18  and  C_19
REMARK   10  A    between atoms: C_19  and  C_20
REMARK   11  A    between atoms: C_19  and  C_21
REMARK   12  A    between atoms: C_24  and  C_25
REMARK   13  A    between atoms: C_33  and  O_35
REMARK                            x       y       z     vdW  Elec       q    Type
REMARK                         _______ _______ _______ _____ _____    ______ ____
ROOT
ATOM      1  C   LIG A   1      -2.449   5.274 130.882  0.00  0.00    +0.014 C 
ATOM      2  C   LIG A   1      -3.216   5.945 129.714  0.00  0.00    -0.006 C 
ATOM      3  C   LIG A   1      -2.182   6.650 128.804  0.00  0.00    +0.014 C 
ATOM      4  C   LIG A   1      -4.016   4.888 128.864  0.00  0.00    +0.004 C 
ATOM      5  C   LIG A   1      -3.093   3.713 128.431  0.00  0.00    +0.005 C 
ATOM      6  C   LIG A   1      -3.786   2.447 127.951  0.00  0.00    +0.005 C 
ATOM      7  C   LIG A   1      -4.686   1.858 129.050  0.00  0.00    +0.002 C 
ATOM      8  C   LIG A   1      -5.387   0.478 128.643  0.00  0.00    -0.023 C 
ATOM      9  C   LIG A   1      -5.446   0.274 127.108  0.00  0.00    +0.012 C 
ATOM     10  C   LIG A   1      -4.620  -0.727 129.245  0.00  0.00    +0.008 C 
ATOM     11  C   LIG A   1      -5.621  -1.888 129.253  0.00  0.00    +0.005 C 
ATOM     12  C   LIG A   1      -7.055  -1.290 129.393  0.00  0.00    -0.002 C 
ATOM     13  C   LIG A   1      -6.808   0.290 129.300  0.00  0.00    -0.023 C 
ATOM     14  C   LIG A   1      -7.875   1.046 128.512  0.00  0.00    +0.012 C 
ATOM     15  C   LIG A   1      -6.736   0.902 130.742  0.00  0.00    +0.008 C 
ATOM     16  C   LIG A   1      -6.511   2.419 130.748  0.00  0.00    +0.008 C 
ATOM     17  C   LIG A   1      -5.680   2.912 129.572  0.00  0.00    -0.019 C 
ATOM     18  C   LIG A   1      -6.326   3.832 128.559  0.00  0.00    +0.015 C 
ATOM     19  C   LIG A   1      -5.337   4.432 129.522  0.00  0.00    -0.019 C 
ATOM     20  C   LIG A   1      -6.095   5.464 130.366  0.00  0.00    +0.010 C 
ATOM     21  C   LIG A   1      -5.234   6.403 131.176  0.00  0.00    +0.032 C 
ATOM     22  C   LIG A   1      -4.152   7.026 130.310  0.00  0.00    +0.120 C 
ENDROOT
BRANCH  12  23
ATOM     23  C   LIG A   1      -8.077  -2.103 128.428  0.00  0.00    -0.010 C 
ATOM     24  C   LIG A   1      -8.623  -3.419 129.005  0.00  0.00    +0.008 C 
BRANCH  23  25
ATOM     25  C   LIG A   1      -7.405  -2.375 127.035  0.00  0.00    +0.008 C 
BRANCH  25  26
ATOM     26  C   LIG A   1      -8.112  -3.162 125.868  0.00  0.00    +0.030 C 
BRANCH  26  27
ATOM     27  C   LIG A   1      -7.747  -3.004 124.393  0.00  0.00    -0.074 C 
ATOM     28  C   LIG A   1      -8.704  -3.077 123.407  0.00  0.00    +0.008 C 
BRANCH  27  29
ATOM     29  C   LIG A   1      -6.369  -2.438 124.034  0.00  0.00    +0.008 C 
ATOM     30  C   LIG A   1      -5.284  -3.523 123.958  0.00  0.00    +0.012 C 
ATOM     31  C   LIG A   1      -6.430  -1.681 122.685  0.00  0.00    +0.012 C 
ENDBRANCH  27  29
ENDBRANCH  26  27
ENDBRANCH  25  26
ENDBRANCH  23  25
ENDBRANCH  12  23
BRANCH  22  32
ATOM     32  O   LIG A   1      -4.746   7.843 129.299  0.00  0.00    -0.391 OA
ATOM     33  H   LIG A   1      -4.304   7.663 128.452  0.00  0.00    +0.210 HD
ENDBRANCH  22  32
TORSDOF 6
ENDMDL
MODEL 9
REMARK VINA RESULT:      -7.7      3.809      8.178
REMARK  Name = NuBBE_1003
REMARK  13 active torsions:
REMARK  status: ('A' for Active; 'I' for Inactive)
REMARK    1  A    between atoms: C_1  and  C_2
REMARK    2  A    between atoms: C_2  and  C_3
REMARK    3  A    between atoms: C_8  and  C_9
REMARK    4  A    between atoms: C_12  and  C_14
REMARK    5  A    between atoms: C_14  and  C_16
REMARK    6  A    between atoms: C_14  and  C_23
REMARK    7  A    between atoms: C_16  and  C_17
REMARK    8  A    between atoms: C_17  and  C_18
REMARK    9  A    between atoms: C_18  and  C_19
REMARK   10  A    between atoms: C_19  and  C_20
REMARK   11  A    between atoms: C_19  and  C_21
REMARK   12  A    between atoms: C_24  and  C_25
REMARK   13  A    between atoms: C_33  and  O_35
REMARK                            x       y       z     vdW  Elec       q    Type
REMARK                         _______ _______ _______ _____ _____    ______ ____
ROOT
ATOM      1  C   LIG A   1      -4.346   6.605 130.940  0.00  0.00    +0.014 C 
ATOM      2  C   LIG A   1      -3.040   6.074 130.293  0.00  0.00    -0.006 C 
ATOM      3  C   LIG A   1      -1.880   6.320 131.285  0.00  0.00    +0.014 C 
ATOM      4  C   LIG A   1      -3.134   4.534 129.980  0.00  0.00    +0.004 C 
ATOM      5  C   LIG A   1      -3.593   3.740 131.237  0.00  0.00    +0.005 C 
ATOM      6  C   LIG A   1      -4.100   2.326 131.000  0.00  0.00    +0.005 C 
ATOM      7  C   LIG A   1      -5.322   2.326 130.065  0.00  0.00    +0.002 C 
ATOM      8  C   LIG A   1      -5.959   0.877 129.833  0.00  0.00    -0.023 C 
ATOM      9  C   LIG A   1      -4.963  -0.267 130.151  0.00  0.00    +0.012 C 
ATOM     10  C   LIG A   1      -7.205   0.674 130.732  0.00  0.00    +0.008 C 
ATOM     11  C   LIG A   1      -8.006  -0.456 130.074  0.00  0.00    +0.005 C 
ATOM     12  C   LIG A   1      -7.727  -0.418 128.541  0.00  0.00    -0.002 C 
ATOM     13  C   LIG A   1      -6.591   0.702 128.399  0.00  0.00    -0.023 C 
ATOM     14  C   LIG A   1      -5.514   0.375 127.367  0.00  0.00    +0.012 C 
ATOM     15  C   LIG A   1      -7.244   2.073 128.010  0.00  0.00    +0.008 C 
ATOM     16  C   LIG A   1      -6.223   3.207 127.843  0.00  0.00    +0.008 C 
ATOM     17  C   LIG A   1      -5.011   3.069 128.752  0.00  0.00    -0.019 C 
ATOM     18  C   LIG A   1      -3.651   2.850 128.125  0.00  0.00    +0.015 C 
ATOM     19  C   LIG A   1      -3.946   4.206 128.707  0.00  0.00    -0.019 C 
ATOM     20  C   LIG A   1      -3.885   5.217 127.555  0.00  0.00    +0.010 C 
ATOM     21  C   LIG A   1      -3.840   6.669 127.963  0.00  0.00    +0.032 C 
ATOM     22  C   LIG A   1      -2.765   6.902 129.013  0.00  0.00    +0.120 C 
ENDROOT
BRANCH  12  23
ATOM     23  C   LIG A   1      -7.574  -1.935 127.981  0.00  0.00    -0.010 C 
ATOM     24  C   LIG A   1      -8.294  -2.223 126.653  0.00  0.00    +0.008 C 
BRANCH  23  25
ATOM     25  C   LIG A   1      -8.043  -2.964 129.070  0.00  0.00    +0.008 C 
BRANCH  25  26
ATOM     26  C   LIG A   1      -7.079  -4.000 129.761  0.00  0.00    +0.030 C 
BRANCH  26  27
ATOM     27  C   LIG A   1      -6.088  -3.634 130.863  0.00  0.00    -0.074 C 
ATOM     28  C   LIG A   1      -6.517  -3.215 132.102  0.00  0.00    +0.008 C 
BRANCH  27  29
ATOM     29  C   LIG A   1      -4.621  -4.049 130.700  0.00  0.00    +0.008 C 
ATOM     30  C   LIG A   1      -4.032  -3.624 129.346  0.00  0.00    +0.012 C 
ATOM     31  C   LIG A   1      -3.760  -3.454 131.840  0.00  0.00    +0.012 C 
ENDBRANCH  27  29
ENDBRANCH  26  27
ENDBRANCH  25  26
ENDBRANCH  23  25
ENDBRANCH  12  23
BRANCH  22  32
ATOM     32  O   LIG A   1      -1.476   6.630 128.461  0.00  0.00    -0.391 OA
ATOM     33  H   LIG A   1      -0.797   6.961 129.072  0.00  0.00    +0.210 HD
ENDBRANCH  22  32
TORSDOF 6
ENDMDL
