MODEL 1
REMARK VINA RESULT:      -3.9      0.000      0.000
REMARK  Name = NuBBE_1979
REMARK  7 active torsions:
REMARK  status: ('A' for Active; 'I' for Inactive)
REMARK    1  A    between atoms: S_1  and  S_2
REMARK    2  A    between atoms: S_1  and  S_6
REMARK    3  A    between atoms: S_2  and  C_3
REMARK    4  A    between atoms: C_3  and  C_4
REMARK    5  A    between atoms: C_4  and  C_5
REMARK    6  A    between atoms: S_6  and  C_7
REMARK    7  A    between atoms: C_7  and  C_8
REMARK                            x       y       z     vdW  Elec       q    Type
REMARK                         _______ _______ _______ _____ _____    ______ ____
ROOT
ATOM      1  S   LIG A   1      -7.967  -1.443 123.466  0.00  0.00    -0.024 S 
ENDROOT
BRANCH   1   2
ATOM      2  S   LIG A   1      -6.310  -1.209 124.663  0.00  0.00    -0.082 S 
BRANCH   2   3
ATOM      3  C   LIG A   1      -5.579  -2.876 124.693  0.00  0.00    +0.081 C 
BRANCH   3   4
ATOM      4  C   LIG A   1      -4.853  -3.241 123.407  0.00  0.00    +0.008 C 
ATOM      5  C   LIG A   1      -4.243  -4.628 123.532  0.00  0.00    +0.004 C 
ENDBRANCH   3   4
ENDBRANCH   2   3
ENDBRANCH   1   2
BRANCH   1   6
ATOM      6  S   LIG A   1      -8.785  -3.240 124.037  0.00  0.00    -0.078 S 
BRANCH   6   7
ATOM      7  C   LIG A   1      -9.399  -2.842 125.694  0.00  0.00    +0.108 C 
BRANCH   7   8
ATOM      8  C   LIG A   1      -8.579  -3.564 126.717  0.00  0.00    -0.023 C 
ATOM      9  C   LIG A   1      -9.043  -3.894 127.925  0.00  0.00    +0.005 C 
ENDBRANCH   7   8
ENDBRANCH   6   7
ENDBRANCH   1   6
TORSDOF 6
ENDMDL
MODEL 2
REMARK VINA RESULT:      -3.7      1.278      4.904
REMARK  Name = NuBBE_1979
REMARK  7 active torsions:
REMARK  status: ('A' for Active; 'I' for Inactive)
REMARK    1  A    between atoms: S_1  and  S_2
REMARK    2  A    between atoms: S_1  and  S_6
REMARK    3  A    between atoms: S_2  and  C_3
REMARK    4  A    between atoms: C_3  and  C_4
REMARK    5  A    between atoms: C_4  and  C_5
REMARK    6  A    between atoms: S_6  and  C_7
REMARK    7  A    between atoms: C_7  and  C_8
REMARK                            x       y       z     vdW  Elec       q    Type
REMARK                         _______ _______ _______ _____ _____    ______ ____
ROOT
ATOM      1  S   LIG A   1      -6.011  -2.083 125.775  0.00  0.00    -0.024 S 
ENDROOT
BRANCH   1   2
ATOM      2  S   LIG A   1      -7.605  -1.658 127.004  0.00  0.00    -0.082 S 
BRANCH   2   3
ATOM      3  C   LIG A   1      -8.732  -3.059 126.723  0.00  0.00    +0.081 C 
BRANCH   3   4
ATOM      4  C   LIG A   1      -8.913  -3.945 127.947  0.00  0.00    +0.008 C 
ATOM      5  C   LIG A   1      -8.349  -3.252 129.177  0.00  0.00    +0.004 C 
ENDBRANCH   3   4
ENDBRANCH   2   3
ENDBRANCH   1   2
BRANCH   1   6
ATOM      6  S   LIG A   1      -6.731  -1.836 123.866  0.00  0.00    -0.078 S 
BRANCH   6   7
ATOM      7  C   LIG A   1      -5.462  -2.688 122.894  0.00  0.00    +0.108 C 
BRANCH   7   8
ATOM      8  C   LIG A   1      -4.664  -3.583 123.789  0.00  0.00    -0.023 C 
ATOM      9  C   LIG A   1      -4.274  -4.811 123.434  0.00  0.00    +0.005 C 
ENDBRANCH   7   8
ENDBRANCH   6   7
ENDBRANCH   1   6
TORSDOF 6
ENDMDL
MODEL 3
REMARK VINA RESULT:      -3.6      1.732      4.333
REMARK  Name = NuBBE_1979
REMARK  7 active torsions:
REMARK  status: ('A' for Active; 'I' for Inactive)
REMARK    1  A    between atoms: S_1  and  S_2
REMARK    2  A    between atoms: S_1  and  S_6
REMARK    3  A    between atoms: S_2  and  C_3
REMARK    4  A    between atoms: C_3  and  C_4
REMARK    5  A    between atoms: C_4  and  C_5
REMARK    6  A    between atoms: S_6  and  C_7
REMARK    7  A    between atoms: C_7  and  C_8
REMARK                            x       y       z     vdW  Elec       q    Type
REMARK                         _______ _______ _______ _____ _____    ______ ____
ROOT
ATOM      1  S   LIG A   1      -7.662  -0.506 126.564  0.00  0.00    -0.024 S 
ENDROOT
BRANCH   1   2
ATOM      2  S   LIG A   1      -7.945  -2.503 126.969  0.00  0.00    -0.082 S 
BRANCH   2   3
ATOM      3  C   LIG A   1      -9.288  -2.971 125.834  0.00  0.00    +0.081 C 
BRANCH   3   4
ATOM      4  C   LIG A   1      -8.808  -3.751 124.618  0.00  0.00    +0.008 C 
ATOM      5  C   LIG A   1      -9.343  -3.112 123.347  0.00  0.00    +0.004 C 
ENDBRANCH   3   4
ENDBRANCH   2   3
ENDBRANCH   1   2
BRANCH   1   6
ATOM      6  S   LIG A   1      -6.834  -0.456 124.685  0.00  0.00    -0.078 S 
BRANCH   6   7
ATOM      7  C   LIG A   1      -5.496  -1.665 124.852  0.00  0.00    +0.108 C 
BRANCH   7   8
ATOM      8  C   LIG A   1      -5.474  -2.555 123.649  0.00  0.00    -0.023 C 
ATOM      9  C   LIG A   1      -4.659  -3.607 123.534  0.00  0.00    +0.005 C 
ENDBRANCH   7   8
ENDBRANCH   6   7
ENDBRANCH   1   6
TORSDOF 6
ENDMDL
MODEL 4
REMARK VINA RESULT:      -3.5     11.046     12.049
REMARK  Name = NuBBE_1979
REMARK  7 active torsions:
REMARK  status: ('A' for Active; 'I' for Inactive)
REMARK    1  A    between atoms: S_1  and  S_2
REMARK    2  A    between atoms: S_1  and  S_6
REMARK    3  A    between atoms: S_2  and  C_3
REMARK    4  A    between atoms: C_3  and  C_4
REMARK    5  A    between atoms: C_4  and  C_5
REMARK    6  A    between atoms: S_6  and  C_7
REMARK    7  A    between atoms: C_7  and  C_8
REMARK                            x       y       z     vdW  Elec       q    Type
REMARK                         _______ _______ _______ _____ _____    ______ ____
ROOT
ATOM      1  S   LIG A   1     -11.656   6.821 131.000  0.00  0.00    -0.024 S 
ENDROOT
BRANCH   1   2
ATOM      2  S   LIG A   1     -10.838   4.991 130.539  0.00  0.00    -0.082 S 
BRANCH   2   3
ATOM      3  C   LIG A   1      -9.048   5.320 130.551  0.00  0.00    +0.081 C 
BRANCH   3   4
ATOM      4  C   LIG A   1      -8.685   6.666 131.163  0.00  0.00    +0.008 C 
ATOM      5  C   LIG A   1      -7.194   6.919 131.015  0.00  0.00    +0.004 C 
ENDBRANCH   3   4
ENDBRANCH   2   3
ENDBRANCH   1   2
BRANCH   1   6
ATOM      6  S   LIG A   1     -12.891   7.264 129.419  0.00  0.00    -0.078 S 
BRANCH   6   7
ATOM      7  C   LIG A   1     -12.090   8.742 128.743  0.00  0.00    +0.108 C 
BRANCH   7   8
ATOM      8  C   LIG A   1     -10.730   8.383 128.234  0.00  0.00    -0.023 C 
ATOM      9  C   LIG A   1     -10.528   7.537 127.220  0.00  0.00    +0.005 C 
ENDBRANCH   7   8
ENDBRANCH   6   7
ENDBRANCH   1   6
TORSDOF 6
ENDMDL
MODEL 5
REMARK VINA RESULT:      -3.5      2.312      4.395
REMARK  Name = NuBBE_1979
REMARK  7 active torsions:
REMARK  status: ('A' for Active; 'I' for Inactive)
REMARK    1  A    between atoms: S_1  and  S_2
REMARK    2  A    between atoms: S_1  and  S_6
REMARK    3  A    between atoms: S_2  and  C_3
REMARK    4  A    between atoms: C_3  and  C_4
REMARK    5  A    between atoms: C_4  and  C_5
REMARK    6  A    between atoms: S_6  and  C_7
REMARK    7  A    between atoms: C_7  and  C_8
REMARK                            x       y       z     vdW  Elec       q    Type
REMARK                         _______ _______ _______ _____ _____    ______ ____
ROOT
ATOM      1  S   LIG A   1      -6.180  -2.087 125.826  0.00  0.00    -0.024 S 
ENDROOT
BRANCH   1   2
ATOM      2  S   LIG A   1      -7.964  -1.761 126.798  0.00  0.00    -0.082 S 
BRANCH   2   3
ATOM      3  C   LIG A   1      -8.734  -3.410 126.818  0.00  0.00    +0.081 C 
BRANCH   3   4
ATOM      4  C   LIG A   1      -8.938  -3.965 128.221  0.00  0.00    +0.008 C 
ATOM      5  C   LIG A   1      -8.046  -3.227 129.206  0.00  0.00    +0.004 C 
ENDBRANCH   3   4
ENDBRANCH   2   3
ENDBRANCH   1   2
BRANCH   1   6
ATOM      6  S   LIG A   1      -6.684  -3.116 124.120  0.00  0.00    -0.078 S 
BRANCH   6   7
ATOM      7  C   LIG A   1      -7.462  -1.811 123.133  0.00  0.00    +0.108 C 
BRANCH   7   8
ATOM      8  C   LIG A   1      -8.924  -2.097 122.992  0.00  0.00    -0.023 C 
ATOM      9  C   LIG A   1      -9.484  -3.249 123.370  0.00  0.00    +0.005 C 
ENDBRANCH   7   8
ENDBRANCH   6   7
ENDBRANCH   1   6
TORSDOF 6
ENDMDL
MODEL 6
REMARK VINA RESULT:      -3.4      3.359      5.145
REMARK  Name = NuBBE_1979
REMARK  7 active torsions:
REMARK  status: ('A' for Active; 'I' for Inactive)
REMARK    1  A    between atoms: S_1  and  S_2
REMARK    2  A    between atoms: S_1  and  S_6
REMARK    3  A    between atoms: S_2  and  C_3
REMARK    4  A    between atoms: C_3  and  C_4
REMARK    5  A    between atoms: C_4  and  C_5
REMARK    6  A    between atoms: S_6  and  C_7
REMARK    7  A    between atoms: C_7  and  C_8
REMARK                            x       y       z     vdW  Elec       q    Type
REMARK                         _______ _______ _______ _____ _____    ______ ____
ROOT
ATOM      1  S   LIG A   1      -8.644  -1.512 123.616  0.00  0.00    -0.024 S 
ENDROOT
BRANCH   1   2
ATOM      2  S   LIG A   1      -8.912   0.276 124.598  0.00  0.00    -0.082 S 
BRANCH   2   3
ATOM      3  C   LIG A   1      -9.388   1.417 123.263  0.00  0.00    +0.081 C 
BRANCH   3   4
ATOM      4  C   LIG A   1      -8.510   2.658 123.187  0.00  0.00    +0.008 C 
ATOM      5  C   LIG A   1      -7.072   2.260 122.899  0.00  0.00    +0.004 C 
ENDBRANCH   3   4
ENDBRANCH   2   3
ENDBRANCH   1   2
BRANCH   1   6
ATOM      6  S   LIG A   1      -6.651  -1.549 123.114  0.00  0.00    -0.078 S 
BRANCH   6   7
ATOM      7  C   LIG A   1      -6.093  -3.037 123.981  0.00  0.00    +0.108 C 
BRANCH   7   8
ATOM      8  C   LIG A   1      -4.751  -3.446 123.459  0.00  0.00    -0.023 C 
ATOM      9  C   LIG A   1      -4.262  -4.682 123.589  0.00  0.00    +0.005 C 
ENDBRANCH   7   8
ENDBRANCH   6   7
ENDBRANCH   1   6
TORSDOF 6
ENDMDL
MODEL 7
REMARK VINA RESULT:      -3.3     10.887     11.955
REMARK  Name = NuBBE_1979
REMARK  7 active torsions:
REMARK  status: ('A' for Active; 'I' for Inactive)
REMARK    1  A    between atoms: S_1  and  S_2
REMARK    2  A    between atoms: S_1  and  S_6
REMARK    3  A    between atoms: S_2  and  C_3
REMARK    4  A    between atoms: C_3  and  C_4
REMARK    5  A    between atoms: C_4  and  C_5
REMARK    6  A    between atoms: S_6  and  C_7
REMARK    7  A    between atoms: C_7  and  C_8
REMARK                            x       y       z     vdW  Elec       q    Type
REMARK                         _______ _______ _______ _____ _____    ______ ____
ROOT
ATOM      1  S   LIG A   1     -11.157   5.019 130.467  0.00  0.00    -0.024 S 
ENDROOT
BRANCH   1   2
ATOM      2  S   LIG A   1     -12.117   6.549 129.483  0.00  0.00    -0.082 S 
BRANCH   2   3
ATOM      3  C   LIG A   1     -10.851   7.855 129.408  0.00  0.00    +0.081 C 
BRANCH   3   4
ATOM      4  C   LIG A   1     -10.684   8.455 128.019  0.00  0.00    +0.008 C 
ATOM      5  C   LIG A   1     -10.751   7.360 126.968  0.00  0.00    +0.004 C 
ENDBRANCH   3   4
ENDBRANCH   2   3
ENDBRANCH   1   2
BRANCH   1   6
ATOM      6  S   LIG A   1      -9.892   5.951 131.792  0.00  0.00    -0.078 S 
BRANCH   6   7
ATOM      7  C   LIG A   1      -8.284   5.668 131.010  0.00  0.00    +0.108 C 
BRANCH   7   8
ATOM      8  C   LIG A   1      -7.452   6.908 131.115  0.00  0.00    -0.023 C 
ATOM      9  C   LIG A   1      -6.116   6.894 131.106  0.00  0.00    +0.005 C 
ENDBRANCH   7   8
ENDBRANCH   6   7
ENDBRANCH   1   6
TORSDOF 6
ENDMDL
MODEL 8
REMARK VINA RESULT:      -3.3      2.508      3.521
REMARK  Name = NuBBE_1979
REMARK  7 active torsions:
REMARK  status: ('A' for Active; 'I' for Inactive)
REMARK    1  A    between atoms: S_1  and  S_2
REMARK    2  A    between atoms: S_1  and  S_6
REMARK    3  A    between atoms: S_2  and  C_3
REMARK    4  A    between atoms: C_3  and  C_4
REMARK    5  A    between atoms: C_4  and  C_5
REMARK    6  A    between atoms: S_6  and  C_7
REMARK    7  A    between atoms: C_7  and  C_8
REMARK                            x       y       z     vdW  Elec       q    Type
REMARK                         _______ _______ _______ _____ _____    ______ ____
ROOT
ATOM      1  S   LIG A   1      -7.381  -0.452 127.048  0.00  0.00    -0.024 S 
ENDROOT
BRANCH   1   2
ATOM      2  S   LIG A   1      -8.612  -1.012 125.498  0.00  0.00    -0.082 S 
BRANCH   2   3
ATOM      3  C   LIG A   1      -7.687  -2.360 124.698  0.00  0.00    +0.081 C 
BRANCH   3   4
ATOM      4  C   LIG A   1      -8.530  -3.600 124.438  0.00  0.00    +0.008 C 
ATOM      5  C   LIG A   1      -9.572  -3.305 123.371  0.00  0.00    +0.004 C 
ENDBRANCH   3   4
ENDBRANCH   2   3
ENDBRANCH   1   2
BRANCH   1   6
ATOM      6  S   LIG A   1      -6.080  -2.024 127.289  0.00  0.00    -0.078 S 
BRANCH   6   7
ATOM      7  C   LIG A   1      -6.666  -2.738 128.846  0.00  0.00    +0.108 C 
BRANCH   7   8
ATOM      8  C   LIG A   1      -8.151  -2.914 128.787  0.00  0.00    -0.023 C 
ATOM      9  C   LIG A   1      -8.743  -3.910 128.122  0.00  0.00    +0.005 C 
ENDBRANCH   7   8
ENDBRANCH   6   7
ENDBRANCH   1   6
TORSDOF 6
ENDMDL
MODEL 9
REMARK VINA RESULT:      -3.3     11.558     12.817
REMARK  Name = NuBBE_1979
REMARK  7 active torsions:
REMARK  status: ('A' for Active; 'I' for Inactive)
REMARK    1  A    between atoms: S_1  and  S_2
REMARK    2  A    between atoms: S_1  and  S_6
REMARK    3  A    between atoms: S_2  and  C_3
REMARK    4  A    between atoms: C_3  and  C_4
REMARK    5  A    between atoms: C_4  and  C_5
REMARK    6  A    between atoms: S_6  and  C_7
REMARK    7  A    between atoms: C_7  and  C_8
REMARK                            x       y       z     vdW  Elec       q    Type
REMARK                         _______ _______ _______ _____ _____    ______ ____
ROOT
ATOM      1  S   LIG A   1     -12.006   6.764 131.159  0.00  0.00    -0.024 S 
ENDROOT
BRANCH   1   2
ATOM      2  S   LIG A   1      -9.983   6.445 130.962  0.00  0.00    -0.082 S 
BRANCH   2   3
ATOM      3  C   LIG A   1      -9.729   4.853 131.806  0.00  0.00    +0.081 C 
BRANCH   3   4
ATOM      4  C   LIG A   1      -9.043   4.989 133.158  0.00  0.00    +0.008 C 
ATOM      5  C   LIG A   1      -8.889   3.620 133.801  0.00  0.00    +0.004 C 
ENDBRANCH   3   4
ENDBRANCH   2   3
ENDBRANCH   1   2
BRANCH   1   6
ATOM      6  S   LIG A   1     -12.702   6.971 129.237  0.00  0.00    -0.078 S 
BRANCH   6   7
ATOM      7  C   LIG A   1     -12.054   8.604 128.797  0.00  0.00    +0.108 C 
BRANCH   7   8
ATOM      8  C   LIG A   1     -13.151   9.618 128.888  0.00  0.00    -0.023 C 
ATOM      9  C   LIG A   1     -13.318  10.422 129.941  0.00  0.00    +0.005 C 
ENDBRANCH   7   8
ENDBRANCH   6   7
ENDBRANCH   1   6
TORSDOF 6
ENDMDL
