MODEL 1
REMARK VINA RESULT:      -7.6      0.000      0.000
REMARK  Name = NuBBE_469
REMARK  2 active torsions:
REMARK  status: ('A' for Active; 'I' for Inactive)
REMARK    1  A    between atoms: C_13  and  C_14
REMARK    2  A    between atoms: C_13  and  C_15
REMARK                            x       y       z     vdW  Elec       q    Type
REMARK                         _______ _______ _______ _____ _____    ______ ____
ROOT
ATOM      1  O   LIG A   1     -10.073  -2.468 122.908  0.00  0.00    -0.283 OA
ATOM      2  C   LIG A   1      -9.285  -1.572 123.176  0.00  0.00    +0.233 C 
ATOM      3  C   LIG A   1      -7.943  -1.865 123.710  0.00  0.00    +0.036 A 
ATOM      4  C   LIG A   1      -7.574  -3.202 123.918  0.00  0.00    +0.012 A 
ATOM      5  C   LIG A   1      -6.312  -3.505 124.423  0.00  0.00    +0.001 A 
ATOM      6  C   LIG A   1      -5.425  -2.474 124.720  0.00  0.00    +0.001 A 
ATOM      7  C   LIG A   1      -5.795  -1.142 124.508  0.00  0.00    +0.012 A 
ATOM      8  C   LIG A   1      -7.063  -0.813 123.996  0.00  0.00    +0.028 A 
ATOM      9  C   LIG A   1      -7.457   0.592 123.763  0.00  0.00    +0.136 C 
ATOM     10  C   LIG A   1      -8.677   0.925 123.308  0.00  0.00    +0.045 C 
ATOM     11  C   LIG A   1      -9.111   2.346 123.117  0.00  0.00    +0.047 C 
ATOM     12  C   LIG A   1      -8.132   3.306 123.781  0.00  0.00    +0.052 C 
ATOM     13  C   LIG A   1      -6.683   2.865 123.538  0.00  0.00    +0.105 C 
ATOM     14  C   LIG A   1      -6.283   2.921 122.055  0.00  0.00    +0.055 C 
ATOM     15  C   LIG A   1      -5.742   3.785 124.328  0.00  0.00    +0.055 C 
ATOM     16  O   LIG A   1      -6.470   1.527 124.033  0.00  0.00    -0.485 OA
ATOM     17  C   LIG A   1      -9.672  -0.119 122.966  0.00  0.00    +0.233 C 
ATOM     18  O   LIG A   1     -10.771   0.170 122.513  0.00  0.00    -0.283 OA
ENDROOT
TORSDOF 0
ENDMDL
MODEL 2
REMARK VINA RESULT:      -7.0      8.018     10.390
REMARK  Name = NuBBE_469
REMARK  2 active torsions:
REMARK  status: ('A' for Active; 'I' for Inactive)
REMARK    1  A    between atoms: C_13  and  C_14
REMARK    2  A    between atoms: C_13  and  C_15
REMARK                            x       y       z     vdW  Elec       q    Type
REMARK                         _______ _______ _______ _____ _____    ______ ____
ROOT
ATOM      1  O   LIG A   1     -10.224   6.779 127.239  0.00  0.00    -0.283 OA
ATOM      2  C   LIG A   1     -10.104   6.360 128.381  0.00  0.00    +0.233 C 
ATOM      3  C   LIG A   1     -11.016   6.788 129.456  0.00  0.00    +0.036 A 
ATOM      4  C   LIG A   1     -12.037   7.702 129.154  0.00  0.00    +0.012 A 
ATOM      5  C   LIG A   1     -12.910   8.124 130.153  0.00  0.00    +0.001 A 
ATOM      6  C   LIG A   1     -12.763   7.636 131.447  0.00  0.00    +0.001 A 
ATOM      7  C   LIG A   1     -11.745   6.722 131.744  0.00  0.00    +0.012 A 
ATOM      8  C   LIG A   1     -10.854   6.280 130.751  0.00  0.00    +0.028 A 
ATOM      9  C   LIG A   1      -9.782   5.310 131.058  0.00  0.00    +0.136 C 
ATOM     10  C   LIG A   1      -8.900   4.903 130.129  0.00  0.00    +0.045 C 
ATOM     11  C   LIG A   1      -7.776   3.961 130.435  0.00  0.00    +0.047 C 
ATOM     12  C   LIG A   1      -7.602   3.795 131.938  0.00  0.00    +0.052 C 
ATOM     13  C   LIG A   1      -8.963   3.681 132.638  0.00  0.00    +0.105 C 
ATOM     14  C   LIG A   1      -9.740   2.420 132.229  0.00  0.00    +0.055 C 
ATOM     15  C   LIG A   1      -8.742   3.644 134.157  0.00  0.00    +0.055 C 
ATOM     16  O   LIG A   1      -9.773   4.843 132.363  0.00  0.00    -0.485 OA
ATOM     17  C   LIG A   1      -8.999   5.378 128.728  0.00  0.00    +0.233 C 
ATOM     18  O   LIG A   1      -8.226   4.985 127.865  0.00  0.00    -0.283 OA
ENDROOT
TORSDOF 0
ENDMDL
MODEL 3
REMARK VINA RESULT:      -6.9      1.790      4.729
REMARK  Name = NuBBE_469
REMARK  2 active torsions:
REMARK  status: ('A' for Active; 'I' for Inactive)
REMARK    1  A    between atoms: C_13  and  C_14
REMARK    2  A    between atoms: C_13  and  C_15
REMARK                            x       y       z     vdW  Elec       q    Type
REMARK                         _______ _______ _______ _____ _____    ______ ____
ROOT
ATOM      1  O   LIG A   1      -8.457   3.387 123.371  0.00  0.00    -0.283 OA
ATOM      2  C   LIG A   1      -8.208   2.226 123.662  0.00  0.00    +0.233 C 
ATOM      3  C   LIG A   1      -7.088   1.881 124.555  0.00  0.00    +0.036 A 
ATOM      4  C   LIG A   1      -6.291   2.915 125.072  0.00  0.00    +0.012 A 
ATOM      5  C   LIG A   1      -5.226   2.615 125.916  0.00  0.00    +0.001 A 
ATOM      6  C   LIG A   1      -4.958   1.289 126.241  0.00  0.00    +0.001 A 
ATOM      7  C   LIG A   1      -5.756   0.261 125.727  0.00  0.00    +0.012 A 
ATOM      8  C   LIG A   1      -6.839   0.541 124.874  0.00  0.00    +0.028 A 
ATOM      9  C   LIG A   1      -7.689  -0.540 124.334  0.00  0.00    +0.136 C 
ATOM     10  C   LIG A   1      -8.706  -0.294 123.490  0.00  0.00    +0.045 C 
ATOM     11  C   LIG A   1      -9.545  -1.381 122.891  0.00  0.00    +0.047 C 
ATOM     12  C   LIG A   1      -8.906  -2.745 123.117  0.00  0.00    +0.052 C 
ATOM     13  C   LIG A   1      -8.337  -2.855 124.538  0.00  0.00    +0.105 C 
ATOM     14  C   LIG A   1      -9.424  -2.788 125.622  0.00  0.00    +0.055 C 
ATOM     15  C   LIG A   1      -7.595  -4.191 124.677  0.00  0.00    +0.055 C 
ATOM     16  O   LIG A   1      -7.368  -1.813 124.778  0.00  0.00    -0.485 OA
ATOM     17  C   LIG A   1      -9.053   1.095 123.104  0.00  0.00    +0.233 C 
ATOM     18  O   LIG A   1     -10.001   1.334 122.368  0.00  0.00    -0.283 OA
ENDROOT
TORSDOF 0
ENDMDL
MODEL 4
REMARK VINA RESULT:      -6.8      8.816      9.746
REMARK  Name = NuBBE_469
REMARK  2 active torsions:
REMARK  status: ('A' for Active; 'I' for Inactive)
REMARK    1  A    between atoms: C_13  and  C_14
REMARK    2  A    between atoms: C_13  and  C_15
REMARK                            x       y       z     vdW  Elec       q    Type
REMARK                         _______ _______ _______ _____ _____    ______ ____
ROOT
ATOM      1  O   LIG A   1      -6.312   5.059 132.068  0.00  0.00    -0.283 OA
ATOM      2  C   LIG A   1      -7.425   5.137 131.568  0.00  0.00    +0.233 C 
ATOM      3  C   LIG A   1      -8.367   4.005 131.611  0.00  0.00    +0.036 A 
ATOM      4  C   LIG A   1      -7.965   2.813 132.235  0.00  0.00    +0.012 A 
ATOM      5  C   LIG A   1      -8.835   1.728 132.286  0.00  0.00    +0.001 A 
ATOM      6  C   LIG A   1     -10.101   1.833 131.717  0.00  0.00    +0.001 A 
ATOM      7  C   LIG A   1     -10.499   3.024 131.099  0.00  0.00    +0.012 A 
ATOM      8  C   LIG A   1      -9.638   4.133 131.037  0.00  0.00    +0.028 A 
ATOM      9  C   LIG A   1     -10.056   5.395 130.392  0.00  0.00    +0.136 C 
ATOM     10  C   LIG A   1      -9.232   6.453 130.293  0.00  0.00    +0.045 C 
ATOM     11  C   LIG A   1      -9.621   7.721 129.597  0.00  0.00    +0.047 C 
ATOM     12  C   LIG A   1     -10.896   7.525 128.786  0.00  0.00    +0.052 C 
ATOM     13  C   LIG A   1     -11.918   6.687 129.566  0.00  0.00    +0.105 C 
ATOM     14  C   LIG A   1     -12.412   7.387 130.842  0.00  0.00    +0.055 C 
ATOM     15  C   LIG A   1     -13.129   6.410 128.665  0.00  0.00    +0.055 C 
ATOM     16  O   LIG A   1     -11.358   5.405 129.919  0.00  0.00    -0.485 OA
ATOM     17  C   LIG A   1      -7.873   6.415 130.881  0.00  0.00    +0.233 C 
ATOM     18  O   LIG A   1      -7.129   7.385 130.833  0.00  0.00    -0.283 OA
ENDROOT
TORSDOF 0
ENDMDL
MODEL 5
REMARK VINA RESULT:      -6.7      1.798      3.474
REMARK  Name = NuBBE_469
REMARK  2 active torsions:
REMARK  status: ('A' for Active; 'I' for Inactive)
REMARK    1  A    between atoms: C_13  and  C_14
REMARK    2  A    between atoms: C_13  and  C_15
REMARK                            x       y       z     vdW  Elec       q    Type
REMARK                         _______ _______ _______ _____ _____    ______ ____
ROOT
ATOM      1  O   LIG A   1      -5.685  -2.416 126.588  0.00  0.00    -0.283 OA
ATOM      2  C   LIG A   1      -6.242  -1.649 125.815  0.00  0.00    +0.233 C 
ATOM      3  C   LIG A   1      -7.333  -2.103 124.935  0.00  0.00    +0.036 A 
ATOM      4  C   LIG A   1      -7.729  -3.448 124.987  0.00  0.00    +0.012 A 
ATOM      5  C   LIG A   1      -8.756  -3.903 124.164  0.00  0.00    +0.001 A 
ATOM      6  C   LIG A   1      -9.382  -3.016 123.293  0.00  0.00    +0.001 A 
ATOM      7  C   LIG A   1      -8.987  -1.675 123.246  0.00  0.00    +0.012 A 
ATOM      8  C   LIG A   1      -7.954  -1.194 124.070  0.00  0.00    +0.028 A 
ATOM      9  C   LIG A   1      -7.537   0.223 124.029  0.00  0.00    +0.136 C 
ATOM     10  C   LIG A   1      -6.528   0.692 124.784  0.00  0.00    +0.045 C 
ATOM     11  C   LIG A   1      -6.058   2.113 124.718  0.00  0.00    +0.047 C 
ATOM     12  C   LIG A   1      -6.647   2.823 123.506  0.00  0.00    +0.052 C 
ATOM     13  C   LIG A   1      -8.124   2.452 123.319  0.00  0.00    +0.105 C 
ATOM     14  C   LIG A   1      -9.011   2.934 124.477  0.00  0.00    +0.055 C 
ATOM     15  C   LIG A   1      -8.638   3.088 122.019  0.00  0.00    +0.055 C 
ATOM     16  O   LIG A   1      -8.274   1.025 123.173  0.00  0.00    -0.485 OA
ATOM     17  C   LIG A   1      -5.819  -0.193 125.739  0.00  0.00    +0.233 C 
ATOM     18  O   LIG A   1      -4.926   0.232 126.460  0.00  0.00    -0.283 OA
ENDROOT
TORSDOF 0
ENDMDL
MODEL 6
REMARK VINA RESULT:      -6.7      3.211      4.251
REMARK  Name = NuBBE_469
REMARK  2 active torsions:
REMARK  status: ('A' for Active; 'I' for Inactive)
REMARK    1  A    between atoms: C_13  and  C_14
REMARK    2  A    between atoms: C_13  and  C_15
REMARK                            x       y       z     vdW  Elec       q    Type
REMARK                         _______ _______ _______ _____ _____    ______ ____
ROOT
ATOM      1  O   LIG A   1      -9.532   1.097 122.935  0.00  0.00    -0.283 OA
ATOM      2  C   LIG A   1      -9.188   0.633 124.013  0.00  0.00    +0.233 C 
ATOM      3  C   LIG A   1      -8.999  -0.816 124.198  0.00  0.00    +0.036 A 
ATOM      4  C   LIG A   1      -9.229  -1.674 123.112  0.00  0.00    +0.012 A 
ATOM      5  C   LIG A   1      -9.059  -3.048 123.263  0.00  0.00    +0.001 A 
ATOM      6  C   LIG A   1      -8.663  -3.561 124.494  0.00  0.00    +0.001 A 
ATOM      7  C   LIG A   1      -8.431  -2.702 125.574  0.00  0.00    +0.012 A 
ATOM      8  C   LIG A   1      -8.594  -1.312 125.444  0.00  0.00    +0.028 A 
ATOM      9  C   LIG A   1      -8.344  -0.400 126.580  0.00  0.00    +0.136 C 
ATOM     10  C   LIG A   1      -8.528   0.928 126.483  0.00  0.00    +0.045 C 
ATOM     11  C   LIG A   1      -8.330   1.861 127.638  0.00  0.00    +0.047 C 
ATOM     12  C   LIG A   1      -8.208   1.088 128.944  0.00  0.00    +0.052 C 
ATOM     13  C   LIG A   1      -7.340  -0.164 128.761  0.00  0.00    +0.105 C 
ATOM     14  C   LIG A   1      -5.882   0.168 128.407  0.00  0.00    +0.055 C 
ATOM     15  C   LIG A   1      -7.351  -0.975 130.064  0.00  0.00    +0.055 C 
ATOM     16  O   LIG A   1      -7.891  -1.017 127.735  0.00  0.00    -0.485 OA
ATOM     17  C   LIG A   1      -8.944   1.546 125.201  0.00  0.00    +0.233 C 
ATOM     18  O   LIG A   1      -9.077   2.757 125.090  0.00  0.00    -0.283 OA
ENDROOT
TORSDOF 0
ENDMDL
MODEL 7
REMARK VINA RESULT:      -6.6      3.063      3.278
REMARK  Name = NuBBE_469
REMARK  2 active torsions:
REMARK  status: ('A' for Active; 'I' for Inactive)
REMARK    1  A    between atoms: C_13  and  C_14
REMARK    2  A    between atoms: C_13  and  C_15
REMARK                            x       y       z     vdW  Elec       q    Type
REMARK                         _______ _______ _______ _____ _____    ______ ____
ROOT
ATOM      1  O   LIG A   1      -9.597  -2.830 124.195  0.00  0.00    -0.283 OA
ATOM      2  C   LIG A   1      -9.012  -2.029 124.911  0.00  0.00    +0.233 C 
ATOM      3  C   LIG A   1      -8.692  -2.346 126.313  0.00  0.00    +0.036 A 
ATOM      4  C   LIG A   1      -9.076  -3.592 126.831  0.00  0.00    +0.012 A 
ATOM      5  C   LIG A   1      -8.787  -3.915 128.155  0.00  0.00    +0.001 A 
ATOM      6  C   LIG A   1      -8.118  -2.995 128.956  0.00  0.00    +0.001 A 
ATOM      7  C   LIG A   1      -7.733  -1.754 128.435  0.00  0.00    +0.012 A 
ATOM      8  C   LIG A   1      -8.012  -1.409 127.101  0.00  0.00    +0.028 A 
ATOM      9  C   LIG A   1      -7.602  -0.103 126.544  0.00  0.00    +0.136 C 
ATOM     10  C   LIG A   1      -7.892   0.258 125.282  0.00  0.00    +0.045 C 
ATOM     11  C   LIG A   1      -7.530   1.597 124.718  0.00  0.00    +0.047 C 
ATOM     12  C   LIG A   1      -7.096   2.552 125.823  0.00  0.00    +0.052 C 
ATOM     13  C   LIG A   1      -6.200   1.837 126.843  0.00  0.00    +0.105 C 
ATOM     14  C   LIG A   1      -4.868   1.365 126.239  0.00  0.00    +0.055 C 
ATOM     15  C   LIG A   1      -5.893   2.799 127.999  0.00  0.00    +0.055 C 
ATOM     16  O   LIG A   1      -6.886   0.704 127.414  0.00  0.00    -0.485 OA
ATOM     17  C   LIG A   1      -8.598  -0.673 124.370  0.00  0.00    +0.233 C 
ATOM     18  O   LIG A   1      -8.832  -0.372 123.207  0.00  0.00    -0.283 OA
ENDROOT
TORSDOF 0
ENDMDL
MODEL 8
REMARK VINA RESULT:      -6.5      8.895     11.151
REMARK  Name = NuBBE_469
REMARK  2 active torsions:
REMARK  status: ('A' for Active; 'I' for Inactive)
REMARK    1  A    between atoms: C_13  and  C_14
REMARK    2  A    between atoms: C_13  and  C_15
REMARK                            x       y       z     vdW  Elec       q    Type
REMARK                         _______ _______ _______ _____ _____    ______ ____
ROOT
ATOM      1  O   LIG A   1      -5.093   5.111 134.504  0.00  0.00    -0.283 OA
ATOM      2  C   LIG A   1      -5.780   5.570 133.602  0.00  0.00    +0.233 C 
ATOM      3  C   LIG A   1      -5.181   6.339 132.497  0.00  0.00    +0.036 A 
ATOM      4  C   LIG A   1      -3.793   6.549 132.492  0.00  0.00    +0.012 A 
ATOM      5  C   LIG A   1      -3.203   7.274 131.460  0.00  0.00    +0.001 A 
ATOM      6  C   LIG A   1      -3.997   7.787 130.439  0.00  0.00    +0.001 A 
ATOM      7  C   LIG A   1      -5.380   7.572 130.445  0.00  0.00    +0.012 A 
ATOM      8  C   LIG A   1      -5.996   6.841 131.475  0.00  0.00    +0.028 A 
ATOM      9  C   LIG A   1      -7.455   6.606 131.483  0.00  0.00    +0.136 C 
ATOM     10  C   LIG A   1      -8.065   5.939 132.478  0.00  0.00    +0.045 C 
ATOM     11  C   LIG A   1      -9.549   5.737 132.529  0.00  0.00    +0.047 C 
ATOM     12  C   LIG A   1     -10.252   6.625 131.510  0.00  0.00    +0.052 C 
ATOM     13  C   LIG A   1      -9.485   6.646 130.181  0.00  0.00    +0.105 C 
ATOM     14  C   LIG A   1      -9.450   5.273 129.491  0.00  0.00    +0.055 C 
ATOM     15  C   LIG A   1     -10.158   7.648 129.232  0.00  0.00    +0.055 C 
ATOM     16  O   LIG A   1      -8.133   7.107 130.383  0.00  0.00    -0.485 OA
ATOM     17  C   LIG A   1      -7.283   5.361 133.596  0.00  0.00    +0.233 C 
ATOM     18  O   LIG A   1      -7.823   4.718 134.487  0.00  0.00    -0.283 OA
ENDROOT
TORSDOF 0
ENDMDL
MODEL 9
REMARK VINA RESULT:      -6.3      2.809      5.785
REMARK  Name = NuBBE_469
REMARK  2 active torsions:
REMARK  status: ('A' for Active; 'I' for Inactive)
REMARK    1  A    between atoms: C_13  and  C_14
REMARK    2  A    between atoms: C_13  and  C_15
REMARK                            x       y       z     vdW  Elec       q    Type
REMARK                         _______ _______ _______ _____ _____    ______ ____
ROOT
ATOM      1  O   LIG A   1      -5.968   1.239 128.648  0.00  0.00    -0.283 OA
ATOM      2  C   LIG A   1      -6.507   0.639 127.729  0.00  0.00    +0.233 C 
ATOM      3  C   LIG A   1      -6.559   1.205 126.370  0.00  0.00    +0.036 A 
ATOM      4  C   LIG A   1      -5.982   2.462 126.137  0.00  0.00    +0.012 A 
ATOM      5  C   LIG A   1      -6.020   3.019 124.861  0.00  0.00    +0.001 A 
ATOM      6  C   LIG A   1      -6.634   2.323 123.825  0.00  0.00    +0.001 A 
ATOM      7  C   LIG A   1      -7.206   1.068 124.060  0.00  0.00    +0.012 A 
ATOM      8  C   LIG A   1      -7.177   0.485 125.339  0.00  0.00    +0.028 A 
ATOM      9  C   LIG A   1      -7.773  -0.843 125.592  0.00  0.00    +0.136 C 
ATOM     10  C   LIG A   1      -7.785  -1.399 126.816  0.00  0.00    +0.045 C 
ATOM     11  C   LIG A   1      -8.432  -2.720 127.100  0.00  0.00    +0.047 C 
ATOM     12  C   LIG A   1      -9.301  -3.161 125.930  0.00  0.00    +0.052 C 
ATOM     13  C   LIG A   1      -8.606  -2.874 124.592  0.00  0.00    +0.105 C 
ATOM     14  C   LIG A   1      -7.318  -3.690 124.403  0.00  0.00    +0.055 C 
ATOM     15  C   LIG A   1      -9.569  -3.216 123.446  0.00  0.00    +0.055 C 
ATOM     16  O   LIG A   1      -8.297  -1.470 124.473  0.00  0.00    -0.485 OA
ATOM     17  C   LIG A   1      -7.146  -0.718 127.966  0.00  0.00    +0.233 C 
ATOM     18  O   LIG A   1      -7.115  -1.232 129.076  0.00  0.00    -0.283 OA
ENDROOT
TORSDOF 0
ENDMDL
