MODEL 1
REMARK VINA RESULT:      -9.9      0.000      0.000
REMARK  Name = NuBBE_1502
REMARK  3 active torsions:
REMARK  status: ('A' for Active; 'I' for Inactive)
REMARK    1  A    between atoms: C_1  and  C_2
REMARK    2  A    between atoms: C_1  and  C_12
REMARK    3  A    between atoms: C_25  and  C_30
REMARK                            x       y       z     vdW  Elec       q    Type
REMARK                         _______ _______ _______ _____ _____    ______ ____
ROOT
ATOM      1  C   LIG A   1      -8.394   2.383 124.346  0.00  0.00    +0.182 C 
ATOM      2  N   LIG A   1      -8.477   1.001 124.842  0.00  0.00    -0.282 N 
ATOM      3  C   LIG A   1      -7.833   0.633 126.009  0.00  0.00    +0.134 A 
ATOM      4  N   LIG A   1      -7.594  -0.597 126.344  0.00  0.00    -0.232 NA
ATOM      5  C   LIG A   1      -8.018  -1.618 125.487  0.00  0.00    +0.078 A 
ATOM      6  C   LIG A   1      -8.724  -1.361 124.315  0.00  0.00    +0.065 A 
ATOM      7  C   LIG A   1      -8.936   0.046 123.942  0.00  0.00    +0.263 A 
ATOM      8  O   LIG A   1      -9.465   0.318 122.865  0.00  0.00    -0.267 OA
ATOM      9  C   LIG A   1      -9.190  -2.404 123.506  0.00  0.00    +0.015 A 
ATOM     10  C   LIG A   1      -8.948  -3.725 123.879  0.00  0.00    +0.001 A 
ATOM     11  C   LIG A   1      -8.236  -3.996 125.047  0.00  0.00    +0.002 A 
ATOM     12  C   LIG A   1      -7.775  -2.946 125.846  0.00  0.00    +0.028 A 
ATOM     13  C   LIG A   1      -7.599   1.731 127.061  0.00  0.00    +0.136 C 
ATOM     14  N   LIG A   1      -7.529   3.073 126.528  0.00  0.00    -0.304 N 
ATOM     15  C   LIG A   1      -8.273   3.440 125.440  0.00  0.00    +0.237 C 
ATOM     16  O   LIG A   1      -8.591   4.616 125.277  0.00  0.00    -0.274 OA
ATOM     17  C   LIG A   1      -8.706   1.647 128.110  0.00  0.00    +0.036 C 
ATOM     18  H   LIG A   1      -7.358   3.829 127.180  0.00  0.00    +0.149 HD
ENDROOT
BRANCH   1  19
ATOM     19  C   LIG A   1      -7.257   2.595 123.319  0.00  0.00    +0.072 C 
BRANCH  19  20
ATOM     20  C   LIG A   1      -7.670   3.158 121.986  0.00  0.00    -0.020 A 
ATOM     21  C   LIG A   1      -6.843   3.869 121.051  0.00  0.00    +0.003 A 
ATOM     22  C   LIG A   1      -7.653   4.254 119.982  0.00  0.00    +0.047 A 
ATOM     23  N   LIG A   1      -8.919   3.787 120.245  0.00  0.00    -0.360 N 
ATOM     24  H   LIG A   1      -9.716   3.925 119.641  0.00  0.00    +0.165 HD
ATOM     25  C   LIG A   1      -8.938   3.113 121.437  0.00  0.00    +0.087 A 
ATOM     26  C   LIG A   1      -7.171   4.985 118.888  0.00  0.00    +0.026 A 
ATOM     27  C   LIG A   1      -5.812   5.310 118.872  0.00  0.00    +0.002 A 
ATOM     28  C   LIG A   1      -4.972   4.927 119.914  0.00  0.00    +0.001 A 
ATOM     29  C   LIG A   1      -5.476   4.221 121.012  0.00  0.00    +0.010 A 
ENDBRANCH  19  20
ENDBRANCH   1  19
TORSDOF 2
ENDMDL
MODEL 2
REMARK VINA RESULT:      -9.6      1.264      1.468
REMARK  Name = NuBBE_1502
REMARK  3 active torsions:
REMARK  status: ('A' for Active; 'I' for Inactive)
REMARK    1  A    between atoms: C_1  and  C_2
REMARK    2  A    between atoms: C_1  and  C_12
REMARK    3  A    between atoms: C_25  and  C_30
REMARK                            x       y       z     vdW  Elec       q    Type
REMARK                         _______ _______ _______ _____ _____    ______ ____
ROOT
ATOM      1  C   LIG A   1      -8.277   2.615 125.184  0.00  0.00    +0.182 C 
ATOM      2  N   LIG A   1      -8.363   1.437 126.059  0.00  0.00    -0.282 N 
ATOM      3  C   LIG A   1      -7.643   1.382 127.238  0.00  0.00    +0.134 A 
ATOM      4  N   LIG A   1      -7.415   0.288 127.895  0.00  0.00    -0.232 NA
ATOM      5  C   LIG A   1      -7.935  -0.912 127.396  0.00  0.00    +0.078 A 
ATOM      6  C   LIG A   1      -8.721  -0.962 126.248  0.00  0.00    +0.065 A 
ATOM      7  C   LIG A   1      -8.918   0.290 125.503  0.00  0.00    +0.263 A 
ATOM      8  O   LIG A   1      -9.521   0.272 124.430  0.00  0.00    -0.267 OA
ATOM      9  C   LIG A   1      -9.279  -2.167 125.805  0.00  0.00    +0.015 A 
ATOM     10  C   LIG A   1      -9.049  -3.339 126.524  0.00  0.00    +0.001 A 
ATOM     11  C   LIG A   1      -8.258  -3.303 127.672  0.00  0.00    +0.002 A 
ATOM     12  C   LIG A   1      -7.705  -2.093 128.105  0.00  0.00    +0.028 A 
ATOM     13  C   LIG A   1      -7.295   2.720 127.914  0.00  0.00    +0.136 C 
ATOM     14  N   LIG A   1      -7.226   3.850 127.015  0.00  0.00    -0.304 N 
ATOM     15  C   LIG A   1      -8.041   3.931 125.918  0.00  0.00    +0.237 C 
ATOM     16  O   LIG A   1      -8.335   5.027 125.447  0.00  0.00    -0.274 OA
ATOM     17  C   LIG A   1      -8.320   2.994 129.013  0.00  0.00    +0.036 C 
ATOM     18  H   LIG A   1      -6.983   4.750 127.410  0.00  0.00    +0.149 HD
ENDROOT
BRANCH   1  19
ATOM     19  C   LIG A   1      -7.217   2.468 124.067  0.00  0.00    +0.072 C 
BRANCH  19  20
ATOM     20  C   LIG A   1      -7.638   2.921 122.695  0.00  0.00    -0.020 A 
ATOM     21  C   LIG A   1      -6.828   3.592 121.717  0.00  0.00    +0.003 A 
ATOM     22  C   LIG A   1      -7.642   3.873 120.619  0.00  0.00    +0.047 A 
ATOM     23  N   LIG A   1      -8.893   3.383 120.907  0.00  0.00    -0.360 N 
ATOM     24  H   LIG A   1      -9.691   3.451 120.290  0.00  0.00    +0.165 HD
ATOM     25  C   LIG A   1      -8.899   2.795 122.144  0.00  0.00    +0.087 A 
ATOM     26  C   LIG A   1      -7.177   4.541 119.478  0.00  0.00    +0.026 A 
ATOM     27  C   LIG A   1      -5.829   4.910 119.447  0.00  0.00    +0.002 A 
ATOM     28  C   LIG A   1      -4.985   4.631 120.518  0.00  0.00    +0.001 A 
ATOM     29  C   LIG A   1      -5.474   3.987 121.660  0.00  0.00    +0.010 A 
ENDBRANCH  19  20
ENDBRANCH   1  19
TORSDOF 2
ENDMDL
MODEL 3
REMARK VINA RESULT:      -9.0      7.784     10.149
REMARK  Name = NuBBE_1502
REMARK  3 active torsions:
REMARK  status: ('A' for Active; 'I' for Inactive)
REMARK    1  A    between atoms: C_1  and  C_2
REMARK    2  A    between atoms: C_1  and  C_12
REMARK    3  A    between atoms: C_25  and  C_30
REMARK                            x       y       z     vdW  Elec       q    Type
REMARK                         _______ _______ _______ _____ _____    ______ ____
ROOT
ATOM      1  C   LIG A   1      -7.800   5.556 130.566  0.00  0.00    +0.182 C 
ATOM      2  N   LIG A   1      -6.372   5.439 130.895  0.00  0.00    -0.282 N 
ATOM      3  C   LIG A   1      -5.884   4.305 131.519  0.00  0.00    +0.134 A 
ATOM      4  N   LIG A   1      -4.735   4.248 132.117  0.00  0.00    -0.232 NA
ATOM      5  C   LIG A   1      -3.928   5.391 132.125  0.00  0.00    +0.078 A 
ATOM      6  C   LIG A   1      -4.297   6.567 131.478  0.00  0.00    +0.065 A 
ATOM      7  C   LIG A   1      -5.627   6.612 130.852  0.00  0.00    +0.263 A 
ATOM      8  O   LIG A   1      -6.033   7.663 130.359  0.00  0.00    -0.267 OA
ATOM      9  C   LIG A   1      -3.444   7.677 131.449  0.00  0.00    +0.015 A 
ATOM     10  C   LIG A   1      -2.200   7.606 132.076  0.00  0.00    +0.001 A 
ATOM     11  C   LIG A   1      -1.821   6.436 132.733  0.00  0.00    +0.002 A 
ATOM     12  C   LIG A   1      -2.682   5.334 132.754  0.00  0.00    +0.028 A 
ATOM     13  C   LIG A   1      -6.650   2.990 131.291  0.00  0.00    +0.136 C 
ATOM     14  N   LIG A   1      -8.049   3.155 130.966  0.00  0.00    -0.304 N 
ATOM     15  C   LIG A   1      -8.483   4.231 130.240  0.00  0.00    +0.237 C 
ATOM     16  O   LIG A   1      -9.511   4.151 129.571  0.00  0.00    -0.274 OA
ATOM     17  C   LIG A   1      -5.950   2.203 130.184  0.00  0.00    +0.036 C 
ATOM     18  H   LIG A   1      -8.599   2.318 130.823  0.00  0.00    +0.149 HD
ENDROOT
BRANCH   1  19
ATOM     19  C   LIG A   1      -8.619   6.286 131.656  0.00  0.00    +0.072 C 
BRANCH  19  20
ATOM     20  C   LIG A   1     -10.056   6.576 131.317  0.00  0.00    -0.020 A 
ATOM     21  C   LIG A   1     -10.550   7.296 130.177  0.00  0.00    +0.003 A 
ATOM     22  C   LIG A   1     -11.937   7.375 130.298  0.00  0.00    +0.047 A 
ATOM     23  N   LIG A   1     -12.279   6.719 131.457  0.00  0.00    -0.360 N 
ATOM     24  H   LIG A   1     -13.224   6.622 131.802  0.00  0.00    +0.165 HD
ATOM     25  C   LIG A   1     -11.160   6.221 132.069  0.00  0.00    +0.087 A 
ATOM     26  C   LIG A   1     -12.747   8.029 129.360  0.00  0.00    +0.026 A 
ATOM     27  C   LIG A   1     -12.122   8.597 128.247  0.00  0.00    +0.002 A 
ATOM     28  C   LIG A   1     -10.742   8.523 128.086  0.00  0.00    +0.001 A 
ATOM     29  C   LIG A   1      -9.945   7.890 129.047  0.00  0.00    +0.010 A 
ENDBRANCH  19  20
ENDBRANCH   1  19
TORSDOF 2
ENDMDL
MODEL 4
REMARK VINA RESULT:      -9.0      5.797      9.267
REMARK  Name = NuBBE_1502
REMARK  3 active torsions:
REMARK  status: ('A' for Active; 'I' for Inactive)
REMARK    1  A    between atoms: C_1  and  C_2
REMARK    2  A    between atoms: C_1  and  C_12
REMARK    3  A    between atoms: C_25  and  C_30
REMARK                            x       y       z     vdW  Elec       q    Type
REMARK                         _______ _______ _______ _____ _____    ______ ____
ROOT
ATOM      1  C   LIG A   1      -6.466   5.506 131.395  0.00  0.00    +0.182 C 
ATOM      2  N   LIG A   1      -5.817   4.972 130.189  0.00  0.00    -0.282 N 
ATOM      3  C   LIG A   1      -4.572   5.429 129.798  0.00  0.00    +0.134 A 
ATOM      4  N   LIG A   1      -4.078   5.254 128.612  0.00  0.00    -0.232 NA
ATOM      5  C   LIG A   1      -4.836   4.551 127.669  0.00  0.00    +0.078 A 
ATOM      6  C   LIG A   1      -6.077   3.999 127.974  0.00  0.00    +0.065 A 
ATOM      7  C   LIG A   1      -6.627   4.258 129.313  0.00  0.00    +0.263 A 
ATOM      8  O   LIG A   1      -7.763   3.875 129.589  0.00  0.00    -0.267 OA
ATOM      9  C   LIG A   1      -6.788   3.247 127.030  0.00  0.00    +0.015 A 
ATOM     10  C   LIG A   1      -6.245   3.045 125.762  0.00  0.00    +0.001 A 
ATOM     11  C   LIG A   1      -5.006   3.598 125.442  0.00  0.00    +0.002 A 
ATOM     12  C   LIG A   1      -4.305   4.347 126.393  0.00  0.00    +0.028 A 
ATOM     13  C   LIG A   1      -3.643   5.971 130.899  0.00  0.00    +0.136 C 
ATOM     14  N   LIG A   1      -4.325   6.481 132.067  0.00  0.00    -0.304 N 
ATOM     15  C   LIG A   1      -5.499   5.925 132.498  0.00  0.00    +0.237 C 
ATOM     16  O   LIG A   1      -5.821   6.004 133.682  0.00  0.00    -0.274 OA
ATOM     17  C   LIG A   1      -2.672   4.865 131.308  0.00  0.00    +0.036 C 
ATOM     18  H   LIG A   1      -3.757   6.865 132.812  0.00  0.00    +0.149 HD
ENDROOT
BRANCH   1  19
ATOM     19  C   LIG A   1      -7.428   6.680 131.101  0.00  0.00    +0.072 C 
BRANCH  19  20
ATOM     20  C   LIG A   1      -8.863   6.472 131.504  0.00  0.00    -0.020 A 
ATOM     21  C   LIG A   1     -10.034   6.933 130.810  0.00  0.00    +0.003 A 
ATOM     22  C   LIG A   1     -11.145   6.566 131.571  0.00  0.00    +0.047 A 
ATOM     23  N   LIG A   1     -10.674   5.898 132.676  0.00  0.00    -0.360 N 
ATOM     24  H   LIG A   1     -11.259   5.520 133.408  0.00  0.00    +0.165 HD
ATOM     25  C   LIG A   1      -9.308   5.821 132.639  0.00  0.00    +0.087 A 
ATOM     26  C   LIG A   1     -12.459   6.872 131.195  0.00  0.00    +0.026 A 
ATOM     27  C   LIG A   1     -12.647   7.552 129.988  0.00  0.00    +0.002 A 
ATOM     28  C   LIG A   1     -11.563   7.919 129.196  0.00  0.00    +0.001 A 
ATOM     29  C   LIG A   1     -10.255   7.628 129.601  0.00  0.00    +0.010 A 
ENDBRANCH  19  20
ENDBRANCH   1  19
TORSDOF 2
ENDMDL
MODEL 5
REMARK VINA RESULT:      -8.6      7.205     10.164
REMARK  Name = NuBBE_1502
REMARK  3 active torsions:
REMARK  status: ('A' for Active; 'I' for Inactive)
REMARK    1  A    between atoms: C_1  and  C_2
REMARK    2  A    between atoms: C_1  and  C_12
REMARK    3  A    between atoms: C_25  and  C_30
REMARK                            x       y       z     vdW  Elec       q    Type
REMARK                         _______ _______ _______ _____ _____    ______ ____
ROOT
ATOM      1  C   LIG A   1      -8.406   4.762 132.272  0.00  0.00    +0.182 C 
ATOM      2  N   LIG A   1      -9.174   5.235 131.110  0.00  0.00    -0.282 N 
ATOM      3  C   LIG A   1      -8.719   5.002 129.826  0.00  0.00    +0.134 A 
ATOM      4  N   LIG A   1      -9.152   5.638 128.781  0.00  0.00    -0.232 NA
ATOM      5  C   LIG A   1     -10.144   6.610 128.953  0.00  0.00    +0.078 A 
ATOM      6  C   LIG A   1     -10.711   6.883 130.195  0.00  0.00    +0.065 A 
ATOM      7  C   LIG A   1     -10.164   6.177 131.363  0.00  0.00    +0.263 A 
ATOM      8  O   LIG A   1     -10.566   6.463 132.490  0.00  0.00    -0.267 OA
ATOM      9  C   LIG A   1     -11.746   7.816 130.329  0.00  0.00    +0.015 A 
ATOM     10  C   LIG A   1     -12.221   8.484 129.202  0.00  0.00    +0.001 A 
ATOM     11  C   LIG A   1     -11.657   8.225 127.953  0.00  0.00    +0.002 A 
ATOM     12  C   LIG A   1     -10.624   7.290 127.832  0.00  0.00    +0.028 A 
ATOM     13  C   LIG A   1      -7.824   3.770 129.606  0.00  0.00    +0.136 C 
ATOM     14  N   LIG A   1      -7.093   3.340 130.777  0.00  0.00    -0.304 N 
ATOM     15  C   LIG A   1      -7.625   3.474 132.030  0.00  0.00    +0.237 C 
ATOM     16  O   LIG A   1      -7.270   2.723 132.936  0.00  0.00    -0.274 OA
ATOM     17  C   LIG A   1      -8.690   2.624 129.085  0.00  0.00    +0.036 C 
ATOM     18  H   LIG A   1      -6.477   2.542 130.678  0.00  0.00    +0.149 HD
ENDROOT
BRANCH   1  19
ATOM     19  C   LIG A   1      -7.445   5.831 132.843  0.00  0.00    +0.072 C 
BRANCH  19  20
ATOM     20  C   LIG A   1      -6.252   6.168 131.991  0.00  0.00    -0.020 A 
ATOM     21  C   LIG A   1      -4.916   5.658 132.127  0.00  0.00    +0.003 A 
ATOM     22  C   LIG A   1      -4.126   6.285 131.163  0.00  0.00    +0.047 A 
ATOM     23  N   LIG A   1      -4.947   7.133 130.458  0.00  0.00    -0.360 N 
ATOM     24  H   LIG A   1      -4.641   7.724 129.697  0.00  0.00    +0.165 HD
ATOM     25  C   LIG A   1      -6.228   7.059 130.934  0.00  0.00    +0.087 A 
ATOM     26  C   LIG A   1      -2.756   6.033 131.022  0.00  0.00    +0.026 A 
ATOM     27  C   LIG A   1      -2.178   5.089 131.874  0.00  0.00    +0.002 A 
ATOM     28  C   LIG A   1      -2.940   4.432 132.837  0.00  0.00    +0.001 A 
ATOM     29  C   LIG A   1      -4.302   4.717 132.982  0.00  0.00    +0.010 A 
ENDBRANCH  19  20
ENDBRANCH   1  19
TORSDOF 2
ENDMDL
MODEL 6
REMARK VINA RESULT:      -8.5      5.365      9.251
REMARK  Name = NuBBE_1502
REMARK  3 active torsions:
REMARK  status: ('A' for Active; 'I' for Inactive)
REMARK    1  A    between atoms: C_1  and  C_2
REMARK    2  A    between atoms: C_1  and  C_12
REMARK    3  A    between atoms: C_25  and  C_30
REMARK                            x       y       z     vdW  Elec       q    Type
REMARK                         _______ _______ _______ _____ _____    ______ ____
ROOT
ATOM      1  C   LIG A   1      -8.433   3.867 130.306  0.00  0.00    +0.182 C 
ATOM      2  N   LIG A   1      -9.238   5.093 130.398  0.00  0.00    -0.282 N 
ATOM      3  C   LIG A   1      -9.943   5.387 131.550  0.00  0.00    +0.134 A 
ATOM      4  N   LIG A   1     -10.904   6.256 131.607  0.00  0.00    -0.232 NA
ATOM      5  C   LIG A   1     -11.247   6.951 130.442  0.00  0.00    +0.078 A 
ATOM      6  C   LIG A   1     -10.565   6.774 129.242  0.00  0.00    +0.065 A 
ATOM      7  C   LIG A   1      -9.513   5.746 129.202  0.00  0.00    +0.263 A 
ATOM      8  O   LIG A   1      -8.956   5.487 128.136  0.00  0.00    -0.267 OA
ATOM      9  C   LIG A   1     -10.888   7.526 128.106  0.00  0.00    +0.015 A 
ATOM     10  C   LIG A   1     -11.909   8.473 128.176  0.00  0.00    +0.001 A 
ATOM     11  C   LIG A   1     -12.604   8.656 129.371  0.00  0.00    +0.002 A 
ATOM     12  C   LIG A   1     -12.272   7.898 130.498  0.00  0.00    +0.028 A 
ATOM     13  C   LIG A   1      -9.401   4.816 132.873  0.00  0.00    +0.136 C 
ATOM     14  N   LIG A   1      -8.611   3.614 132.732  0.00  0.00    -0.304 N 
ATOM     15  C   LIG A   1      -7.828   3.409 131.629  0.00  0.00    +0.237 C 
ATOM     16  O   LIG A   1      -6.837   2.685 131.701  0.00  0.00    -0.274 OA
ATOM     17  C   LIG A   1      -8.579   5.898 133.571  0.00  0.00    +0.036 C 
ATOM     18  H   LIG A   1      -8.247   3.190 133.577  0.00  0.00    +0.149 HD
ENDROOT
BRANCH   1  19
ATOM     19  C   LIG A   1      -9.195   2.683 129.667  0.00  0.00    +0.072 C 
BRANCH  19  20
ATOM     20  C   LIG A   1      -8.390   1.792 128.760  0.00  0.00    -0.020 A 
ATOM     21  C   LIG A   1      -7.895   0.476 129.053  0.00  0.00    +0.003 A 
ATOM     22  C   LIG A   1      -7.155   0.050 127.949  0.00  0.00    +0.047 A 
ATOM     23  N   LIG A   1      -7.206   1.058 127.015  0.00  0.00    -0.360 N 
ATOM     24  H   LIG A   1      -6.751   1.026 126.114  0.00  0.00    +0.165 HD
ATOM     25  C   LIG A   1      -7.958   2.102 127.484  0.00  0.00    +0.087 A 
ATOM     26  C   LIG A   1      -6.511  -1.193 127.900  0.00  0.00    +0.026 A 
ATOM     27  C   LIG A   1      -6.650  -2.041 129.001  0.00  0.00    +0.002 A 
ATOM     28  C   LIG A   1      -7.395  -1.655 130.112  0.00  0.00    +0.001 A 
ATOM     29  C   LIG A   1      -8.009  -0.398 130.156  0.00  0.00    +0.010 A 
ENDBRANCH  19  20
ENDBRANCH   1  19
TORSDOF 2
ENDMDL
MODEL 7
REMARK VINA RESULT:      -8.5      7.341      9.882
REMARK  Name = NuBBE_1502
REMARK  3 active torsions:
REMARK  status: ('A' for Active; 'I' for Inactive)
REMARK    1  A    between atoms: C_1  and  C_2
REMARK    2  A    between atoms: C_1  and  C_12
REMARK    3  A    between atoms: C_25  and  C_30
REMARK                            x       y       z     vdW  Elec       q    Type
REMARK                         _______ _______ _______ _____ _____    ______ ____
ROOT
ATOM      1  C   LIG A   1      -5.636   5.607 132.427  0.00  0.00    +0.182 C 
ATOM      2  N   LIG A   1      -7.054   5.994 132.407  0.00  0.00    -0.282 N 
ATOM      3  C   LIG A   1      -7.947   5.442 133.307  0.00  0.00    +0.134 A 
ATOM      4  N   LIG A   1      -9.235   5.482 133.163  0.00  0.00    -0.232 NA
ATOM      5  C   LIG A   1      -9.762   6.130 132.041  0.00  0.00    +0.078 A 
ATOM      6  C   LIG A   1      -8.956   6.768 131.102  0.00  0.00    +0.065 A 
ATOM      7  C   LIG A   1      -7.499   6.662 131.272  0.00  0.00    +0.263 A 
ATOM      8  O   LIG A   1      -6.751   7.124 130.412  0.00  0.00    -0.267 OA
ATOM      9  C   LIG A   1      -9.512   7.462 130.021  0.00  0.00    +0.015 A 
ATOM     10  C   LIG A   1     -10.898   7.519 129.879  0.00  0.00    +0.001 A 
ATOM     11  C   LIG A   1     -11.717   6.878 130.809  0.00  0.00    +0.002 A 
ATOM     12  C   LIG A   1     -11.149   6.189 131.885  0.00  0.00    +0.028 A 
ATOM     13  C   LIG A   1      -7.382   4.960 134.655  0.00  0.00    +0.136 C 
ATOM     14  N   LIG A   1      -5.983   4.595 134.627  0.00  0.00    -0.304 N 
ATOM     15  C   LIG A   1      -5.100   5.246 133.809  0.00  0.00    +0.237 C 
ATOM     16  O   LIG A   1      -3.907   5.293 134.101  0.00  0.00    -0.274 OA
ATOM     17  C   LIG A   1      -7.611   6.051 135.699  0.00  0.00    +0.036 C 
ATOM     18  H   LIG A   1      -5.570   4.255 135.486  0.00  0.00    +0.149 HD
ENDROOT
BRANCH   1  19
ATOM     19  C   LIG A   1      -5.304   4.459 131.445  0.00  0.00    +0.072 C 
BRANCH  19  20
ATOM     20  C   LIG A   1      -4.249   4.758 130.415  0.00  0.00    -0.020 A 
ATOM     21  C   LIG A   1      -3.963   4.007 129.224  0.00  0.00    +0.003 A 
ATOM     22  C   LIG A   1      -2.871   4.611 128.598  0.00  0.00    +0.047 A 
ATOM     23  N   LIG A   1      -2.513   5.693 129.367  0.00  0.00    -0.360 N 
ATOM     24  H   LIG A   1      -1.745   6.315 129.156  0.00  0.00    +0.165 HD
ATOM     25  C   LIG A   1      -3.342   5.801 130.451  0.00  0.00    +0.087 A 
ATOM     26  C   LIG A   1      -2.312   4.126 127.409  0.00  0.00    +0.026 A 
ATOM     27  C   LIG A   1      -2.904   3.003 126.824  0.00  0.00    +0.002 A 
ATOM     28  C   LIG A   1      -4.004   2.385 127.412  0.00  0.00    +0.001 A 
ATOM     29  C   LIG A   1      -4.532   2.868 128.615  0.00  0.00    +0.010 A 
ENDBRANCH  19  20
ENDBRANCH   1  19
TORSDOF 2
ENDMDL
MODEL 8
REMARK VINA RESULT:      -8.3      7.074      9.763
REMARK  Name = NuBBE_1502
REMARK  3 active torsions:
REMARK  status: ('A' for Active; 'I' for Inactive)
REMARK    1  A    between atoms: C_1  and  C_2
REMARK    2  A    between atoms: C_1  and  C_12
REMARK    3  A    between atoms: C_25  and  C_30
REMARK                            x       y       z     vdW  Elec       q    Type
REMARK                         _______ _______ _______ _____ _____    ______ ____
ROOT
ATOM      1  C   LIG A   1      -7.332   5.143 130.282  0.00  0.00    +0.182 C 
ATOM      2  N   LIG A   1      -6.831   4.138 131.231  0.00  0.00    -0.282 N 
ATOM      3  C   LIG A   1      -7.650   3.115 131.670  0.00  0.00    +0.134 A 
ATOM      4  N   LIG A   1      -7.403   2.391 132.717  0.00  0.00    -0.232 NA
ATOM      5  C   LIG A   1      -6.235   2.645 133.444  0.00  0.00    +0.078 A 
ATOM      6  C   LIG A   1      -5.313   3.613 133.058  0.00  0.00    +0.065 A 
ATOM      7  C   LIG A   1      -5.649   4.447 131.894  0.00  0.00    +0.263 A 
ATOM      8  O   LIG A   1      -4.910   5.380 131.580  0.00  0.00    -0.267 OA
ATOM      9  C   LIG A   1      -4.121   3.804 133.769  0.00  0.00    +0.015 A 
ATOM     10  C   LIG A   1      -3.850   3.011 134.882  0.00  0.00    +0.001 A 
ATOM     11  C   LIG A   1      -4.768   2.042 135.284  0.00  0.00    +0.002 A 
ATOM     12  C   LIG A   1      -5.954   1.860 134.566  0.00  0.00    +0.028 A 
ATOM     13  C   LIG A   1      -8.789   2.673 130.734  0.00  0.00    +0.136 C 
ATOM     14  N   LIG A   1      -9.246   3.692 129.817  0.00  0.00    -0.304 N 
ATOM     15  C   LIG A   1      -8.380   4.621 129.305  0.00  0.00    +0.237 C 
ATOM     16  O   LIG A   1      -8.614   5.152 128.221  0.00  0.00    -0.274 OA
ATOM     17  C   LIG A   1      -8.331   1.442 129.955  0.00  0.00    +0.036 C 
ATOM     18  H   LIG A   1     -10.006   3.455 129.192  0.00  0.00    +0.149 HD
ENDROOT
BRANCH   1  19
ATOM     19  C   LIG A   1      -7.881   6.413 130.973  0.00  0.00    +0.072 C 
BRANCH  19  20
ATOM     20  C   LIG A   1      -9.360   6.426 131.250  0.00  0.00    -0.020 A 
ATOM     21  C   LIG A   1     -10.381   7.082 130.481  0.00  0.00    +0.003 A 
ATOM     22  C   LIG A   1     -11.597   6.878 131.134  0.00  0.00    +0.047 A 
ATOM     23  N   LIG A   1     -11.333   6.117 132.249  0.00  0.00    -0.360 N 
ATOM     24  H   LIG A   1     -12.031   5.819 132.916  0.00  0.00    +0.165 HD
ATOM     25  C   LIG A   1      -9.997   5.826 132.320  0.00  0.00    +0.087 A 
ATOM     26  C   LIG A   1     -12.810   7.397 130.664  0.00  0.00    +0.026 A 
ATOM     27  C   LIG A   1     -12.785   8.126 129.472  0.00  0.00    +0.002 A 
ATOM     28  C   LIG A   1     -11.593   8.336 128.786  0.00  0.00    +0.001 A 
ATOM     29  C   LIG A   1     -10.386   7.832 129.285  0.00  0.00    +0.010 A 
ENDBRANCH  19  20
ENDBRANCH   1  19
TORSDOF 2
ENDMDL
MODEL 9
REMARK VINA RESULT:      -8.3      4.426      6.003
REMARK  Name = NuBBE_1502
REMARK  3 active torsions:
REMARK  status: ('A' for Active; 'I' for Inactive)
REMARK    1  A    between atoms: C_1  and  C_2
REMARK    2  A    between atoms: C_1  and  C_12
REMARK    3  A    between atoms: C_25  and  C_30
REMARK                            x       y       z     vdW  Elec       q    Type
REMARK                         _______ _______ _______ _____ _____    ______ ____
ROOT
ATOM      1  C   LIG A   1      -8.996  -1.451 126.759  0.00  0.00    +0.182 C 
ATOM      2  N   LIG A   1      -7.783  -1.625 127.572  0.00  0.00    -0.282 N 
ATOM      3  C   LIG A   1      -6.602  -1.002 127.213  0.00  0.00    +0.134 A 
ATOM      4  N   LIG A   1      -5.438  -1.341 127.675  0.00  0.00    -0.232 NA
ATOM      5  C   LIG A   1      -5.365  -2.389 128.599  0.00  0.00    +0.078 A 
ATOM      6  C   LIG A   1      -6.498  -3.046 129.070  0.00  0.00    +0.065 A 
ATOM      7  C   LIG A   1      -7.795  -2.668 128.490  0.00  0.00    +0.263 A 
ATOM      8  O   LIG A   1      -8.808  -3.293 128.803  0.00  0.00    -0.267 OA
ATOM      9  C   LIG A   1      -6.402  -4.051 130.041  0.00  0.00    +0.015 A 
ATOM     10  C   LIG A   1      -5.152  -4.400 130.549  0.00  0.00    +0.001 A 
ATOM     11  C   LIG A   1      -4.008  -3.754 130.081  0.00  0.00    +0.002 A 
ATOM     12  C   LIG A   1      -4.117  -2.752 129.111  0.00  0.00    +0.028 A 
ATOM     13  C   LIG A   1      -6.710   0.302 126.404  0.00  0.00    +0.136 C 
ATOM     14  N   LIG A   1      -7.921   0.430 125.625  0.00  0.00    -0.304 N 
ATOM     15  C   LIG A   1      -9.104  -0.096 126.067  0.00  0.00    +0.237 C 
ATOM     16  O   LIG A   1     -10.171   0.388 125.698  0.00  0.00    -0.274 OA
ATOM     17  C   LIG A   1      -6.583   1.485 127.363  0.00  0.00    +0.036 C 
ATOM     18  H   LIG A   1      -8.030   1.264 125.061  0.00  0.00    +0.149 HD
ENDROOT
BRANCH   1  19
ATOM     19  C   LIG A   1      -9.189  -2.568 125.706  0.00  0.00    +0.072 C 
BRANCH  19  20
ATOM     20  C   LIG A   1      -8.443  -2.389 124.412  0.00  0.00    -0.020 A 
ATOM     21  C   LIG A   1      -7.078  -2.745 124.141  0.00  0.00    +0.003 A 
ATOM     22  C   LIG A   1      -6.791  -2.347 122.835  0.00  0.00    +0.047 A 
ATOM     23  N   LIG A   1      -7.937  -1.784 122.323  0.00  0.00    -0.360 N 
ATOM     24  H   LIG A   1      -8.018  -1.402 121.391  0.00  0.00    +0.165 HD
ATOM     25  C   LIG A   1      -8.939  -1.818 123.254  0.00  0.00    +0.087 A 
ATOM     26  C   LIG A   1      -5.534  -2.528 122.243  0.00  0.00    +0.026 A 
ATOM     27  C   LIG A   1      -4.545  -3.161 123.001  0.00  0.00    +0.002 A 
ATOM     28  C   LIG A   1      -4.802  -3.585 124.302  0.00  0.00    +0.001 A 
ATOM     29  C   LIG A   1      -6.055  -3.371 124.886  0.00  0.00    +0.010 A 
ENDBRANCH  19  20
ENDBRANCH   1  19
TORSDOF 2
ENDMDL
