MODEL 1
REMARK VINA RESULT:      -7.4      0.000      0.000
REMARK  Name = NuBBE_1461
REMARK  7 active torsions:
REMARK  status: ('A' for Active; 'I' for Inactive)
REMARK    1  A    between atoms: C_3  and  C_4
REMARK    2  A    between atoms: C_4  and  C_5
REMARK    3  A    between atoms: C_4  and  C_6
REMARK    4  A    between atoms: C_4  and  C_7
REMARK    5  A    between atoms: C_15  and  O_16
REMARK    6  A    between atoms: C_17  and  O_18
REMARK    7  A    between atoms: O_18  and  C_19
REMARK                            x       y       z     vdW  Elec       q    Type
REMARK                         _______ _______ _______ _____ _____    ______ ____
ROOT
ATOM      1  O   LIG A   1     -12.638   6.471 131.484  0.00  0.00    -0.245 OA
ATOM      2  C   LIG A   1     -11.430   6.626 131.272  0.00  0.00    +0.341 A 
ATOM      3  C   LIG A   1     -10.917   7.353 130.063  0.00  0.00    +0.047 A 
ATOM      4  C   LIG A   1      -9.578   7.445 129.915  0.00  0.00    +0.023 A 
ATOM      5  O   LIG A   1     -10.507   6.112 132.172  0.00  0.00    -0.418 OA
ATOM      6  C   LIG A   1      -9.112   6.238 132.006  0.00  0.00    +0.184 A 
ATOM      7  C   LIG A   1      -8.635   6.902 130.883  0.00  0.00    +0.022 A 
ATOM      8  C   LIG A   1      -7.254   7.038 130.722  0.00  0.00    +0.015 A 
ATOM      9  C   LIG A   1      -6.380   6.508 131.677  0.00  0.00    +0.050 A 
ATOM     10  C   LIG A   1      -6.880   5.843 132.803  0.00  0.00    +0.162 A 
ATOM     11  C   LIG A   1      -8.261   5.706 132.991  0.00  0.00    +0.205 A 
ENDROOT
BRANCH   3  12
ATOM     12  C   LIG A   1     -11.959   7.930 129.063  0.00  0.00    +0.015 C 
ATOM     13  C   LIG A   1     -12.987   6.848 128.658  0.00  0.00    +0.020 C 
ATOM     14  C   LIG A   1     -12.735   9.117 129.688  0.00  0.00    +0.020 C 
BRANCH  12  15
ATOM     15  C   LIG A   1     -11.303   8.377 127.736  0.00  0.00    -0.023 C 
ATOM     16  C   LIG A   1     -11.157   7.672 126.602  0.00  0.00    +0.005 C 
ENDBRANCH  12  15
ENDBRANCH   3  12
BRANCH  10  17
ATOM     17  O   LIG A   1      -5.983   5.321 133.695  0.00  0.00    -0.503 OA
ATOM     18  H   LIG A   1      -5.706   4.438 133.401  0.00  0.00    +0.292 HD
ENDBRANCH  10  17
BRANCH  11  19
ATOM     19  O   LIG A   1      -8.884   5.071 134.034  0.00  0.00    -0.488 OA
ATOM     20  C   LIG A   1      -9.004   3.656 133.955  0.00  0.00    +0.277 C 
ENDBRANCH  11  19
TORSDOF 4
ENDMDL
MODEL 2
REMARK VINA RESULT:      -6.9      2.585      6.252
REMARK  Name = NuBBE_1461
REMARK  7 active torsions:
REMARK  status: ('A' for Active; 'I' for Inactive)
REMARK    1  A    between atoms: C_3  and  C_4
REMARK    2  A    between atoms: C_4  and  C_5
REMARK    3  A    between atoms: C_4  and  C_6
REMARK    4  A    between atoms: C_4  and  C_7
REMARK    5  A    between atoms: C_15  and  O_16
REMARK    6  A    between atoms: C_17  and  O_18
REMARK    7  A    between atoms: O_18  and  C_19
REMARK                            x       y       z     vdW  Elec       q    Type
REMARK                         _______ _______ _______ _____ _____    ______ ____
ROOT
ATOM      1  O   LIG A   1      -7.912   4.785 128.889  0.00  0.00    -0.245 OA
ATOM      2  C   LIG A   1      -8.891   5.297 129.444  0.00  0.00    +0.341 A 
ATOM      3  C   LIG A   1      -9.421   4.795 130.755  0.00  0.00    +0.047 A 
ATOM      4  C   LIG A   1     -10.509   5.411 131.262  0.00  0.00    +0.023 A 
ATOM      5  O   LIG A   1      -9.532   6.372 128.843  0.00  0.00    -0.418 OA
ATOM      6  C   LIG A   1     -10.657   7.013 129.402  0.00  0.00    +0.184 A 
ATOM      7  C   LIG A   1     -11.155   6.542 130.610  0.00  0.00    +0.022 A 
ATOM      8  C   LIG A   1     -12.262   7.183 131.172  0.00  0.00    +0.015 A 
ATOM      9  C   LIG A   1     -12.850   8.271 130.520  0.00  0.00    +0.050 A 
ATOM     10  C   LIG A   1     -12.334   8.730 129.303  0.00  0.00    +0.162 A 
ATOM     11  C   LIG A   1     -11.217   8.112 128.727  0.00  0.00    +0.205 A 
ENDROOT
BRANCH   3  12
ATOM     12  C   LIG A   1      -8.692   3.594 131.423  0.00  0.00    +0.015 C 
ATOM     13  C   LIG A   1      -8.931   2.293 130.621  0.00  0.00    +0.020 C 
ATOM     14  C   LIG A   1      -7.163   3.838 131.494  0.00  0.00    +0.020 C 
BRANCH  12  15
ATOM     15  C   LIG A   1      -9.239   3.299 132.838  0.00  0.00    -0.023 C 
ATOM     16  C   LIG A   1      -8.748   3.704 134.021  0.00  0.00    +0.005 C 
ENDBRANCH  12  15
ENDBRANCH   3  12
BRANCH  10  17
ATOM     17  O   LIG A   1     -12.961   9.782 128.692  0.00  0.00    -0.503 OA
ATOM     18  H   LIG A   1     -13.164   9.552 127.771  0.00  0.00    +0.292 HD
ENDBRANCH  10  17
BRANCH  11  19
ATOM     19  O   LIG A   1     -10.618   8.448 127.541  0.00  0.00    -0.488 OA
ATOM     20  C   LIG A   1     -11.086   7.793 126.368  0.00  0.00    +0.277 C 
ENDBRANCH  11  19
TORSDOF 4
ENDMDL
MODEL 3
REMARK VINA RESULT:      -6.8      1.877      2.873
REMARK  Name = NuBBE_1461
REMARK  7 active torsions:
REMARK  status: ('A' for Active; 'I' for Inactive)
REMARK    1  A    between atoms: C_3  and  C_4
REMARK    2  A    between atoms: C_4  and  C_5
REMARK    3  A    between atoms: C_4  and  C_6
REMARK    4  A    between atoms: C_4  and  C_7
REMARK    5  A    between atoms: C_15  and  O_16
REMARK    6  A    between atoms: C_17  and  O_18
REMARK    7  A    between atoms: O_18  and  C_19
REMARK                            x       y       z     vdW  Elec       q    Type
REMARK                         _______ _______ _______ _____ _____    ______ ____
ROOT
ATOM      1  O   LIG A   1     -10.077   8.087 128.451  0.00  0.00    -0.245 OA
ATOM      2  C   LIG A   1      -9.861   7.520 129.528  0.00  0.00    +0.341 A 
ATOM      3  C   LIG A   1     -10.960   7.202 130.499  0.00  0.00    +0.047 A 
ATOM      4  C   LIG A   1     -10.612   6.601 131.656  0.00  0.00    +0.023 A 
ATOM      5  O   LIG A   1      -8.563   7.162 129.863  0.00  0.00    -0.418 OA
ATOM      6  C   LIG A   1      -8.226   6.516 131.071  0.00  0.00    +0.184 A 
ATOM      7  C   LIG A   1      -9.240   6.231 131.975  0.00  0.00    +0.022 A 
ATOM      8  C   LIG A   1      -8.910   5.581 133.167  0.00  0.00    +0.015 A 
ATOM      9  C   LIG A   1      -7.581   5.235 133.434  0.00  0.00    +0.050 A 
ATOM     10  C   LIG A   1      -6.573   5.531 132.510  0.00  0.00    +0.162 A 
ATOM     11  C   LIG A   1      -6.882   6.171 131.303  0.00  0.00    +0.205 A 
ENDROOT
BRANCH   3  12
ATOM     12  C   LIG A   1     -12.413   7.602 130.112  0.00  0.00    +0.015 C 
ATOM     13  C   LIG A   1     -13.366   7.442 131.320  0.00  0.00    +0.020 C 
ATOM     14  C   LIG A   1     -12.479   9.077 129.642  0.00  0.00    +0.020 C 
BRANCH  12  15
ATOM     15  C   LIG A   1     -12.995   6.679 129.016  0.00  0.00    -0.023 C 
ATOM     16  C   LIG A   1     -13.448   7.018 127.798  0.00  0.00    +0.005 C 
ENDBRANCH  12  15
ENDBRANCH   3  12
BRANCH  10  17
ATOM     17  O   LIG A   1      -5.286   5.195 132.830  0.00  0.00    -0.503 OA
ATOM     18  H   LIG A   1      -4.711   5.971 132.734  0.00  0.00    +0.292 HD
ENDBRANCH  10  17
BRANCH  11  19
ATOM     19  O   LIG A   1      -5.998   6.530 130.319  0.00  0.00    -0.488 OA
ATOM     20  C   LIG A   1      -5.086   7.580 130.617  0.00  0.00    +0.277 C 
ENDBRANCH  11  19
TORSDOF 4
ENDMDL
MODEL 4
REMARK VINA RESULT:      -6.6      9.440     10.818
REMARK  Name = NuBBE_1461
REMARK  7 active torsions:
REMARK  status: ('A' for Active; 'I' for Inactive)
REMARK    1  A    between atoms: C_3  and  C_4
REMARK    2  A    between atoms: C_4  and  C_5
REMARK    3  A    between atoms: C_4  and  C_6
REMARK    4  A    between atoms: C_4  and  C_7
REMARK    5  A    between atoms: C_15  and  O_16
REMARK    6  A    between atoms: C_17  and  O_18
REMARK    7  A    between atoms: O_18  and  C_19
REMARK                            x       y       z     vdW  Elec       q    Type
REMARK                         _______ _______ _______ _____ _____    ______ ____
ROOT
ATOM      1  O   LIG A   1      -7.016  -1.720 122.363  0.00  0.00    -0.245 OA
ATOM      2  C   LIG A   1      -7.335  -0.885 123.216  0.00  0.00    +0.341 A 
ATOM      3  C   LIG A   1      -8.133  -1.250 124.434  0.00  0.00    +0.047 A 
ATOM      4  C   LIG A   1      -8.447  -0.256 125.292  0.00  0.00    +0.023 A 
ATOM      5  O   LIG A   1      -6.952   0.439 123.053  0.00  0.00    -0.418 OA
ATOM      6  C   LIG A   1      -7.276   1.457 123.973  0.00  0.00    +0.184 A 
ATOM      7  C   LIG A   1      -8.022   1.123 125.096  0.00  0.00    +0.022 A 
ATOM      8  C   LIG A   1      -8.335   2.127 126.015  0.00  0.00    +0.015 A 
ATOM      9  C   LIG A   1      -7.903   3.440 125.795  0.00  0.00    +0.050 A 
ATOM     10  C   LIG A   1      -7.151   3.757 124.659  0.00  0.00    +0.162 A 
ATOM     11  C   LIG A   1      -6.815   2.763 123.730  0.00  0.00    +0.205 A 
ENDROOT
BRANCH   3  12
ATOM     12  C   LIG A   1      -8.553  -2.737 124.611  0.00  0.00    +0.015 C 
ATOM     13  C   LIG A   1      -9.515  -3.173 123.481  0.00  0.00    +0.020 C 
ATOM     14  C   LIG A   1      -7.318  -3.674 124.576  0.00  0.00    +0.020 C 
BRANCH  12  15
ATOM     15  C   LIG A   1      -9.343  -2.964 125.920  0.00  0.00    -0.023 C 
ATOM     16  C   LIG A   1      -8.932  -3.576 127.044  0.00  0.00    +0.005 C 
ENDBRANCH  12  15
ENDBRANCH   3  12
BRANCH  10  17
ATOM     17  O   LIG A   1      -6.775   5.060 124.477  0.00  0.00    -0.503 OA
ATOM     18  H   LIG A   1      -5.983   5.097 123.917  0.00  0.00    +0.292 HD
ENDBRANCH  10  17
BRANCH  11  19
ATOM     19  O   LIG A   1      -6.100   2.935 122.574  0.00  0.00    -0.488 OA
ATOM     20  C   LIG A   1      -6.771   3.547 121.479  0.00  0.00    +0.277 C 
ENDBRANCH  11  19
TORSDOF 4
ENDMDL
MODEL 5
REMARK VINA RESULT:      -6.5      2.093      6.295
REMARK  Name = NuBBE_1461
REMARK  7 active torsions:
REMARK  status: ('A' for Active; 'I' for Inactive)
REMARK    1  A    between atoms: C_3  and  C_4
REMARK    2  A    between atoms: C_4  and  C_5
REMARK    3  A    between atoms: C_4  and  C_6
REMARK    4  A    between atoms: C_4  and  C_7
REMARK    5  A    between atoms: C_15  and  O_16
REMARK    6  A    between atoms: C_17  and  O_18
REMARK    7  A    between atoms: O_18  and  C_19
REMARK                            x       y       z     vdW  Elec       q    Type
REMARK                         _______ _______ _______ _____ _____    ______ ____
ROOT
ATOM      1  O   LIG A   1      -7.072   5.312 129.742  0.00  0.00    -0.245 OA
ATOM      2  C   LIG A   1      -8.152   5.656 130.235  0.00  0.00    +0.341 A 
ATOM      3  C   LIG A   1      -8.377   5.702 131.718  0.00  0.00    +0.047 A 
ATOM      4  C   LIG A   1      -9.602   6.069 132.150  0.00  0.00    +0.023 A 
ATOM      5  O   LIG A   1      -9.202   6.011 129.399  0.00  0.00    -0.418 OA
ATOM      6  C   LIG A   1     -10.468   6.410 129.874  0.00  0.00    +0.184 A 
ATOM      7  C   LIG A   1     -10.681   6.444 131.246  0.00  0.00    +0.022 A 
ATOM      8  C   LIG A   1     -11.931   6.850 131.719  0.00  0.00    +0.015 A 
ATOM      9  C   LIG A   1     -12.940   7.209 130.820  0.00  0.00    +0.050 A 
ATOM     10  C   LIG A   1     -12.706   7.169 129.441  0.00  0.00    +0.162 A 
ATOM     11  C   LIG A   1     -11.457   6.777 128.944  0.00  0.00    +0.205 A 
ENDROOT
BRANCH   3  12
ATOM     12  C   LIG A   1      -7.193   5.308 132.646  0.00  0.00    +0.015 C 
ATOM     13  C   LIG A   1      -7.551   5.563 134.129  0.00  0.00    +0.020 C 
ATOM     14  C   LIG A   1      -6.836   3.808 132.491  0.00  0.00    +0.020 C 
BRANCH  12  15
ATOM     15  C   LIG A   1      -5.938   6.172 132.383  0.00  0.00    -0.023 C 
ATOM     16  C   LIG A   1      -4.782   6.190 133.067  0.00  0.00    +0.005 C 
ENDBRANCH  12  15
ENDBRANCH   3  12
BRANCH  10  17
ATOM     17  O   LIG A   1     -13.735   7.505 128.603  0.00  0.00    -0.503 OA
ATOM     18  H   LIG A   1     -14.521   6.982 128.823  0.00  0.00    +0.292 HD
ENDBRANCH  10  17
BRANCH  11  19
ATOM     19  O   LIG A   1     -11.097   6.681 127.625  0.00  0.00    -0.488 OA
ATOM     20  C   LIG A   1     -10.778   7.891 126.948  0.00  0.00    +0.277 C 
ENDBRANCH  11  19
TORSDOF 4
ENDMDL
MODEL 6
REMARK VINA RESULT:      -6.3      2.132      2.934
REMARK  Name = NuBBE_1461
REMARK  7 active torsions:
REMARK  status: ('A' for Active; 'I' for Inactive)
REMARK    1  A    between atoms: C_3  and  C_4
REMARK    2  A    between atoms: C_4  and  C_5
REMARK    3  A    between atoms: C_4  and  C_6
REMARK    4  A    between atoms: C_4  and  C_7
REMARK    5  A    between atoms: C_15  and  O_16
REMARK    6  A    between atoms: C_17  and  O_18
REMARK    7  A    between atoms: O_18  and  C_19
REMARK                            x       y       z     vdW  Elec       q    Type
REMARK                         _______ _______ _______ _____ _____    ______ ____
ROOT
ATOM      1  O   LIG A   1      -9.326   8.169 129.523  0.00  0.00    -0.245 OA
ATOM      2  C   LIG A   1      -9.708   7.033 129.822  0.00  0.00    +0.341 A 
ATOM      3  C   LIG A   1     -11.103   6.558 129.540  0.00  0.00    +0.047 A 
ATOM      4  C   LIG A   1     -11.424   5.306 129.930  0.00  0.00    +0.023 A 
ATOM      5  O   LIG A   1      -8.827   6.158 130.444  0.00  0.00    -0.418 OA
ATOM      6  C   LIG A   1      -9.180   4.847 130.824  0.00  0.00    +0.184 A 
ATOM      7  C   LIG A   1     -10.474   4.409 130.573  0.00  0.00    +0.022 A 
ATOM      8  C   LIG A   1     -10.822   3.106 130.939  0.00  0.00    +0.015 A 
ATOM      9  C   LIG A   1      -9.879   2.272 131.549  0.00  0.00    +0.050 A 
ATOM     10  C   LIG A   1      -8.580   2.731 131.793  0.00  0.00    +0.162 A 
ATOM     11  C   LIG A   1      -8.205   4.029 131.424  0.00  0.00    +0.205 A 
ENDROOT
BRANCH   3  12
ATOM     12  C   LIG A   1     -12.080   7.543 128.838  0.00  0.00    +0.015 C 
ATOM     13  C   LIG A   1     -13.350   6.805 128.353  0.00  0.00    +0.020 C 
ATOM     14  C   LIG A   1     -12.523   8.672 129.803  0.00  0.00    +0.020 C 
BRANCH  12  15
ATOM     15  C   LIG A   1     -11.463   8.160 127.562  0.00  0.00    -0.023 C 
ATOM     16  C   LIG A   1     -11.100   7.537 126.429  0.00  0.00    +0.005 C 
ENDBRANCH  12  15
ENDBRANCH   3  12
BRANCH  10  17
ATOM     17  O   LIG A   1      -7.703   1.885 132.415  0.00  0.00    -0.503 OA
ATOM     18  H   LIG A   1      -7.826   0.982 132.081  0.00  0.00    +0.292 HD
ENDBRANCH  10  17
BRANCH  11  19
ATOM     19  O   LIG A   1      -6.978   4.610 131.614  0.00  0.00    -0.488 OA
ATOM     20  C   LIG A   1      -6.695   5.120 132.911  0.00  0.00    +0.277 C 
ENDBRANCH  11  19
TORSDOF 4
ENDMDL
MODEL 7
REMARK VINA RESULT:      -6.2      2.836      6.789
REMARK  Name = NuBBE_1461
REMARK  7 active torsions:
REMARK  status: ('A' for Active; 'I' for Inactive)
REMARK    1  A    between atoms: C_3  and  C_4
REMARK    2  A    between atoms: C_4  and  C_5
REMARK    3  A    between atoms: C_4  and  C_6
REMARK    4  A    between atoms: C_4  and  C_7
REMARK    5  A    between atoms: C_15  and  O_16
REMARK    6  A    between atoms: C_17  and  O_18
REMARK    7  A    between atoms: O_18  and  C_19
REMARK                            x       y       z     vdW  Elec       q    Type
REMARK                         _______ _______ _______ _____ _____    ______ ____
ROOT
ATOM      1  O   LIG A   1      -4.825   7.999 129.774  0.00  0.00    -0.245 OA
ATOM      2  C   LIG A   1      -5.353   7.330 130.669  0.00  0.00    +0.341 A 
ATOM      3  C   LIG A   1      -4.549   6.620 131.718  0.00  0.00    +0.047 A 
ATOM      4  C   LIG A   1      -5.225   5.897 132.636  0.00  0.00    +0.023 A 
ATOM      5  O   LIG A   1      -6.736   7.220 130.713  0.00  0.00    -0.418 OA
ATOM      6  C   LIG A   1      -7.422   6.474 131.694  0.00  0.00    +0.184 A 
ATOM      7  C   LIG A   1      -6.679   5.809 132.660  0.00  0.00    +0.022 A 
ATOM      8  C   LIG A   1      -7.356   5.078 133.640  0.00  0.00    +0.015 A 
ATOM      9  C   LIG A   1      -8.754   5.023 133.634  0.00  0.00    +0.050 A 
ATOM     10  C   LIG A   1      -9.485   5.700 132.652  0.00  0.00    +0.162 A 
ATOM     11  C   LIG A   1      -8.828   6.449 131.668  0.00  0.00    +0.205 A 
ENDROOT
BRANCH   3  12
ATOM     12  C   LIG A   1      -3.000   6.754 131.663  0.00  0.00    +0.015 C 
ATOM     13  C   LIG A   1      -2.482   6.530 130.223  0.00  0.00    +0.020 C 
ATOM     14  C   LIG A   1      -2.545   8.162 132.122  0.00  0.00    +0.020 C 
BRANCH  12  15
ATOM     15  C   LIG A   1      -2.295   5.674 132.516  0.00  0.00    -0.023 C 
ATOM     16  C   LIG A   1      -0.982   5.404 132.595  0.00  0.00    +0.005 C 
ENDBRANCH  12  15
ENDBRANCH   3  12
BRANCH  10  17
ATOM     17  O   LIG A   1     -10.849   5.594 132.675  0.00  0.00    -0.503 OA
ATOM     18  H   LIG A   1     -11.122   5.043 133.427  0.00  0.00    +0.292 HD
ENDBRANCH  10  17
BRANCH  11  19
ATOM     19  O   LIG A   1      -9.415   7.148 130.645  0.00  0.00    -0.488 OA
ATOM     20  C   LIG A   1      -9.860   6.401 129.519  0.00  0.00    +0.277 C 
ENDBRANCH  11  19
TORSDOF 4
ENDMDL
MODEL 8
REMARK VINA RESULT:      -6.2      9.070      9.992
REMARK  Name = NuBBE_1461
REMARK  7 active torsions:
REMARK  status: ('A' for Active; 'I' for Inactive)
REMARK    1  A    between atoms: C_3  and  C_4
REMARK    2  A    between atoms: C_4  and  C_5
REMARK    3  A    between atoms: C_4  and  C_6
REMARK    4  A    between atoms: C_4  and  C_7
REMARK    5  A    between atoms: C_15  and  O_16
REMARK    6  A    between atoms: C_17  and  O_18
REMARK    7  A    between atoms: O_18  and  C_19
REMARK                            x       y       z     vdW  Elec       q    Type
REMARK                         _______ _______ _______ _____ _____    ______ ____
ROOT
ATOM      1  O   LIG A   1      -7.653   0.575 124.709  0.00  0.00    -0.245 OA
ATOM      2  C   LIG A   1      -7.842  -0.380 125.471  0.00  0.00    +0.341 A 
ATOM      3  C   LIG A   1      -8.342  -1.707 124.982  0.00  0.00    +0.047 A 
ATOM      4  C   LIG A   1      -8.536  -2.676 125.902  0.00  0.00    +0.023 A 
ATOM      5  O   LIG A   1      -7.591  -0.230 126.828  0.00  0.00    -0.418 OA
ATOM      6  C   LIG A   1      -7.784  -1.264 127.769  0.00  0.00    +0.184 A 
ATOM      7  C   LIG A   1      -8.256  -2.490 127.319  0.00  0.00    +0.022 A 
ATOM      8  C   LIG A   1      -8.436  -3.518 128.247  0.00  0.00    +0.015 A 
ATOM      9  C   LIG A   1      -8.149  -3.304 129.599  0.00  0.00    +0.050 A 
ATOM     10  C   LIG A   1      -7.674  -2.061 130.033  0.00  0.00    +0.162 A 
ATOM     11  C   LIG A   1      -7.473  -1.019 129.118  0.00  0.00    +0.205 A 
ENDROOT
BRANCH   3  12
ATOM     12  C   LIG A   1      -8.614  -1.866 123.459  0.00  0.00    +0.015 C 
ATOM     13  C   LIG A   1      -9.364  -3.189 123.171  0.00  0.00    +0.020 C 
ATOM     14  C   LIG A   1      -9.480  -0.699 122.922  0.00  0.00    +0.020 C 
BRANCH  12  15
ATOM     15  C   LIG A   1      -7.304  -1.962 122.643  0.00  0.00    -0.023 C 
ATOM     16  C   LIG A   1      -6.076  -2.290 123.077  0.00  0.00    +0.005 C 
ENDBRANCH  12  15
ENDBRANCH   3  12
BRANCH  10  17
ATOM     17  O   LIG A   1      -7.432  -1.894 131.369  0.00  0.00    -0.503 OA
ATOM     18  H   LIG A   1      -8.184  -2.231 131.883  0.00  0.00    +0.292 HD
ENDBRANCH  10  17
BRANCH  11  19
ATOM     19  O   LIG A   1      -7.028   0.245 129.406  0.00  0.00    -0.488 OA
ATOM     20  C   LIG A   1      -7.982   1.171 129.913  0.00  0.00    +0.277 C 
ENDBRANCH  11  19
TORSDOF 4
ENDMDL
MODEL 9
REMARK VINA RESULT:      -6.1      9.436     10.603
REMARK  Name = NuBBE_1461
REMARK  7 active torsions:
REMARK  status: ('A' for Active; 'I' for Inactive)
REMARK    1  A    between atoms: C_3  and  C_4
REMARK    2  A    between atoms: C_4  and  C_5
REMARK    3  A    between atoms: C_4  and  C_6
REMARK    4  A    between atoms: C_4  and  C_7
REMARK    5  A    between atoms: C_15  and  O_16
REMARK    6  A    between atoms: C_17  and  O_18
REMARK    7  A    between atoms: O_18  and  C_19
REMARK                            x       y       z     vdW  Elec       q    Type
REMARK                         _______ _______ _______ _____ _____    ______ ____
ROOT
ATOM      1  O   LIG A   1      -4.917  -0.519 125.514  0.00  0.00    -0.245 OA
ATOM      2  C   LIG A   1      -5.652  -1.163 126.270  0.00  0.00    +0.341 A 
ATOM      3  C   LIG A   1      -6.713  -2.091 125.754  0.00  0.00    +0.047 A 
ATOM      4  C   LIG A   1      -7.478  -2.729 126.665  0.00  0.00    +0.023 A 
ATOM      5  O   LIG A   1      -5.505  -1.030 127.643  0.00  0.00    -0.418 OA
ATOM      6  C   LIG A   1      -6.304  -1.723 128.577  0.00  0.00    +0.184 A 
ATOM      7  C   LIG A   1      -7.293  -2.574 128.101  0.00  0.00    +0.022 A 
ATOM      8  C   LIG A   1      -8.077  -3.270 129.024  0.00  0.00    +0.015 A 
ATOM      9  C   LIG A   1      -7.865  -3.100 130.396  0.00  0.00    +0.050 A 
ATOM     10  C   LIG A   1      -6.863  -2.238 130.856  0.00  0.00    +0.162 A 
ATOM     11  C   LIG A   1      -6.056  -1.540 129.949  0.00  0.00    +0.205 A 
ENDROOT
BRANCH   3  12
ATOM     12  C   LIG A   1      -6.867  -2.237 124.213  0.00  0.00    +0.015 C 
ATOM     13  C   LIG A   1      -7.978  -3.255 123.866  0.00  0.00    +0.020 C 
ATOM     14  C   LIG A   1      -7.237  -0.882 123.558  0.00  0.00    +0.020 C 
BRANCH  12  15
ATOM     15  C   LIG A   1      -5.586  -2.801 123.554  0.00  0.00    -0.023 C 
ATOM     16  C   LIG A   1      -4.928  -3.933 123.853  0.00  0.00    +0.005 C 
ENDBRANCH  12  15
ENDBRANCH   3  12
BRANCH  10  17
ATOM     17  O   LIG A   1      -6.712  -2.088 132.208  0.00  0.00    -0.503 OA
ATOM     18  H   LIG A   1      -7.060  -1.224 132.482  0.00  0.00    +0.292 HD
ENDBRANCH  10  17
BRANCH  11  19
ATOM     19  O   LIG A   1      -5.053  -0.659 130.259  0.00  0.00    -0.488 OA
ATOM     20  C   LIG A   1      -3.791  -1.210 130.617  0.00  0.00    +0.277 C 
ENDBRANCH  11  19
TORSDOF 4
ENDMDL
