MODEL 1
REMARK VINA RESULT:      -6.8      0.000      0.000
REMARK  Name = NuBBE_1339
REMARK  4 active torsions:
REMARK  status: ('A' for Active; 'I' for Inactive)
REMARK    1  A    between atoms: C_6  and  C_7
REMARK    2  A    between atoms: C_10  and  C_11
REMARK    3  A    between atoms: C_11  and  C_12
REMARK    4  A    between atoms: C_11  and  C_13
REMARK                            x       y       z     vdW  Elec       q    Type
REMARK                         _______ _______ _______ _____ _____    ______ ____
ROOT
ATOM      1  C   LIG A   1      -8.029   1.039 123.570  0.00  0.00    +0.013 C 
ATOM      2  C   LIG A   1      -7.928  -0.004 124.412  0.00  0.00    -0.047 C 
ATOM      3  C   LIG A   1      -6.994  -1.137 124.200  0.00  0.00    -0.019 A 
ATOM      4  C   LIG A   1      -6.531  -1.468 122.915  0.00  0.00    +0.009 A 
ATOM      5  C   LIG A   1      -5.625  -2.511 122.708  0.00  0.00    +0.004 A 
ATOM      6  C   LIG A   1      -5.150  -3.252 123.787  0.00  0.00    -0.050 A 
ATOM      7  C   LIG A   1      -4.177  -4.375 123.587  0.00  0.00    +0.044 C 
ATOM      8  C   LIG A   1      -5.625  -2.953 125.069  0.00  0.00    +0.007 A 
ATOM      9  C   LIG A   1      -6.561  -1.920 125.292  0.00  0.00    -0.036 A 
ATOM     10  C   LIG A   1      -7.050  -1.682 126.720  0.00  0.00    +0.023 C 
ATOM     11  C   LIG A   1      -7.803  -0.347 126.872  0.00  0.00    +0.013 C 
ATOM     12  C   LIG A   1      -8.714  -0.029 125.694  0.00  0.00    +0.036 C 
ENDROOT
BRANCH  10  13
ATOM     13  C   LIG A   1      -7.794  -2.923 127.314  0.00  0.00    -0.010 C 
ATOM     14  C   LIG A   1      -8.155  -2.718 128.792  0.00  0.00    +0.008 C 
ATOM     15  C   LIG A   1      -9.039  -3.356 126.539  0.00  0.00    +0.008 C 
ENDBRANCH  10  13
TORSDOF 1
ENDMDL
MODEL 2
REMARK VINA RESULT:      -6.4      1.849      4.282
REMARK  Name = NuBBE_1339
REMARK  4 active torsions:
REMARK  status: ('A' for Active; 'I' for Inactive)
REMARK    1  A    between atoms: C_6  and  C_7
REMARK    2  A    between atoms: C_10  and  C_11
REMARK    3  A    between atoms: C_11  and  C_12
REMARK    4  A    between atoms: C_11  and  C_13
REMARK                            x       y       z     vdW  Elec       q    Type
REMARK                         _______ _______ _______ _____ _____    ______ ____
ROOT
ATOM      1  C   LIG A   1      -9.579  -3.394 123.288  0.00  0.00    +0.013 C 
ATOM      2  C   LIG A   1      -8.846  -2.488 123.956  0.00  0.00    -0.047 C 
ATOM      3  C   LIG A   1      -8.481  -2.627 125.388  0.00  0.00    -0.019 A 
ATOM      4  C   LIG A   1      -9.257  -3.407 126.263  0.00  0.00    +0.009 A 
ATOM      5  C   LIG A   1      -8.903  -3.573 127.605  0.00  0.00    +0.004 A 
ATOM      6  C   LIG A   1      -7.756  -2.965 128.109  0.00  0.00    -0.050 A 
ATOM      7  C   LIG A   1      -7.359  -3.130 129.545  0.00  0.00    +0.044 C 
ATOM      8  C   LIG A   1      -6.991  -2.162 127.256  0.00  0.00    +0.007 A 
ATOM      9  C   LIG A   1      -7.349  -1.962 125.905  0.00  0.00    -0.036 A 
ATOM     10  C   LIG A   1      -6.474  -1.043 125.052  0.00  0.00    +0.023 C 
ATOM     11  C   LIG A   1      -6.780  -1.165 123.547  0.00  0.00    +0.013 C 
ATOM     12  C   LIG A   1      -8.265  -1.299 123.242  0.00  0.00    +0.036 C 
ENDROOT
BRANCH  10  13
ATOM     13  C   LIG A   1      -6.437   0.423 125.595  0.00  0.00    -0.010 C 
ATOM     14  C   LIG A   1      -5.093   0.750 126.261  0.00  0.00    +0.008 C 
ATOM     15  C   LIG A   1      -6.769   1.499 124.559  0.00  0.00    +0.008 C 
ENDBRANCH  10  13
TORSDOF 1
ENDMDL
MODEL 3
REMARK VINA RESULT:      -6.0      2.130      4.062
REMARK  Name = NuBBE_1339
REMARK  4 active torsions:
REMARK  status: ('A' for Active; 'I' for Inactive)
REMARK    1  A    between atoms: C_6  and  C_7
REMARK    2  A    between atoms: C_10  and  C_11
REMARK    3  A    between atoms: C_11  and  C_12
REMARK    4  A    between atoms: C_11  and  C_13
REMARK                            x       y       z     vdW  Elec       q    Type
REMARK                         _______ _______ _______ _____ _____    ______ ____
ROOT
ATOM      1  C   LIG A   1      -9.762  -3.482 123.223  0.00  0.00    +0.013 C 
ATOM      2  C   LIG A   1      -9.023  -2.889 124.175  0.00  0.00    -0.047 C 
ATOM      3  C   LIG A   1      -8.895  -1.418 124.313  0.00  0.00    -0.019 A 
ATOM      4  C   LIG A   1      -9.099  -0.564 123.215  0.00  0.00    +0.009 A 
ATOM      5  C   LIG A   1      -9.016   0.825 123.342  0.00  0.00    +0.004 A 
ATOM      6  C   LIG A   1      -8.731   1.401 124.577  0.00  0.00    -0.050 A 
ATOM      7  C   LIG A   1      -8.638   2.890 124.735  0.00  0.00    +0.044 C 
ATOM      8  C   LIG A   1      -8.497   0.563 125.672  0.00  0.00    +0.007 A 
ATOM      9  C   LIG A   1      -8.550  -0.844 125.555  0.00  0.00    -0.036 A 
ATOM     10  C   LIG A   1      -8.250  -1.685 126.796  0.00  0.00    +0.023 C 
ATOM     11  C   LIG A   1      -8.652  -3.162 126.620  0.00  0.00    +0.013 C 
ATOM     12  C   LIG A   1      -8.340  -3.712 125.234  0.00  0.00    +0.036 C 
ENDROOT
BRANCH  10  13
ATOM     13  C   LIG A   1      -6.798  -1.462 127.335  0.00  0.00    -0.010 C 
ATOM     14  C   LIG A   1      -6.460  -2.432 128.475  0.00  0.00    +0.008 C 
ATOM     15  C   LIG A   1      -5.703  -1.523 126.270  0.00  0.00    +0.008 C 
ENDBRANCH  10  13
TORSDOF 1
ENDMDL
MODEL 4
REMARK VINA RESULT:      -5.9      1.777      3.880
REMARK  Name = NuBBE_1339
REMARK  4 active torsions:
REMARK  status: ('A' for Active; 'I' for Inactive)
REMARK    1  A    between atoms: C_6  and  C_7
REMARK    2  A    between atoms: C_10  and  C_11
REMARK    3  A    between atoms: C_11  and  C_12
REMARK    4  A    between atoms: C_11  and  C_13
REMARK                            x       y       z     vdW  Elec       q    Type
REMARK                         _______ _______ _______ _____ _____    ______ ____
ROOT
ATOM      1  C   LIG A   1      -5.952   1.303 125.640  0.00  0.00    +0.013 C 
ATOM      2  C   LIG A   1      -6.573   0.119 125.508  0.00  0.00    -0.047 C 
ATOM      3  C   LIG A   1      -6.648  -0.890 126.593  0.00  0.00    -0.019 A 
ATOM      4  C   LIG A   1      -5.692  -0.924 127.622  0.00  0.00    +0.009 A 
ATOM      5  C   LIG A   1      -5.773  -1.847 128.668  0.00  0.00    +0.004 A 
ATOM      6  C   LIG A   1      -6.821  -2.762 128.717  0.00  0.00    -0.050 A 
ATOM      7  C   LIG A   1      -6.927  -3.761 129.830  0.00  0.00    +0.044 C 
ATOM      8  C   LIG A   1      -7.764  -2.760 127.683  0.00  0.00    +0.007 A 
ATOM      9  C   LIG A   1      -7.682  -1.851 126.605  0.00  0.00    -0.036 A 
ATOM     10  C   LIG A   1      -8.737  -1.939 125.502  0.00  0.00    +0.023 C 
ATOM     11  C   LIG A   1      -8.724  -0.710 124.573  0.00  0.00    +0.013 C 
ATOM     12  C   LIG A   1      -7.322  -0.214 124.246  0.00  0.00    +0.036 C 
ENDROOT
BRANCH  10  13
ATOM     13  C   LIG A   1      -8.719  -3.318 124.763  0.00  0.00    -0.010 C 
ATOM     14  C   LIG A   1      -9.603  -3.302 123.508  0.00  0.00    +0.008 C 
ATOM     15  C   LIG A   1      -7.326  -3.833 124.402  0.00  0.00    +0.008 C 
ENDBRANCH  10  13
TORSDOF 1
ENDMDL
MODEL 5
REMARK VINA RESULT:      -5.8      1.545      4.594
REMARK  Name = NuBBE_1339
REMARK  4 active torsions:
REMARK  status: ('A' for Active; 'I' for Inactive)
REMARK    1  A    between atoms: C_6  and  C_7
REMARK    2  A    between atoms: C_10  and  C_11
REMARK    3  A    between atoms: C_11  and  C_12
REMARK    4  A    between atoms: C_11  and  C_13
REMARK                            x       y       z     vdW  Elec       q    Type
REMARK                         _______ _______ _______ _____ _____    ______ ____
ROOT
ATOM      1  C   LIG A   1      -5.267   0.719 128.298  0.00  0.00    +0.013 C 
ATOM      2  C   LIG A   1      -5.654  -0.117 127.320  0.00  0.00    -0.047 C 
ATOM      3  C   LIG A   1      -6.616  -1.227 127.526  0.00  0.00    -0.019 A 
ATOM      4  C   LIG A   1      -6.804  -1.800 128.796  0.00  0.00    +0.009 A 
ATOM      5  C   LIG A   1      -7.733  -2.822 129.009  0.00  0.00    +0.004 A 
ATOM      6  C   LIG A   1      -8.508  -3.296 127.954  0.00  0.00    -0.050 A 
ATOM      7  C   LIG A   1      -9.511  -4.392 128.161  0.00  0.00    +0.044 C 
ATOM      8  C   LIG A   1      -8.312  -2.756 126.679  0.00  0.00    +0.007 A 
ATOM      9  C   LIG A   1      -7.358  -1.742 126.441  0.00  0.00    -0.036 A 
ATOM     10  C   LIG A   1      -7.186  -1.230 125.011  0.00  0.00    +0.023 C 
ATOM     11  C   LIG A   1      -6.366   0.072 124.944  0.00  0.00    +0.013 C 
ATOM     12  C   LIG A   1      -5.186   0.093 125.906  0.00  0.00    +0.036 C 
ENDROOT
BRANCH  10  13
ATOM     13  C   LIG A   1      -6.717  -2.350 124.025  0.00  0.00    -0.010 C 
ATOM     14  C   LIG A   1      -6.496  -1.805 122.608  0.00  0.00    +0.008 C 
ATOM     15  C   LIG A   1      -5.475  -3.121 124.476  0.00  0.00    +0.008 C 
ENDBRANCH  10  13
TORSDOF 1
ENDMDL
MODEL 6
REMARK VINA RESULT:      -5.8      2.400      4.297
REMARK  Name = NuBBE_1339
REMARK  4 active torsions:
REMARK  status: ('A' for Active; 'I' for Inactive)
REMARK    1  A    between atoms: C_6  and  C_7
REMARK    2  A    between atoms: C_10  and  C_11
REMARK    3  A    between atoms: C_11  and  C_12
REMARK    4  A    between atoms: C_11  and  C_13
REMARK                            x       y       z     vdW  Elec       q    Type
REMARK                         _______ _______ _______ _____ _____    ______ ____
ROOT
ATOM      1  C   LIG A   1      -8.259  -3.285 129.355  0.00  0.00    +0.013 C 
ATOM      2  C   LIG A   1      -7.815  -2.377 128.469  0.00  0.00    -0.047 C 
ATOM      3  C   LIG A   1      -8.171  -2.399 127.029  0.00  0.00    -0.019 A 
ATOM      4  C   LIG A   1      -8.557  -3.592 126.393  0.00  0.00    +0.009 A 
ATOM      5  C   LIG A   1      -8.929  -3.617 125.046  0.00  0.00    +0.004 A 
ATOM      6  C   LIG A   1      -8.929  -2.444 124.296  0.00  0.00    -0.050 A 
ATOM      7  C   LIG A   1      -9.324  -2.449 122.850  0.00  0.00    +0.044 C 
ATOM      8  C   LIG A   1      -8.519  -1.255 124.908  0.00  0.00    +0.007 A 
ATOM      9  C   LIG A   1      -8.114  -1.216 126.260  0.00  0.00    -0.036 A 
ATOM     10  C   LIG A   1      -7.651   0.120 126.840  0.00  0.00    +0.023 C 
ATOM     11  C   LIG A   1      -7.550   0.094 128.377  0.00  0.00    +0.013 C 
ATOM     12  C   LIG A   1      -6.983  -1.209 128.923  0.00  0.00    +0.036 C 
ENDROOT
BRANCH  10  13
ATOM     13  C   LIG A   1      -6.387   0.684 126.111  0.00  0.00    -0.010 C 
ATOM     14  C   LIG A   1      -5.840   1.937 126.808  0.00  0.00    +0.008 C 
ATOM     15  C   LIG A   1      -5.257  -0.327 125.914  0.00  0.00    +0.008 C 
ENDBRANCH  10  13
TORSDOF 1
ENDMDL
MODEL 7
REMARK VINA RESULT:      -5.7      3.124      5.689
REMARK  Name = NuBBE_1339
REMARK  4 active torsions:
REMARK  status: ('A' for Active; 'I' for Inactive)
REMARK    1  A    between atoms: C_6  and  C_7
REMARK    2  A    between atoms: C_10  and  C_11
REMARK    3  A    between atoms: C_11  and  C_12
REMARK    4  A    between atoms: C_11  and  C_13
REMARK                            x       y       z     vdW  Elec       q    Type
REMARK                         _______ _______ _______ _____ _____    ______ ____
ROOT
ATOM      1  C   LIG A   1      -2.863  -3.740 129.015  0.00  0.00    +0.013 C 
ATOM      2  C   LIG A   1      -4.039  -3.414 129.579  0.00  0.00    -0.047 C 
ATOM      3  C   LIG A   1      -5.226  -2.978 128.802  0.00  0.00    -0.019 A 
ATOM      4  C   LIG A   1      -5.089  -2.398 127.529  0.00  0.00    +0.009 A 
ATOM      5  C   LIG A   1      -6.201  -2.017 126.774  0.00  0.00    +0.004 A 
ATOM      6  C   LIG A   1      -7.487  -2.211 127.271  0.00  0.00    -0.050 A 
ATOM      7  C   LIG A   1      -8.694  -1.809 126.478  0.00  0.00    +0.044 C 
ATOM      8  C   LIG A   1      -7.637  -2.760 128.549  0.00  0.00    +0.007 A 
ATOM      9  C   LIG A   1      -6.523  -3.126 129.336  0.00  0.00    -0.036 A 
ATOM     10  C   LIG A   1      -6.779  -3.690 130.735  0.00  0.00    +0.023 C 
ATOM     11  C   LIG A   1      -5.523  -4.339 131.348  0.00  0.00    +0.013 C 
ATOM     12  C   LIG A   1      -4.243  -3.566 131.062  0.00  0.00    +0.036 C 
ENDROOT
BRANCH  10  13
ATOM     13  C   LIG A   1      -7.511  -2.671 131.668  0.00  0.00    -0.010 C 
ATOM     14  C   LIG A   1      -7.546  -3.156 133.123  0.00  0.00    +0.008 C 
ATOM     15  C   LIG A   1      -6.959  -1.245 131.617  0.00  0.00    +0.008 C 
ENDBRANCH  10  13
TORSDOF 1
ENDMDL
MODEL 8
REMARK VINA RESULT:      -5.7      1.357      4.566
REMARK  Name = NuBBE_1339
REMARK  4 active torsions:
REMARK  status: ('A' for Active; 'I' for Inactive)
REMARK    1  A    between atoms: C_6  and  C_7
REMARK    2  A    between atoms: C_10  and  C_11
REMARK    3  A    between atoms: C_11  and  C_12
REMARK    4  A    between atoms: C_11  and  C_13
REMARK                            x       y       z     vdW  Elec       q    Type
REMARK                         _______ _______ _______ _____ _____    ______ ____
ROOT
ATOM      1  C   LIG A   1      -7.788  -0.576 128.574  0.00  0.00    +0.013 C 
ATOM      2  C   LIG A   1      -7.480  -0.916 127.310  0.00  0.00    -0.047 C 
ATOM      3  C   LIG A   1      -7.882  -0.117 126.127  0.00  0.00    -0.019 A 
ATOM      4  C   LIG A   1      -8.998   0.738 126.172  0.00  0.00    +0.009 A 
ATOM      5  C   LIG A   1      -9.364   1.521 125.075  0.00  0.00    +0.004 A 
ATOM      6  C   LIG A   1      -8.619   1.477 123.900  0.00  0.00    -0.050 A 
ATOM      7  C   LIG A   1      -8.995   2.310 122.711  0.00  0.00    +0.044 C 
ATOM      8  C   LIG A   1      -7.524   0.609 123.831  0.00  0.00    +0.007 A 
ATOM      9  C   LIG A   1      -7.155  -0.210 124.921  0.00  0.00    -0.036 A 
ATOM     10  C   LIG A   1      -5.964  -1.152 124.749  0.00  0.00    +0.023 C 
ATOM     11  C   LIG A   1      -5.476  -1.738 126.087  0.00  0.00    +0.013 C 
ATOM     12  C   LIG A   1      -6.610  -2.112 127.032  0.00  0.00    +0.036 C 
ENDROOT
BRANCH  10  13
ATOM     13  C   LIG A   1      -6.191  -2.206 123.617  0.00  0.00    -0.010 C 
ATOM     14  C   LIG A   1      -5.068  -3.251 123.578  0.00  0.00    +0.008 C 
ATOM     15  C   LIG A   1      -7.547  -2.913 123.663  0.00  0.00    +0.008 C 
ENDBRANCH  10  13
TORSDOF 1
ENDMDL
MODEL 9
REMARK VINA RESULT:      -5.6      7.992      9.761
REMARK  Name = NuBBE_1339
REMARK  4 active torsions:
REMARK  status: ('A' for Active; 'I' for Inactive)
REMARK    1  A    between atoms: C_6  and  C_7
REMARK    2  A    between atoms: C_10  and  C_11
REMARK    3  A    between atoms: C_11  and  C_12
REMARK    4  A    between atoms: C_11  and  C_13
REMARK                            x       y       z     vdW  Elec       q    Type
REMARK                         _______ _______ _______ _____ _____    ______ ____
ROOT
ATOM      1  C   LIG A   1      -2.498   3.945 126.944  0.00  0.00    +0.013 C 
ATOM      2  C   LIG A   1      -2.825   4.606 128.067  0.00  0.00    -0.047 C 
ATOM      3  C   LIG A   1      -3.290   3.935 129.306  0.00  0.00    -0.019 A 
ATOM      4  C   LIG A   1      -3.894   2.666 129.262  0.00  0.00    +0.009 A 
ATOM      5  C   LIG A   1      -4.303   2.009 130.426  0.00  0.00    +0.004 A 
ATOM      6  C   LIG A   1      -4.113   2.603 131.671  0.00  0.00    -0.050 A 
ATOM      7  C   LIG A   1      -4.544   1.915 132.931  0.00  0.00    +0.044 C 
ATOM      8  C   LIG A   1      -3.540   3.878 131.727  0.00  0.00    +0.007 A 
ATOM      9  C   LIG A   1      -3.146   4.567 130.559  0.00  0.00    -0.036 A 
ATOM     10  C   LIG A   1      -2.557   5.970 130.710  0.00  0.00    +0.023 C 
ATOM     11  C   LIG A   1      -1.882   6.470 129.419  0.00  0.00    +0.013 C 
ATOM     12  C   LIG A   1      -2.646   6.097 128.155  0.00  0.00    +0.036 C 
ENDROOT
BRANCH  10  13
ATOM     13  C   LIG A   1      -3.566   6.978 131.353  0.00  0.00    -0.010 C 
ATOM     14  C   LIG A   1      -2.844   8.134 132.058  0.00  0.00    +0.008 C 
ATOM     15  C   LIG A   1      -4.613   7.539 130.389  0.00  0.00    +0.008 C 
ENDBRANCH  10  13
TORSDOF 1
ENDMDL
