MODEL 1
REMARK VINA RESULT:      -7.8      0.000      0.000
REMARK  Name = NuBBE_548
REMARK  5 active torsions:
REMARK  status: ('A' for Active; 'I' for Inactive)
REMARK    1  A    between atoms: C_1  and  O_2
REMARK    2  A    between atoms: O_2  and  C_3
REMARK    3  A    between atoms: C_6  and  C_7
REMARK    4  A    between atoms: C_7  and  C_8
REMARK    5  A    between atoms: C_7  and  O_21
REMARK                            x       y       z     vdW  Elec       q    Type
REMARK                         _______ _______ _______ _____ _____    ______ ____
ROOT
ATOM      1  C   LIG A   1      -7.297   2.044 124.690  0.00  0.00    +0.082 A 
ATOM      2  N   LIG A   1      -6.202   2.562 125.333  0.00  0.00    -0.256 NA
ATOM      3  C   LIG A   1      -5.330   1.696 125.886  0.00  0.00    +0.112 A 
ATOM      4  C   LIG A   1      -5.458   0.324 125.811  0.00  0.00    +0.028 A 
ATOM      5  C   LIG A   1      -6.564  -0.217 125.158  0.00  0.00    -0.011 A 
ATOM      6  C   LIG A   1      -6.686  -1.609 125.008  0.00  0.00    +0.058 A 
ATOM      7  C   LIG A   1      -7.777  -2.106 124.336  0.00  0.00    +0.167 A 
ATOM      8  C   LIG A   1      -8.772  -1.281 123.872  0.00  0.00    +0.167 A 
ATOM      9  C   LIG A   1      -8.706   0.085 124.020  0.00  0.00    +0.060 A 
ATOM     10  C   LIG A   1      -7.559   0.658 124.614  0.00  0.00    +0.010 A 
ATOM     11  O   LIG A   1      -9.764  -1.966 123.244  0.00  0.00    -0.453 OA
ATOM     12  C   LIG A   1      -9.216  -3.300 123.254  0.00  0.00    +0.466 C 
ATOM     13  O   LIG A   1      -8.007  -3.412 124.036  0.00  0.00    -0.453 OA
ENDROOT
BRANCH   1  14
ATOM     14  C   LIG A   1      -8.175   3.088 123.984  0.00  0.00    +0.194 C 
BRANCH  14  18
ATOM     15  C   LIG A   1      -6.927   4.162 119.959  0.00  0.00    +0.120 A 
ATOM     16  C   LIG A   1      -5.995   4.125 120.998  0.00  0.00    +0.046 A 
ATOM     17  C   LIG A   1      -6.386   3.755 122.293  0.00  0.00    +0.010 A 
ATOM     18  C   LIG A   1      -7.723   3.436 122.574  0.00  0.00    -0.013 A 
ATOM     19  C   LIG A   1      -8.645   3.462 121.517  0.00  0.00    +0.010 A 
ATOM     20  C   LIG A   1      -8.255   3.837 120.227  0.00  0.00    +0.046 A 
BRANCH  15  22
ATOM     21  C   LIG A   1      -5.755   5.809 118.735  0.00  0.00    +0.277 C 
ATOM     22  O   LIG A   1      -6.450   4.565 118.740  0.00  0.00    -0.495 OA
ENDBRANCH  15  22
ENDBRANCH  14  18
BRANCH  14  23
ATOM     23  O   LIG A   1      -8.164   4.316 124.733  0.00  0.00    -0.381 OA
ATOM     24  H   LIG A   1      -7.351   4.256 125.276  0.00  0.00    +0.211 HD
ENDBRANCH  14  23
ENDBRANCH   1  14
TORSDOF 4
ENDMDL
MODEL 2
REMARK VINA RESULT:      -7.4      1.160      1.777
REMARK  Name = NuBBE_548
REMARK  5 active torsions:
REMARK  status: ('A' for Active; 'I' for Inactive)
REMARK    1  A    between atoms: C_1  and  O_2
REMARK    2  A    between atoms: O_2  and  C_3
REMARK    3  A    between atoms: C_6  and  C_7
REMARK    4  A    between atoms: C_7  and  C_8
REMARK    5  A    between atoms: C_7  and  O_21
REMARK                            x       y       z     vdW  Elec       q    Type
REMARK                         _______ _______ _______ _____ _____    ______ ____
ROOT
ATOM      1  C   LIG A   1      -7.298   2.132 125.178  0.00  0.00    +0.082 A 
ATOM      2  N   LIG A   1      -6.727   3.095 125.971  0.00  0.00    -0.256 NA
ATOM      3  C   LIG A   1      -5.703   2.727 126.767  0.00  0.00    +0.112 A 
ATOM      4  C   LIG A   1      -5.177   1.452 126.800  0.00  0.00    +0.028 A 
ATOM      5  C   LIG A   1      -5.745   0.463 125.998  0.00  0.00    -0.011 A 
ATOM      6  C   LIG A   1      -5.189  -0.826 125.963  0.00  0.00    +0.058 A 
ATOM      7  C   LIG A   1      -5.759  -1.768 125.140  0.00  0.00    +0.167 A 
ATOM      8  C   LIG A   1      -6.891  -1.494 124.412  0.00  0.00    +0.167 A 
ATOM      9  C   LIG A   1      -7.484  -0.253 124.437  0.00  0.00    +0.060 A 
ATOM     10  C   LIG A   1      -6.882   0.782 125.187  0.00  0.00    +0.010 A 
ATOM     11  O   LIG A   1      -7.301  -2.557 123.670  0.00  0.00    -0.453 OA
ATOM     12  C   LIG A   1      -6.226  -3.486 123.917  0.00  0.00    +0.466 C 
ATOM     13  O   LIG A   1      -5.303  -3.030 124.929  0.00  0.00    -0.453 OA
ENDROOT
BRANCH   1  14
ATOM     14  C   LIG A   1      -8.374   2.656 124.215  0.00  0.00    +0.194 C 
BRANCH  14  18
ATOM     15  C   LIG A   1      -6.797   3.983 120.386  0.00  0.00    +0.120 A 
ATOM     16  C   LIG A   1      -8.170   3.795 120.554  0.00  0.00    +0.046 A 
ATOM     17  C   LIG A   1      -8.688   3.392 121.793  0.00  0.00    +0.010 A 
ATOM     18  C   LIG A   1      -7.835   3.149 122.882  0.00  0.00    -0.013 A 
ATOM     19  C   LIG A   1      -6.459   3.357 122.702  0.00  0.00    +0.010 A 
ATOM     20  C   LIG A   1      -5.944   3.754 121.464  0.00  0.00    +0.046 A 
BRANCH  15  22
ATOM     21  C   LIG A   1      -5.808   5.645 119.028  0.00  0.00    +0.277 C 
ATOM     22  O   LIG A   1      -6.391   4.348 119.130  0.00  0.00    -0.495 OA
ENDBRANCH  15  22
ENDBRANCH  14  18
BRANCH  14  23
ATOM     23  O   LIG A   1      -9.062   3.767 124.816  0.00  0.00    -0.381 OA
ATOM     24  H   LIG A   1      -8.791   3.734 125.757  0.00  0.00    +0.211 HD
ENDBRANCH  14  23
ENDBRANCH   1  14
TORSDOF 4
ENDMDL
MODEL 3
REMARK VINA RESULT:      -7.2      3.249      7.893
REMARK  Name = NuBBE_548
REMARK  5 active torsions:
REMARK  status: ('A' for Active; 'I' for Inactive)
REMARK    1  A    between atoms: C_1  and  O_2
REMARK    2  A    between atoms: O_2  and  C_3
REMARK    3  A    between atoms: C_6  and  C_7
REMARK    4  A    between atoms: C_7  and  C_8
REMARK    5  A    between atoms: C_7  and  O_21
REMARK                            x       y       z     vdW  Elec       q    Type
REMARK                         _______ _______ _______ _____ _____    ______ ____
ROOT
ATOM      1  C   LIG A   1      -8.427  -1.523 124.696  0.00  0.00    +0.082 A 
ATOM      2  N   LIG A   1      -7.820  -2.503 123.953  0.00  0.00    -0.256 NA
ATOM      3  C   LIG A   1      -6.931  -2.121 123.015  0.00  0.00    +0.112 A 
ATOM      4  C   LIG A   1      -6.574  -0.808 122.785  0.00  0.00    +0.028 A 
ATOM      5  C   LIG A   1      -7.181   0.200 123.534  0.00  0.00    -0.011 A 
ATOM      6  C   LIG A   1      -6.789   1.538 123.368  0.00  0.00    +0.058 A 
ATOM      7  C   LIG A   1      -7.391   2.502 124.142  0.00  0.00    +0.167 A 
ATOM      8  C   LIG A   1      -8.403   2.192 125.016  0.00  0.00    +0.167 A 
ATOM      9  C   LIG A   1      -8.836   0.898 125.191  0.00  0.00    +0.060 A 
ATOM     10  C   LIG A   1      -8.185  -0.146 124.495  0.00  0.00    +0.010 A 
ATOM     11  O   LIG A   1      -8.869   3.283 125.678  0.00  0.00    -0.453 OA
ATOM     12  C   LIG A   1      -7.948   4.291 125.215  0.00  0.00    +0.466 C 
ATOM     13  O   LIG A   1      -7.077   3.824 124.163  0.00  0.00    -0.453 OA
ENDROOT
BRANCH   1  14
ATOM     14  C   LIG A   1      -9.331  -2.045 125.822  0.00  0.00    +0.194 C 
BRANCH  14  18
ATOM     15  C   LIG A   1      -7.243  -3.202 129.457  0.00  0.00    +0.120 A 
ATOM     16  C   LIG A   1      -8.222  -4.035 128.913  0.00  0.00    +0.046 A 
ATOM     17  C   LIG A   1      -8.881  -3.681 127.727  0.00  0.00    +0.010 A 
ATOM     18  C   LIG A   1      -8.586  -2.472 127.077  0.00  0.00    -0.013 A 
ATOM     19  C   LIG A   1      -7.590  -1.652 127.628  0.00  0.00    +0.010 A 
ATOM     20  C   LIG A   1      -6.937  -2.005 128.814  0.00  0.00    +0.046 A 
BRANCH  15  22
ATOM     21  C   LIG A   1      -5.665  -4.615 130.504  0.00  0.00    +0.277 C 
ATOM     22  O   LIG A   1      -6.682  -3.624 130.633  0.00  0.00    -0.495 OA
ENDBRANCH  15  22
ENDBRANCH  14  18
BRANCH  14  23
ATOM     23  O   LIG A   1     -10.059  -3.198 125.365  0.00  0.00    -0.381 OA
ATOM     24  H   LIG A   1     -10.262  -3.692 126.187  0.00  0.00    +0.211 HD
ENDBRANCH  14  23
ENDBRANCH   1  14
TORSDOF 4
ENDMDL
MODEL 4
REMARK VINA RESULT:      -7.2      6.883      8.827
REMARK  Name = NuBBE_548
REMARK  5 active torsions:
REMARK  status: ('A' for Active; 'I' for Inactive)
REMARK    1  A    between atoms: C_1  and  O_2
REMARK    2  A    between atoms: O_2  and  C_3
REMARK    3  A    between atoms: C_6  and  C_7
REMARK    4  A    between atoms: C_7  and  C_8
REMARK    5  A    between atoms: C_7  and  O_21
REMARK                            x       y       z     vdW  Elec       q    Type
REMARK                         _______ _______ _______ _____ _____    ______ ____
ROOT
ATOM      1  C   LIG A   1      -8.165   5.525 131.532  0.00  0.00    +0.082 A 
ATOM      2  N   LIG A   1      -7.263   6.403 132.076  0.00  0.00    -0.256 NA
ATOM      3  C   LIG A   1      -6.011   6.409 131.576  0.00  0.00    +0.112 A 
ATOM      4  C   LIG A   1      -5.599   5.610 130.529  0.00  0.00    +0.028 A 
ATOM      5  C   LIG A   1      -6.506   4.714 129.964  0.00  0.00    -0.011 A 
ATOM      6  C   LIG A   1      -6.134   3.936 128.855  0.00  0.00    +0.058 A 
ATOM      7  C   LIG A   1      -7.062   3.083 128.307  0.00  0.00    +0.167 A 
ATOM      8  C   LIG A   1      -8.310   2.929 128.860  0.00  0.00    +0.167 A 
ATOM      9  C   LIG A   1      -8.707   3.651 129.961  0.00  0.00    +0.060 A 
ATOM     10  C   LIG A   1      -7.829   4.616 130.504  0.00  0.00    +0.010 A 
ATOM     11  O   LIG A   1      -9.073   2.035 128.178  0.00  0.00    -0.453 OA
ATOM     12  C   LIG A   1      -8.209   1.742 127.061  0.00  0.00    +0.466 C 
ATOM     13  O   LIG A   1      -6.893   2.322 127.194  0.00  0.00    -0.453 OA
ENDROOT
BRANCH   1  14
ATOM     14  C   LIG A   1      -9.596   5.666 132.072  0.00  0.00    +0.194 C 
BRANCH  14  18
ATOM     15  C   LIG A   1     -12.205   8.044 129.533  0.00  0.00    +0.120 A 
ATOM     16  C   LIG A   1     -12.724   7.370 130.641  0.00  0.00    +0.046 A 
ATOM     17  C   LIG A   1     -11.884   6.623 131.478  0.00  0.00    +0.010 A 
ATOM     18  C   LIG A   1     -10.511   6.519 131.208  0.00  0.00    -0.013 A 
ATOM     19  C   LIG A   1     -10.001   7.214 130.101  0.00  0.00    +0.010 A 
ATOM     20  C   LIG A   1     -10.841   7.955 129.263  0.00  0.00    +0.046 A 
BRANCH  15  22
ATOM     21  C   LIG A   1     -13.838   7.924 127.830  0.00  0.00    +0.277 C 
ATOM     22  O   LIG A   1     -13.113   8.721 128.763  0.00  0.00    -0.495 OA
ENDBRANCH  15  22
ENDBRANCH  14  18
BRANCH  14  23
ATOM     23  O   LIG A   1      -9.566   6.283 133.371  0.00  0.00    -0.381 OA
ATOM     24  H   LIG A   1     -10.508   6.464 133.570  0.00  0.00    +0.211 HD
ENDBRANCH  14  23
ENDBRANCH   1  14
TORSDOF 4
ENDMDL
MODEL 5
REMARK VINA RESULT:      -7.1      8.869     10.545
REMARK  Name = NuBBE_548
REMARK  5 active torsions:
REMARK  status: ('A' for Active; 'I' for Inactive)
REMARK    1  A    between atoms: C_1  and  O_2
REMARK    2  A    between atoms: O_2  and  C_3
REMARK    3  A    between atoms: C_6  and  C_7
REMARK    4  A    between atoms: C_7  and  C_8
REMARK    5  A    between atoms: C_7  and  O_21
REMARK                            x       y       z     vdW  Elec       q    Type
REMARK                         _______ _______ _______ _____ _____    ______ ____
ROOT
ATOM      1  C   LIG A   1      -8.931   4.451 131.952  0.00  0.00    +0.082 A 
ATOM      2  N   LIG A   1      -9.464   3.954 133.113  0.00  0.00    -0.256 NA
ATOM      3  C   LIG A   1      -8.738   4.081 134.242  0.00  0.00    +0.112 A 
ATOM      4  C   LIG A   1      -7.511   4.711 134.299  0.00  0.00    +0.028 A 
ATOM      5  C   LIG A   1      -6.958   5.223 133.127  0.00  0.00    -0.011 A 
ATOM      6  C   LIG A   1      -5.744   5.927 133.167  0.00  0.00    +0.058 A 
ATOM      7  C   LIG A   1      -5.241   6.442 131.995  0.00  0.00    +0.167 A 
ATOM      8  C   LIG A   1      -5.863   6.224 130.790  0.00  0.00    +0.167 A 
ATOM      9  C   LIG A   1      -7.040   5.518 130.702  0.00  0.00    +0.060 A 
ATOM     10  C   LIG A   1      -7.654   5.053 131.887  0.00  0.00    +0.010 A 
ATOM     11  O   LIG A   1      -5.206   6.807 129.754  0.00  0.00    -0.453 OA
ATOM     12  C   LIG A   1      -4.172   7.522 130.461  0.00  0.00    +0.466 C 
ATOM     13  O   LIG A   1      -4.127   7.209 131.869  0.00  0.00    -0.453 OA
ENDROOT
BRANCH   1  14
ATOM     14  C   LIG A   1      -9.869   4.377 130.737  0.00  0.00    +0.194 C 
BRANCH  14  18
ATOM     15  C   LIG A   1     -12.032   8.081 130.022  0.00  0.00    +0.120 A 
ATOM     16  C   LIG A   1     -10.950   7.731 129.213  0.00  0.00    +0.046 A 
ATOM     17  C   LIG A   1     -10.264   6.526 129.422  0.00  0.00    +0.010 A 
ATOM     18  C   LIG A   1     -10.638   5.659 130.461  0.00  0.00    -0.013 A 
ATOM     19  C   LIG A   1     -11.737   6.017 131.256  0.00  0.00    +0.010 A 
ATOM     20  C   LIG A   1     -12.416   7.222 131.050  0.00  0.00    +0.046 A 
BRANCH  15  22
ATOM     21  C   LIG A   1     -13.381   9.350 128.555  0.00  0.00    +0.277 C 
ATOM     22  O   LIG A   1     -12.614   9.291 129.755  0.00  0.00    -0.495 OA
ENDBRANCH  15  22
ENDBRANCH  14  18
BRANCH  14  23
ATOM     23  O   LIG A   1     -10.851   3.346 130.946  0.00  0.00    -0.381 OA
ATOM     24  H   LIG A   1     -10.498   2.832 131.702  0.00  0.00    +0.211 HD
ENDBRANCH  14  23
ENDBRANCH   1  14
TORSDOF 4
ENDMDL
MODEL 6
REMARK VINA RESULT:      -6.9      2.506      3.393
REMARK  Name = NuBBE_548
REMARK  5 active torsions:
REMARK  status: ('A' for Active; 'I' for Inactive)
REMARK    1  A    between atoms: C_1  and  O_2
REMARK    2  A    between atoms: O_2  and  C_3
REMARK    3  A    between atoms: C_6  and  C_7
REMARK    4  A    between atoms: C_7  and  C_8
REMARK    5  A    between atoms: C_7  and  O_21
REMARK                            x       y       z     vdW  Elec       q    Type
REMARK                         _______ _______ _______ _____ _____    ______ ____
ROOT
ATOM      1  C   LIG A   1      -8.331  -0.160 124.231  0.00  0.00    +0.082 A 
ATOM      2  N   LIG A   1      -8.676  -0.477 122.942  0.00  0.00    -0.256 NA
ATOM      3  C   LIG A   1      -9.004  -1.757 122.676  0.00  0.00    +0.112 A 
ATOM      4  C   LIG A   1      -9.046  -2.753 123.630  0.00  0.00    +0.028 A 
ATOM      5  C   LIG A   1      -8.700  -2.446 124.945  0.00  0.00    -0.011 A 
ATOM      6  C   LIG A   1      -8.797  -3.423 125.949  0.00  0.00    +0.058 A 
ATOM      7  C   LIG A   1      -8.474  -3.077 127.239  0.00  0.00    +0.167 A 
ATOM      8  C   LIG A   1      -7.997  -1.827 127.549  0.00  0.00    +0.167 A 
ATOM      9  C   LIG A   1      -7.861  -0.848 126.593  0.00  0.00    +0.060 A 
ATOM     10  C   LIG A   1      -8.275  -1.117 125.269  0.00  0.00    +0.010 A 
ATOM     11  O   LIG A   1      -7.728  -1.688 128.874  0.00  0.00    -0.453 OA
ATOM     12  C   LIG A   1      -8.210  -2.950 129.379  0.00  0.00    +0.466 C 
ATOM     13  O   LIG A   1      -8.585  -3.873 128.335  0.00  0.00    -0.453 OA
ENDROOT
BRANCH   1  14
ATOM     14  C   LIG A   1      -8.090   1.337 124.476  0.00  0.00    +0.194 C 
BRANCH  14  18
ATOM     15  C   LIG A   1      -7.357   3.718 120.912  0.00  0.00    +0.120 A 
ATOM     16  C   LIG A   1      -6.287   3.217 121.655  0.00  0.00    +0.046 A 
ATOM     17  C   LIG A   1      -6.516   2.427 122.791  0.00  0.00    +0.010 A 
ATOM     18  C   LIG A   1      -7.824   2.144 123.215  0.00  0.00    -0.013 A 
ATOM     19  C   LIG A   1      -8.889   2.641 122.449  0.00  0.00    +0.010 A 
ATOM     20  C   LIG A   1      -8.659   3.434 121.320  0.00  0.00    +0.046 A 
BRANCH  15  22
ATOM     21  C   LIG A   1      -5.660   4.898 119.768  0.00  0.00    +0.277 C 
ATOM     22  O   LIG A   1      -7.027   4.503 119.839  0.00  0.00    -0.495 OA
ENDBRANCH  15  22
ENDBRANCH  14  18
BRANCH  14  23
ATOM     23  O   LIG A   1      -6.941   1.510 125.324  0.00  0.00    -0.381 OA
ATOM     24  H   LIG A   1      -6.223   1.754 124.704  0.00  0.00    +0.211 HD
ENDBRANCH  14  23
ENDBRANCH   1  14
TORSDOF 4
ENDMDL
MODEL 7
REMARK VINA RESULT:      -6.9     10.117     13.183
REMARK  Name = NuBBE_548
REMARK  5 active torsions:
REMARK  status: ('A' for Active; 'I' for Inactive)
REMARK    1  A    between atoms: C_1  and  O_2
REMARK    2  A    between atoms: O_2  and  C_3
REMARK    3  A    between atoms: C_6  and  C_7
REMARK    4  A    between atoms: C_7  and  C_8
REMARK    5  A    between atoms: C_7  and  O_21
REMARK                            x       y       z     vdW  Elec       q    Type
REMARK                         _______ _______ _______ _____ _____    ______ ____
ROOT
ATOM      1  C   LIG A   1      -7.724   5.467 133.104  0.00  0.00    +0.082 A 
ATOM      2  N   LIG A   1      -6.387   5.652 132.863  0.00  0.00    -0.256 NA
ATOM      3  C   LIG A   1      -6.037   6.354 131.767  0.00  0.00    +0.112 A 
ATOM      4  C   LIG A   1      -6.945   6.924 130.898  0.00  0.00    +0.028 A 
ATOM      5  C   LIG A   1      -8.309   6.746 131.132  0.00  0.00    -0.011 A 
ATOM      6  C   LIG A   1      -9.255   7.369 130.302  0.00  0.00    +0.058 A 
ATOM      7  C   LIG A   1     -10.590   7.194 130.578  0.00  0.00    +0.167 A 
ATOM      8  C   LIG A   1     -11.011   6.375 131.597  0.00  0.00    +0.167 A 
ATOM      9  C   LIG A   1     -10.119   5.724 132.417  0.00  0.00    +0.060 A 
ATOM     10  C   LIG A   1      -8.735   5.948 132.242  0.00  0.00    +0.010 A 
ATOM     11  O   LIG A   1     -12.366   6.328 131.700  0.00  0.00    -0.453 OA
ATOM     12  C   LIG A   1     -12.743   7.311 130.714  0.00  0.00    +0.466 C 
ATOM     13  O   LIG A   1     -11.628   7.784 129.928  0.00  0.00    -0.453 OA
ENDROOT
BRANCH   1  14
ATOM     14  C   LIG A   1      -8.041   4.764 134.433  0.00  0.00    +0.194 C 
BRANCH  14  18
ATOM     15  C   LIG A   1      -6.251   6.722 137.879  0.00  0.00    +0.120 A 
ATOM     16  C   LIG A   1      -7.453   7.192 137.348  0.00  0.00    +0.046 A 
ATOM     17  C   LIG A   1      -8.049   6.550 136.254  0.00  0.00    +0.010 A 
ATOM     18  C   LIG A   1      -7.438   5.436 135.657  0.00  0.00    -0.013 A 
ATOM     19  C   LIG A   1      -6.238   4.966 136.211  0.00  0.00    +0.010 A 
ATOM     20  C   LIG A   1      -5.642   5.611 137.299  0.00  0.00    +0.046 A 
BRANCH  15  22
ATOM     21  C   LIG A   1      -6.494   8.579 139.319  0.00  0.00    +0.277 C 
ATOM     22  O   LIG A   1      -5.738   7.437 138.928  0.00  0.00    -0.495 OA
ENDBRANCH  15  22
ENDBRANCH  14  18
BRANCH  14  23
ATOM     23  O   LIG A   1      -7.525   3.422 134.407  0.00  0.00    -0.381 OA
ATOM     24  H   LIG A   1      -7.794   3.081 133.528  0.00  0.00    +0.211 HD
ENDBRANCH  14  23
ENDBRANCH   1  14
TORSDOF 4
ENDMDL
MODEL 8
REMARK VINA RESULT:      -6.9      7.363      9.685
REMARK  Name = NuBBE_548
REMARK  5 active torsions:
REMARK  status: ('A' for Active; 'I' for Inactive)
REMARK    1  A    between atoms: C_1  and  O_2
REMARK    2  A    between atoms: O_2  and  C_3
REMARK    3  A    between atoms: C_6  and  C_7
REMARK    4  A    between atoms: C_7  and  C_8
REMARK    5  A    between atoms: C_7  and  O_21
REMARK                            x       y       z     vdW  Elec       q    Type
REMARK                         _______ _______ _______ _____ _____    ______ ____
ROOT
ATOM      1  C   LIG A   1      -6.169   6.414 131.850  0.00  0.00    +0.082 A 
ATOM      2  N   LIG A   1      -5.514   5.872 132.926  0.00  0.00    -0.256 NA
ATOM      3  C   LIG A   1      -6.261   5.355 133.921  0.00  0.00    +0.112 A 
ATOM      4  C   LIG A   1      -7.640   5.309 133.902  0.00  0.00    +0.028 A 
ATOM      5  C   LIG A   1      -8.320   5.854 132.814  0.00  0.00    -0.011 A 
ATOM      6  C   LIG A   1      -9.720   5.762 132.736  0.00  0.00    +0.058 A 
ATOM      7  C   LIG A   1     -10.355   6.287 131.636  0.00  0.00    +0.167 A 
ATOM      8  C   LIG A   1      -9.660   6.952 130.656  0.00  0.00    +0.167 A 
ATOM      9  C   LIG A   1      -8.292   7.089 130.705  0.00  0.00    +0.060 A 
ATOM     10  C   LIG A   1      -7.578   6.481 131.761  0.00  0.00    +0.010 A 
ATOM     11  O   LIG A   1     -10.469   7.402 129.661  0.00  0.00    -0.453 OA
ATOM     12  C   LIG A   1     -11.732   6.833 130.064  0.00  0.00    +0.466 C 
ATOM     13  O   LIG A   1     -11.685   6.215 131.368  0.00  0.00    -0.453 OA
ENDROOT
BRANCH   1  14
ATOM     14  C   LIG A   1      -5.250   6.871 130.707  0.00  0.00    +0.194 C 
BRANCH  14  18
ATOM     15  C   LIG A   1      -3.660   3.660 128.243  0.00  0.00    +0.120 A 
ATOM     16  C   LIG A   1      -2.816   4.665 128.719  0.00  0.00    +0.046 A 
ATOM     17  C   LIG A   1      -3.317   5.689 129.535  0.00  0.00    +0.010 A 
ATOM     18  C   LIG A   1      -4.679   5.736 129.871  0.00  0.00    -0.013 A 
ATOM     19  C   LIG A   1      -5.512   4.711 129.398  0.00  0.00    +0.010 A 
ATOM     20  C   LIG A   1      -5.011   3.694 128.579  0.00  0.00    +0.046 A 
BRANCH  15  22
ATOM     21  C   LIG A   1      -1.857   3.122 126.814  0.00  0.00    +0.277 C 
ATOM     22  O   LIG A   1      -3.079   2.724 127.430  0.00  0.00    -0.495 OA
ENDBRANCH  15  22
ENDBRANCH  14  18
BRANCH  14  23
ATOM     23  O   LIG A   1      -4.126   7.589 131.247  0.00  0.00    -0.381 OA
ATOM     24  H   LIG A   1      -4.495   8.465 131.484  0.00  0.00    +0.211 HD
ENDBRANCH  14  23
ENDBRANCH   1  14
TORSDOF 4
ENDMDL
MODEL 9
REMARK VINA RESULT:      -6.8      6.825      9.106
REMARK  Name = NuBBE_548
REMARK  5 active torsions:
REMARK  status: ('A' for Active; 'I' for Inactive)
REMARK    1  A    between atoms: C_1  and  O_2
REMARK    2  A    between atoms: O_2  and  C_3
REMARK    3  A    between atoms: C_6  and  C_7
REMARK    4  A    between atoms: C_7  and  C_8
REMARK    5  A    between atoms: C_7  and  O_21
REMARK                            x       y       z     vdW  Elec       q    Type
REMARK                         _______ _______ _______ _____ _____    ______ ____
ROOT
ATOM      1  C   LIG A   1      -6.294  -2.557 130.365  0.00  0.00    +0.082 A 
ATOM      2  N   LIG A   1      -5.305  -3.021 129.536  0.00  0.00    -0.256 NA
ATOM      3  C   LIG A   1      -4.505  -4.001 130.001  0.00  0.00    +0.112 A 
ATOM      4  C   LIG A   1      -4.646  -4.584 131.243  0.00  0.00    +0.028 A 
ATOM      5  C   LIG A   1      -5.649  -4.124 132.096  0.00  0.00    -0.011 A 
ATOM      6  C   LIG A   1      -5.858  -4.742 133.340  0.00  0.00    +0.058 A 
ATOM      7  C   LIG A   1      -6.873  -4.280 134.143  0.00  0.00    +0.167 A 
ATOM      8  C   LIG A   1      -7.632  -3.193 133.787  0.00  0.00    +0.167 A 
ATOM      9  C   LIG A   1      -7.444  -2.541 132.590  0.00  0.00    +0.060 A 
ATOM     10  C   LIG A   1      -6.482  -3.036 131.681  0.00  0.00    +0.010 A 
ATOM     11  O   LIG A   1      -8.574  -2.889 134.718  0.00  0.00    -0.453 OA
ATOM     12  C   LIG A   1      -8.404  -3.987 135.639  0.00  0.00    +0.466 C 
ATOM     13  O   LIG A   1      -7.258  -4.811 135.334  0.00  0.00    -0.453 OA
ENDROOT
BRANCH   1  14
ATOM     14  C   LIG A   1      -7.237  -1.530 129.719  0.00  0.00    +0.194 C 
BRANCH  14  18
ATOM     15  C   LIG A   1      -9.117  -2.839 126.024  0.00  0.00    +0.120 A 
ATOM     16  C   LIG A   1      -8.507  -1.586 126.097  0.00  0.00    +0.046 A 
ATOM     17  C   LIG A   1      -7.877  -1.168 127.277  0.00  0.00    +0.010 A 
ATOM     18  C   LIG A   1      -7.866  -1.991 128.414  0.00  0.00    -0.013 A 
ATOM     19  C   LIG A   1      -8.469  -3.254 128.320  0.00  0.00    +0.010 A 
ATOM     20  C   LIG A   1      -9.103  -3.667 127.144  0.00  0.00    +0.046 A 
BRANCH  15  22
ATOM     21  C   LIG A   1      -8.987  -2.819 123.665  0.00  0.00    +0.277 C 
ATOM     22  O   LIG A   1      -9.731  -3.140 124.837  0.00  0.00    -0.495 OA
ENDBRANCH  15  22
ENDBRANCH  14  18
BRANCH  14  23
ATOM     23  O   LIG A   1      -6.510  -0.325 129.422  0.00  0.00    -0.381 OA
ATOM     24  H   LIG A   1      -7.118   0.183 128.846  0.00  0.00    +0.211 HD
ENDBRANCH  14  23
ENDBRANCH   1  14
TORSDOF 4
ENDMDL
