MODEL 1
REMARK VINA RESULT:      -4.6      0.000      0.000
REMARK  Name = NuBBE_1395
REMARK  4 active torsions:
REMARK  status: ('A' for Active; 'I' for Inactive)
REMARK    1  A    between atoms: C_1  and  O_3
REMARK    2  A    between atoms: C_1  and  C_4
REMARK    3  A    between atoms: C_7  and  O_12
REMARK    4  A    between atoms: N_10  and  C_11
REMARK                            x       y       z     vdW  Elec       q    Type
REMARK                         _______ _______ _______ _____ _____    ______ ____
ROOT
ATOM      1  C   LIG A   1     -10.797   7.733 129.312  0.00  0.00    +0.168 C 
ATOM      2  C   LIG A   1      -9.617   7.300 130.188  0.00  0.00    +0.063 C 
ATOM      3  C   LIG A   1     -10.121   6.085 130.966  0.00  0.00    +0.131 C 
ATOM      4  C   LIG A   1     -11.432   5.690 130.290  0.00  0.00    +0.116 C 
ATOM      5  N   LIG A   1     -11.954   7.001 129.878  0.00  0.00    -0.290 NA
ATOM      6  C   LIG A   1     -13.113   6.894 129.004  0.00  0.00    +0.105 C 
ENDROOT
BRANCH   1   7
ATOM      7  C   LIG A   1     -10.487   7.402 127.841  0.00  0.00    +0.322 C 
ATOM      8  O   LIG A   1      -9.912   6.393 127.456  0.00  0.00    -0.249 OA
BRANCH   7   9
ATOM      9  O   LIG A   1     -10.888   8.362 126.974  0.00  0.00    -0.479 OA
ATOM     10  H   LIG A   1     -11.381   9.101 127.378  0.00  0.00    +0.295 HD
ENDBRANCH   7   9
ENDBRANCH   1   7
BRANCH   3  11
ATOM     11  O   LIG A   1     -10.370   6.480 132.319  0.00  0.00    -0.391 OA
ATOM     12  H   LIG A   1     -10.300   7.454 132.330  0.00  0.00    +0.210 HD
ENDBRANCH   3  11
TORSDOF 3
ENDMDL
MODEL 2
REMARK VINA RESULT:      -4.5      2.140      3.502
REMARK  Name = NuBBE_1395
REMARK  4 active torsions:
REMARK  status: ('A' for Active; 'I' for Inactive)
REMARK    1  A    between atoms: C_1  and  O_3
REMARK    2  A    between atoms: C_1  and  C_4
REMARK    3  A    between atoms: C_7  and  O_12
REMARK    4  A    between atoms: N_10  and  C_11
REMARK                            x       y       z     vdW  Elec       q    Type
REMARK                         _______ _______ _______ _____ _____    ______ ____
ROOT
ATOM      1  C   LIG A   1     -11.662   7.564 129.022  0.00  0.00    +0.168 C 
ATOM      2  C   LIG A   1     -10.415   8.013 128.252  0.00  0.00    +0.063 C 
ATOM      3  C   LIG A   1     -10.701   7.665 126.791  0.00  0.00    +0.131 C 
ATOM      4  C   LIG A   1     -12.189   7.328 126.741  0.00  0.00    +0.116 C 
ATOM      5  N   LIG A   1     -12.392   6.706 128.059  0.00  0.00    -0.290 NA
ATOM      6  C   LIG A   1     -13.797   6.482 128.363  0.00  0.00    +0.105 C 
ENDROOT
BRANCH   1   7
ATOM      7  C   LIG A   1     -12.443   8.804 129.493  0.00  0.00    +0.322 C 
ATOM      8  O   LIG A   1     -12.950   8.935 130.599  0.00  0.00    -0.249 OA
BRANCH   7   9
ATOM      9  O   LIG A   1     -12.557   9.765 128.545  0.00  0.00    -0.479 OA
ATOM     10  H   LIG A   1     -13.472  10.036 128.344  0.00  0.00    +0.295 HD
ENDBRANCH   7   9
ENDBRANCH   1   7
BRANCH   3  11
ATOM     11  O   LIG A   1      -9.927   6.514 126.437  0.00  0.00    -0.391 OA
ATOM     12  H   LIG A   1      -9.390   6.781 125.667  0.00  0.00    +0.210 HD
ENDBRANCH   3  11
TORSDOF 3
ENDMDL
MODEL 3
REMARK VINA RESULT:      -4.4      1.628      2.527
REMARK  Name = NuBBE_1395
REMARK  4 active torsions:
REMARK  status: ('A' for Active; 'I' for Inactive)
REMARK    1  A    between atoms: C_1  and  O_3
REMARK    2  A    between atoms: C_1  and  C_4
REMARK    3  A    between atoms: C_7  and  O_12
REMARK    4  A    between atoms: N_10  and  C_11
REMARK                            x       y       z     vdW  Elec       q    Type
REMARK                         _______ _______ _______ _____ _____    ______ ____
ROOT
ATOM      1  C   LIG A   1     -12.046   6.637 128.448  0.00  0.00    +0.168 C 
ATOM      2  C   LIG A   1     -13.139   7.516 129.065  0.00  0.00    +0.063 C 
ATOM      3  C   LIG A   1     -12.610   7.903 130.446  0.00  0.00    +0.131 C 
ATOM      4  C   LIG A   1     -11.137   7.499 130.439  0.00  0.00    +0.116 C 
ATOM      5  N   LIG A   1     -11.168   6.297 129.592  0.00  0.00    -0.290 NA
ATOM      6  C   LIG A   1      -9.837   5.826 129.239  0.00  0.00    +0.105 C 
ENDROOT
BRANCH   1   7
ATOM      7  C   LIG A   1     -11.350   7.410 127.315  0.00  0.00    +0.322 C 
ATOM      8  O   LIG A   1     -10.976   8.573 127.386  0.00  0.00    -0.249 OA
BRANCH   7   9
ATOM      9  O   LIG A   1     -11.204   6.689 126.177  0.00  0.00    -0.479 OA
ATOM     10  H   LIG A   1     -11.288   5.723 126.290  0.00  0.00    +0.295 HD
ENDBRANCH   7   9
ENDBRANCH   1   7
BRANCH   3  11
ATOM     11  O   LIG A   1     -13.318   7.149 131.435  0.00  0.00    -0.391 OA
ATOM     12  H   LIG A   1     -14.217   7.529 131.466  0.00  0.00    +0.210 HD
ENDBRANCH   3  11
TORSDOF 3
ENDMDL
MODEL 4
REMARK VINA RESULT:      -4.3      1.650      3.758
REMARK  Name = NuBBE_1395
REMARK  4 active torsions:
REMARK  status: ('A' for Active; 'I' for Inactive)
REMARK    1  A    between atoms: C_1  and  O_3
REMARK    2  A    between atoms: C_1  and  C_4
REMARK    3  A    between atoms: C_7  and  O_12
REMARK    4  A    between atoms: N_10  and  C_11
REMARK                            x       y       z     vdW  Elec       q    Type
REMARK                         _______ _______ _______ _____ _____    ______ ____
ROOT
ATOM      1  C   LIG A   1     -11.543   6.958 130.552  0.00  0.00    +0.168 C 
ATOM      2  C   LIG A   1     -12.752   7.273 129.664  0.00  0.00    +0.063 C 
ATOM      3  C   LIG A   1     -12.163   7.845 128.375  0.00  0.00    +0.131 C 
ATOM      4  C   LIG A   1     -10.667   7.550 128.451  0.00  0.00    +0.116 C 
ATOM      5  N   LIG A   1     -10.420   7.666 129.896  0.00  0.00    -0.290 NA
ATOM      6  C   LIG A   1      -9.090   7.213 130.275  0.00  0.00    +0.105 C 
ENDROOT
BRANCH   1   7
ATOM      7  C   LIG A   1     -11.368   5.432 130.651  0.00  0.00    +0.322 C 
ATOM      8  O   LIG A   1     -11.619   4.638 129.754  0.00  0.00    -0.249 OA
BRANCH   7   9
ATOM      9  O   LIG A   1     -10.928   5.015 131.862  0.00  0.00    -0.479 OA
ATOM     10  H   LIG A   1     -10.037   4.618 131.860  0.00  0.00    +0.295 HD
ENDBRANCH   7   9
ENDBRANCH   1   7
BRANCH   3  11
ATOM     11  O   LIG A   1     -12.382   9.260 128.362  0.00  0.00    -0.391 OA
ATOM     12  H   LIG A   1     -12.242   9.559 129.280  0.00  0.00    +0.210 HD
ENDBRANCH   3  11
TORSDOF 3
ENDMDL
MODEL 5
REMARK VINA RESULT:      -4.3      2.159      3.416
REMARK  Name = NuBBE_1395
REMARK  4 active torsions:
REMARK  status: ('A' for Active; 'I' for Inactive)
REMARK    1  A    between atoms: C_1  and  O_3
REMARK    2  A    between atoms: C_1  and  C_4
REMARK    3  A    between atoms: C_7  and  O_12
REMARK    4  A    between atoms: N_10  and  C_11
REMARK                            x       y       z     vdW  Elec       q    Type
REMARK                         _______ _______ _______ _____ _____    ______ ____
ROOT
ATOM      1  C   LIG A   1     -10.852   7.838 128.795  0.00  0.00    +0.168 C 
ATOM      2  C   LIG A   1     -11.895   8.365 129.786  0.00  0.00    +0.063 C 
ATOM      3  C   LIG A   1     -13.125   8.688 128.937  0.00  0.00    +0.131 C 
ATOM      4  C   LIG A   1     -12.851   8.053 127.576  0.00  0.00    +0.116 C 
ATOM      5  N   LIG A   1     -11.393   8.211 127.468  0.00  0.00    -0.290 NA
ATOM      6  C   LIG A   1     -10.833   7.484 126.339  0.00  0.00    +0.105 C 
ENDROOT
BRANCH   1   7
ATOM      7  C   LIG A   1     -10.666   6.326 129.009  0.00  0.00    +0.322 C 
ATOM      8  O   LIG A   1     -11.530   5.564 129.423  0.00  0.00    -0.249 OA
BRANCH   7   9
ATOM      9  O   LIG A   1      -9.416   5.888 128.723  0.00  0.00    -0.479 OA
ATOM     10  H   LIG A   1      -8.698   6.490 128.993  0.00  0.00    +0.295 HD
ENDBRANCH   7   9
ENDBRANCH   1   7
BRANCH   3  11
ATOM     11  O   LIG A   1     -13.226  10.109 128.802  0.00  0.00    -0.391 OA
ATOM     12  H   LIG A   1     -14.177  10.317 128.878  0.00  0.00    +0.210 HD
ENDBRANCH   3  11
TORSDOF 3
ENDMDL
MODEL 6
REMARK VINA RESULT:      -4.2      2.366      3.605
REMARK  Name = NuBBE_1395
REMARK  4 active torsions:
REMARK  status: ('A' for Active; 'I' for Inactive)
REMARK    1  A    between atoms: C_1  and  O_3
REMARK    2  A    between atoms: C_1  and  C_4
REMARK    3  A    between atoms: C_7  and  O_12
REMARK    4  A    between atoms: N_10  and  C_11
REMARK                            x       y       z     vdW  Elec       q    Type
REMARK                         _______ _______ _______ _____ _____    ______ ____
ROOT
ATOM      1  C   LIG A   1     -11.403   5.469 130.234  0.00  0.00    +0.168 C 
ATOM      2  C   LIG A   1     -10.821   4.109 130.635  0.00  0.00    +0.063 C 
ATOM      3  C   LIG A   1      -9.380   4.124 130.126  0.00  0.00    +0.131 C 
ATOM      4  C   LIG A   1      -9.105   5.576 129.742  0.00  0.00    +0.116 C 
ATOM      5  N   LIG A   1     -10.425   6.005 129.258  0.00  0.00    -0.290 NA
ATOM      6  C   LIG A   1     -10.498   7.440 129.026  0.00  0.00    +0.105 C 
ENDROOT
BRANCH   1   7
ATOM      7  C   LIG A   1     -11.590   6.334 131.493  0.00  0.00    +0.322 C 
ATOM      8  O   LIG A   1     -10.751   6.485 132.371  0.00  0.00    -0.249 OA
BRANCH   7   9
ATOM      9  O   LIG A   1     -12.812   6.913 131.575  0.00  0.00    -0.479 OA
ATOM     10  H   LIG A   1     -13.029   7.518 130.842  0.00  0.00    +0.295 HD
ENDBRANCH   7   9
ENDBRANCH   1   7
BRANCH   3  11
ATOM     11  O   LIG A   1      -9.296   3.288 128.968  0.00  0.00    -0.391 OA
ATOM     12  H   LIG A   1     -10.018   2.636 129.056  0.00  0.00    +0.210 HD
ENDBRANCH   3  11
TORSDOF 3
ENDMDL
MODEL 7
REMARK VINA RESULT:      -4.2      1.545      3.503
REMARK  Name = NuBBE_1395
REMARK  4 active torsions:
REMARK  status: ('A' for Active; 'I' for Inactive)
REMARK    1  A    between atoms: C_1  and  O_3
REMARK    2  A    between atoms: C_1  and  C_4
REMARK    3  A    between atoms: C_7  and  O_12
REMARK    4  A    between atoms: N_10  and  C_11
REMARK                            x       y       z     vdW  Elec       q    Type
REMARK                         _______ _______ _______ _____ _____    ______ ____
ROOT
ATOM      1  C   LIG A   1     -10.733   6.564 129.262  0.00  0.00    +0.168 C 
ATOM      2  C   LIG A   1     -10.112   6.389 127.871  0.00  0.00    +0.063 C 
ATOM      3  C   LIG A   1     -10.782   7.449 126.998  0.00  0.00    +0.131 C 
ATOM      4  C   LIG A   1     -11.510   8.372 127.973  0.00  0.00    +0.116 C 
ATOM      5  N   LIG A   1     -11.914   7.426 129.023  0.00  0.00    -0.290 NA
ATOM      6  C   LIG A   1     -12.449   8.091 130.202  0.00  0.00    +0.105 C 
ENDROOT
BRANCH   1   7
ATOM      7  C   LIG A   1      -9.684   7.164 130.215  0.00  0.00    +0.322 C 
ATOM      8  O   LIG A   1      -8.767   7.899 129.875  0.00  0.00    -0.249 OA
BRANCH   7   9
ATOM      9  O   LIG A   1      -9.841   6.778 131.504  0.00  0.00    -0.479 OA
ATOM     10  H   LIG A   1     -10.451   7.332 132.027  0.00  0.00    +0.295 HD
ENDBRANCH   7   9
ENDBRANCH   1   7
BRANCH   3  11
ATOM     11  O   LIG A   1     -11.727   6.804 126.139  0.00  0.00    -0.391 OA
ATOM     12  H   LIG A   1     -11.347   6.853 125.241  0.00  0.00    +0.210 HD
ENDBRANCH   3  11
TORSDOF 3
ENDMDL
MODEL 8
REMARK VINA RESULT:      -4.1      2.108      2.698
REMARK  Name = NuBBE_1395
REMARK  4 active torsions:
REMARK  status: ('A' for Active; 'I' for Inactive)
REMARK    1  A    between atoms: C_1  and  O_3
REMARK    2  A    between atoms: C_1  and  C_4
REMARK    3  A    between atoms: C_7  and  O_12
REMARK    4  A    between atoms: N_10  and  C_11
REMARK                            x       y       z     vdW  Elec       q    Type
REMARK                         _______ _______ _______ _____ _____    ______ ____
ROOT
ATOM      1  C   LIG A   1     -10.266   6.939 130.504  0.00  0.00    +0.168 C 
ATOM      2  C   LIG A   1     -11.261   6.496 131.582  0.00  0.00    +0.063 C 
ATOM      3  C   LIG A   1     -12.633   6.919 131.057  0.00  0.00    +0.131 C 
ATOM      4  C   LIG A   1     -12.406   7.294 129.594  0.00  0.00    +0.116 C 
ATOM      5  N   LIG A   1     -11.049   7.858 129.646  0.00  0.00    -0.290 NA
ATOM      6  C   LIG A   1     -10.493   8.102 128.323  0.00  0.00    +0.105 C 
ENDROOT
BRANCH   1   7
ATOM      7  C   LIG A   1      -9.716   5.698 129.779  0.00  0.00    +0.322 C 
ATOM      8  O   LIG A   1     -10.367   4.698 129.509  0.00  0.00    -0.249 OA
BRANCH   7   9
ATOM      9  O   LIG A   1      -8.399   5.787 129.478  0.00  0.00    -0.479 OA
ATOM     10  H   LIG A   1      -7.922   4.936 129.467  0.00  0.00    +0.295 HD
ENDBRANCH   7   9
ENDBRANCH   1   7
BRANCH   3  11
ATOM     11  O   LIG A   1     -13.071   8.066 131.793  0.00  0.00    -0.391 OA
ATOM     12  H   LIG A   1     -12.653   7.993 132.672  0.00  0.00    +0.210 HD
ENDBRANCH   3  11
TORSDOF 3
ENDMDL
MODEL 9
REMARK VINA RESULT:      -4.1      2.074      3.513
REMARK  Name = NuBBE_1395
REMARK  4 active torsions:
REMARK  status: ('A' for Active; 'I' for Inactive)
REMARK    1  A    between atoms: C_1  and  O_3
REMARK    2  A    between atoms: C_1  and  C_4
REMARK    3  A    between atoms: C_7  and  O_12
REMARK    4  A    between atoms: N_10  and  C_11
REMARK                            x       y       z     vdW  Elec       q    Type
REMARK                         _______ _______ _______ _____ _____    ______ ____
ROOT
ATOM      1  C   LIG A   1      -9.570   6.544 129.732  0.00  0.00    +0.168 C 
ATOM      2  C   LIG A   1     -10.907   7.279 129.884  0.00  0.00    +0.063 C 
ATOM      3  C   LIG A   1     -11.946   6.178 130.093  0.00  0.00    +0.131 C 
ATOM      4  C   LIG A   1     -11.141   4.910 130.361  0.00  0.00    +0.116 C 
ATOM      5  N   LIG A   1      -9.958   5.131 129.515  0.00  0.00    -0.290 NA
ATOM      6  C   LIG A   1      -8.908   4.152 129.752  0.00  0.00    +0.105 C 
ENDROOT
BRANCH   1   7
ATOM      7  C   LIG A   1      -8.711   6.787 130.985  0.00  0.00    +0.322 C 
ATOM      8  O   LIG A   1      -9.090   6.625 132.138  0.00  0.00    -0.249 OA
BRANCH   7   9
ATOM      9  O   LIG A   1      -7.465   7.241 130.708  0.00  0.00    -0.479 OA
ATOM     10  H   LIG A   1      -7.406   8.199 130.534  0.00  0.00    +0.295 HD
ENDBRANCH   7   9
ENDBRANCH   1   7
BRANCH   3  11
ATOM     11  O   LIG A   1     -12.704   6.030 128.888  0.00  0.00    -0.391 OA
ATOM     12  H   LIG A   1     -13.517   6.554 129.019  0.00  0.00    +0.210 HD
ENDBRANCH   3  11
TORSDOF 3
ENDMDL
