MODEL 1
REMARK VINA RESULT:      -9.0      0.000      0.000
REMARK  Name = NuBBE_315
REMARK  16 active torsions:
REMARK  status: ('A' for Active; 'I' for Inactive)
REMARK    1  A    between atoms: C_1  and  C_2
REMARK    2  A    between atoms: C_2  and  C_3
REMARK    3  A    between atoms: C_4  and  O_6
REMARK    4  A    between atoms: O_6  and  C_7
REMARK    5  A    between atoms: C_10  and  C_12
REMARK    6  A    between atoms: C_13  and  O_15
REMARK    7  A    between atoms: C_16  and  O_18
REMARK    8  A    between atoms: C_19  and  O_21
REMARK    9  A    between atoms: C_24  and  C_25
REMARK   10  A    between atoms: C_29  and  C_30
REMARK   11  A    between atoms: C_35  and  C_36
REMARK   12  A    between atoms: C_36  and  O_37
REMARK   13  A    between atoms: C_41  and  C_42
REMARK   14  A    between atoms: C_42  and  O_43
REMARK   15  A    between atoms: C_47  and  C_50
REMARK   16  A    between atoms: C_47  and  C_51
REMARK                            x       y       z     vdW  Elec       q    Type
REMARK                         _______ _______ _______ _____ _____    ______ ____
ROOT
ATOM      1  C   LIG A   1      -7.010   7.213 130.879  0.00  0.00    +0.014 C 
ATOM      2  C   LIG A   1      -7.746   6.014 131.538  0.00  0.00    -0.005 C 
ATOM      3  C   LIG A   1      -7.286   6.038 133.011  0.00  0.00    +0.014 C 
ATOM      4  C   LIG A   1      -9.301   6.252 131.429  0.00  0.00    +0.127 C 
ATOM      5  C   LIG A   1     -10.068   5.023 131.930  0.00  0.00    +0.033 C 
ATOM      6  C   LIG A   1      -9.722   3.767 131.127  0.00  0.00    +0.010 C 
ATOM      7  C   LIG A   1      -8.207   3.398 131.164  0.00  0.00    -0.025 C 
ATOM      8  C   LIG A   1      -7.923   2.876 132.587  0.00  0.00    +0.012 C 
ATOM      9  C   LIG A   1      -7.379   4.682 130.774  0.00  0.00    +0.003 C 
ATOM     10  C   LIG A   1      -5.875   4.354 130.716  0.00  0.00    +0.005 C 
ATOM     11  C   LIG A   1      -5.575   3.266 129.677  0.00  0.00    +0.009 C 
ATOM     12  C   LIG A   1      -6.367   1.929 129.807  0.00  0.00    -0.009 C 
ATOM     13  C   LIG A   1      -6.296   1.317 128.360  0.00  0.00    +0.013 C 
ATOM     14  C   LIG A   1      -7.891   2.301 130.050  0.00  0.00    +0.006 C 
ATOM     15  C   LIG A   1      -8.746   1.030 130.113  0.00  0.00    +0.031 C 
ATOM     16  C   LIG A   1      -8.186  -0.019 131.001  0.00  0.00    -0.026 C 
ATOM     17  C   LIG A   1      -6.903  -0.121 131.398  0.00  0.00    -0.052 C 
ATOM     18  C   LIG A   1      -5.777   0.822 130.873  0.00  0.00    +0.094 C 
ATOM     19  C   LIG A   1      -4.725  -0.157 130.226  0.00  0.00    +0.024 C 
ATOM     20  C   LIG A   1      -4.235  -1.288 131.159  0.00  0.00    +0.020 C 
ATOM     21  C   LIG A   1      -5.379  -2.154 131.741  0.00  0.00    +0.074 C 
ATOM     22  C   LIG A   1      -6.467  -1.240 132.357  0.00  0.00    +0.033 C 
ATOM     23  C   LIG A   1      -7.599  -2.071 133.011  0.00  0.00    +0.015 C 
ATOM     24  C   LIG A   1      -7.102  -3.049 134.100  0.00  0.00    -0.034 C 
ATOM     25  C   LIG A   1      -5.916  -3.885 133.573  0.00  0.00    +0.007 C 
ATOM     26  C   LIG A   1      -4.826  -3.053 132.881  0.00  0.00    +0.019 C 
ATOM     27  C   LIG A   1      -6.696  -2.284 135.376  0.00  0.00    +0.011 C 
ATOM     28  C   LIG A   1      -8.262  -3.993 134.473  0.00  0.00    +0.011 C 
ENDROOT
BRANCH  18  29
ATOM     29  C   LIG A   1      -4.989   1.482 132.049  0.00  0.00    +0.316 C 
ATOM     30  O   LIG A   1      -5.328   1.608 133.215  0.00  0.00    -0.250 OA
BRANCH  29  31
ATOM     31  O   LIG A   1      -3.738   1.873 131.726  0.00  0.00    -0.480 OA
ATOM     32  H   LIG A   1      -3.207   1.054 131.824  0.00  0.00    +0.295 HD
ENDBRANCH  29  31
ENDBRANCH  18  29
BRANCH  21  33
ATOM     33  C   LIG A   1      -5.945  -3.020 130.599  0.00  0.00    +0.311 C 
ATOM     34  O   LIG A   1      -7.109  -3.173 130.292  0.00  0.00    -0.250 OA
BRANCH  33  35
ATOM     35  O   LIG A   1      -4.993  -3.611 129.846  0.00  0.00    -0.480 OA
ATOM     36  H   LIG A   1      -4.196  -3.571 130.416  0.00  0.00    +0.295 HD
ENDBRANCH  33  35
ENDBRANCH  21  33
BRANCH   4  37
ATOM     37  O   LIG A   1      -9.623   6.577 130.056  0.00  0.00    -0.345 OA
BRANCH  37  38
ATOM     38  C   LIG A   1     -10.371   7.786 129.858  0.00  0.00    +0.282 C 
ATOM     39  O   LIG A   1     -10.233   8.328 128.544  0.00  0.00    -0.343 OA
ATOM     40  C   LIG A   1     -10.924   7.668 127.476  0.00  0.00    +0.149 C 
ATOM     41  C   LIG A   1     -10.138   6.478 126.945  0.00  0.00    +0.040 C 
ATOM     42  C   LIG A   1     -12.387   7.325 127.808  0.00  0.00    +0.174 C 
ATOM     43  C   LIG A   1     -12.546   6.688 129.197  0.00  0.00    +0.179 C 
ATOM     44  C   LIG A   1     -11.848   7.550 130.256  0.00  0.00    +0.201 C 
BRANCH  42  45
ATOM     45  O   LIG A   1     -13.161   8.538 127.756  0.00  0.00    -0.387 OA
ATOM     46  H   LIG A   1     -12.744   9.109 127.077  0.00  0.00    +0.210 HD
ENDBRANCH  42  45
BRANCH  43  47
ATOM     47  O   LIG A   1     -12.085   5.337 129.223  0.00  0.00    -0.386 OA
ATOM     48  H   LIG A   1     -11.117   5.341 129.073  0.00  0.00    +0.210 HD
ENDBRANCH  43  47
BRANCH  44  49
ATOM     49  O   LIG A   1     -12.524   8.813 130.392  0.00  0.00    -0.384 OA
ATOM     50  H   LIG A   1     -12.855   8.868 131.308  0.00  0.00    +0.210 HD
ENDBRANCH  44  49
ENDBRANCH  37  38
ENDBRANCH   4  37
TORSDOF 9
ENDMDL
MODEL 2
REMARK VINA RESULT:      -8.8      3.475      8.362
REMARK  Name = NuBBE_315
REMARK  16 active torsions:
REMARK  status: ('A' for Active; 'I' for Inactive)
REMARK    1  A    between atoms: C_1  and  C_2
REMARK    2  A    between atoms: C_2  and  C_3
REMARK    3  A    between atoms: C_4  and  O_6
REMARK    4  A    between atoms: O_6  and  C_7
REMARK    5  A    between atoms: C_10  and  C_12
REMARK    6  A    between atoms: C_13  and  O_15
REMARK    7  A    between atoms: C_16  and  O_18
REMARK    8  A    between atoms: C_19  and  O_21
REMARK    9  A    between atoms: C_24  and  C_25
REMARK   10  A    between atoms: C_29  and  C_30
REMARK   11  A    between atoms: C_35  and  C_36
REMARK   12  A    between atoms: C_36  and  O_37
REMARK   13  A    between atoms: C_41  and  C_42
REMARK   14  A    between atoms: C_42  and  O_43
REMARK   15  A    between atoms: C_47  and  C_50
REMARK   16  A    between atoms: C_47  and  C_51
REMARK                            x       y       z     vdW  Elec       q    Type
REMARK                         _______ _______ _______ _____ _____    ______ ____
ROOT
ATOM      1  C   LIG A   1      -6.818  -3.507 128.989  0.00  0.00    +0.014 C 
ATOM      2  C   LIG A   1      -6.005  -2.187 128.903  0.00  0.00    -0.005 C 
ATOM      3  C   LIG A   1      -4.733  -2.460 129.732  0.00  0.00    +0.014 C 
ATOM      4  C   LIG A   1      -5.646  -1.910 127.392  0.00  0.00    +0.127 C 
ATOM      5  C   LIG A   1      -4.975  -0.540 127.243  0.00  0.00    +0.033 C 
ATOM      6  C   LIG A   1      -5.877   0.595 127.732  0.00  0.00    +0.010 C 
ATOM      7  C   LIG A   1      -6.297   0.460 129.228  0.00  0.00    -0.025 C 
ATOM      8  C   LIG A   1      -5.035   0.762 130.061  0.00  0.00    +0.012 C 
ATOM      9  C   LIG A   1      -6.878  -0.989 129.447  0.00  0.00    +0.003 C 
ATOM     10  C   LIG A   1      -7.385  -1.153 130.892  0.00  0.00    +0.005 C 
ATOM     11  C   LIG A   1      -8.495  -0.145 131.218  0.00  0.00    +0.009 C 
ATOM     12  C   LIG A   1      -8.174   1.361 130.975  0.00  0.00    -0.009 C 
ATOM     13  C   LIG A   1      -9.594   2.020 130.822  0.00  0.00    +0.013 C 
ATOM     14  C   LIG A   1      -7.484   1.476 129.550  0.00  0.00    +0.006 C 
ATOM     15  C   LIG A   1      -7.206   2.945 129.209  0.00  0.00    +0.031 C 
ATOM     16  C   LIG A   1      -6.551   3.696 130.309  0.00  0.00    -0.026 C 
ATOM     17  C   LIG A   1      -6.552   3.357 131.612  0.00  0.00    -0.052 C 
ATOM     18  C   LIG A   1      -7.359   2.145 132.171  0.00  0.00    +0.094 C 
ATOM     19  C   LIG A   1      -8.313   2.783 133.251  0.00  0.00    +0.024 C 
ATOM     20  C   LIG A   1      -7.597   3.631 134.328  0.00  0.00    +0.020 C 
ATOM     21  C   LIG A   1      -6.727   4.771 133.743  0.00  0.00    +0.074 C 
ATOM     22  C   LIG A   1      -5.794   4.208 132.643  0.00  0.00    +0.033 C 
ATOM     23  C   LIG A   1      -4.859   5.307 132.079  0.00  0.00    +0.015 C 
ATOM     24  C   LIG A   1      -3.991   5.997 133.156  0.00  0.00    -0.034 C 
ATOM     25  C   LIG A   1      -4.865   6.448 134.345  0.00  0.00    +0.007 C 
ATOM     26  C   LIG A   1      -5.824   5.365 134.860  0.00  0.00    +0.019 C 
ATOM     27  C   LIG A   1      -2.870   5.054 133.640  0.00  0.00    +0.011 C 
ATOM     28  C   LIG A   1      -3.319   7.231 132.523  0.00  0.00    +0.011 C 
ENDROOT
BRANCH  18  29
ATOM     29  C   LIG A   1      -6.449   1.188 133.004  0.00  0.00    +0.316 C 
ATOM     30  O   LIG A   1      -5.231   1.100 133.000  0.00  0.00    -0.250 OA
BRANCH  29  31
ATOM     31  O   LIG A   1      -7.117   0.434 133.904  0.00  0.00    -0.480 OA
ATOM     32  H   LIG A   1      -8.009   0.336 133.508  0.00  0.00    +0.295 HD
ENDBRANCH  29  31
ENDBRANCH  18  29
BRANCH  21  33
ATOM     33  C   LIG A   1      -7.675   5.850 133.187  0.00  0.00    +0.311 C 
ATOM     34  O   LIG A   1      -7.617   6.403 132.108  0.00  0.00    -0.250 OA
BRANCH  33  35
ATOM     35  O   LIG A   1      -8.707   6.140 134.008  0.00  0.00    -0.480 OA
ATOM     36  H   LIG A   1      -9.019   7.010 133.679  0.00  0.00    +0.295 HD
ENDBRANCH  33  35
ENDBRANCH  21  33
BRANCH   4  37
ATOM     37  O   LIG A   1      -6.854  -2.018 126.603  0.00  0.00    -0.345 OA
BRANCH  37  38
ATOM     38  C   LIG A   1      -6.687  -2.515 125.268  0.00  0.00    +0.282 C 
ATOM     39  O   LIG A   1      -7.607  -3.554 124.931  0.00  0.00    -0.343 OA
ATOM     40  C   LIG A   1      -8.967  -3.181 124.674  0.00  0.00    +0.149 C 
ATOM     41  C   LIG A   1      -9.767  -3.044 125.961  0.00  0.00    +0.040 C 
ATOM     42  C   LIG A   1      -9.106  -1.963 123.744  0.00  0.00    +0.174 C 
ATOM     43  C   LIG A   1      -8.162  -0.813 124.127  0.00  0.00    +0.179 C 
ATOM     44  C   LIG A   1      -6.727  -1.334 124.268  0.00  0.00    +0.201 C 
BRANCH  42  45
ATOM     45  O   LIG A   1      -8.812  -2.383 122.399  0.00  0.00    -0.387 OA
ATOM     46  H   LIG A   1      -9.623  -2.221 121.871  0.00  0.00    +0.210 HD
ENDBRANCH  42  45
BRANCH  43  47
ATOM     47  O   LIG A   1      -8.599  -0.131 125.303  0.00  0.00    -0.386 OA
ATOM     48  H   LIG A   1      -7.845  -0.084 125.927  0.00  0.00    +0.210 HD
ENDBRANCH  43  47
BRANCH  44  49
ATOM     49  O   LIG A   1      -6.226  -1.759 122.989  0.00  0.00    -0.384 OA
ATOM     50  H   LIG A   1      -6.515  -1.101 122.329  0.00  0.00    +0.210 HD
ENDBRANCH  44  49
ENDBRANCH  37  38
ENDBRANCH   4  37
TORSDOF 9
ENDMDL
MODEL 3
REMARK VINA RESULT:      -8.7      3.552      6.735
REMARK  Name = NuBBE_315
REMARK  16 active torsions:
REMARK  status: ('A' for Active; 'I' for Inactive)
REMARK    1  A    between atoms: C_1  and  C_2
REMARK    2  A    between atoms: C_2  and  C_3
REMARK    3  A    between atoms: C_4  and  O_6
REMARK    4  A    between atoms: O_6  and  C_7
REMARK    5  A    between atoms: C_10  and  C_12
REMARK    6  A    between atoms: C_13  and  O_15
REMARK    7  A    between atoms: C_16  and  O_18
REMARK    8  A    between atoms: C_19  and  O_21
REMARK    9  A    between atoms: C_24  and  C_25
REMARK   10  A    between atoms: C_29  and  C_30
REMARK   11  A    between atoms: C_35  and  C_36
REMARK   12  A    between atoms: C_36  and  O_37
REMARK   13  A    between atoms: C_41  and  C_42
REMARK   14  A    between atoms: C_42  and  O_43
REMARK   15  A    between atoms: C_47  and  C_50
REMARK   16  A    between atoms: C_47  and  C_51
REMARK                            x       y       z     vdW  Elec       q    Type
REMARK                         _______ _______ _______ _____ _____    ______ ____
ROOT
ATOM      1  C   LIG A   1      -6.419   6.091 133.252  0.00  0.00    +0.014 C 
ATOM      2  C   LIG A   1      -6.211   5.489 131.836  0.00  0.00    -0.005 C 
ATOM      3  C   LIG A   1      -7.535   5.771 131.096  0.00  0.00    +0.014 C 
ATOM      4  C   LIG A   1      -5.006   6.232 131.141  0.00  0.00    +0.127 C 
ATOM      5  C   LIG A   1      -4.667   5.567 129.802  0.00  0.00    +0.033 C 
ATOM      6  C   LIG A   1      -4.283   4.096 129.974  0.00  0.00    +0.010 C 
ATOM      7  C   LIG A   1      -5.398   3.231 130.636  0.00  0.00    -0.025 C 
ATOM      8  C   LIG A   1      -6.513   3.079 129.581  0.00  0.00    +0.012 C 
ATOM      9  C   LIG A   1      -5.861   3.954 131.959  0.00  0.00    +0.003 C 
ATOM     10  C   LIG A   1      -6.908   3.101 132.699  0.00  0.00    +0.005 C 
ATOM     11  C   LIG A   1      -6.346   1.727 133.084  0.00  0.00    +0.009 C 
ATOM     12  C   LIG A   1      -5.733   0.868 131.936  0.00  0.00    -0.009 C 
ATOM     13  C   LIG A   1      -4.769  -0.120 132.691  0.00  0.00    +0.013 C 
ATOM     14  C   LIG A   1      -4.797   1.821 131.079  0.00  0.00    +0.006 C 
ATOM     15  C   LIG A   1      -4.098   1.025 129.971  0.00  0.00    +0.031 C 
ATOM     16  C   LIG A   1      -5.015   0.151 129.198  0.00  0.00    -0.026 C 
ATOM     17  C   LIG A   1      -6.222  -0.290 129.604  0.00  0.00    -0.052 C 
ATOM     18  C   LIG A   1      -6.786  -0.016 131.032  0.00  0.00    +0.094 C 
ATOM     19  C   LIG A   1      -7.051  -1.452 131.623  0.00  0.00    +0.024 C 
ATOM     20  C   LIG A   1      -7.940  -2.361 130.743  0.00  0.00    +0.020 C 
ATOM     21  C   LIG A   1      -7.407  -2.542 129.300  0.00  0.00    +0.074 C 
ATOM     22  C   LIG A   1      -7.089  -1.160 128.680  0.00  0.00    +0.033 C 
ATOM     23  C   LIG A   1      -6.615  -1.295 127.212  0.00  0.00    +0.015 C 
ATOM     24  C   LIG A   1      -7.626  -2.024 126.298  0.00  0.00    -0.034 C 
ATOM     25  C   LIG A   1      -8.083  -3.348 126.948  0.00  0.00    +0.007 C 
ATOM     26  C   LIG A   1      -8.500  -3.208 128.419  0.00  0.00    +0.019 C 
ATOM     27  C   LIG A   1      -8.842  -1.123 126.000  0.00  0.00    +0.011 C 
ATOM     28  C   LIG A   1      -6.934  -2.331 124.954  0.00  0.00    +0.011 C 
ENDROOT
BRANCH  18  29
ATOM     29  C   LIG A   1      -8.209   0.624 130.971  0.00  0.00    +0.316 C 
ATOM     30  O   LIG A   1      -8.693   1.321 130.093  0.00  0.00    -0.250 OA
BRANCH  29  31
ATOM     31  O   LIG A   1      -9.020   0.269 131.992  0.00  0.00    -0.480 OA
ATOM     32  H   LIG A   1      -9.897   0.165 131.565  0.00  0.00    +0.295 HD
ENDBRANCH  29  31
ENDBRANCH  18  29
BRANCH  21  33
ATOM     33  C   LIG A   1      -6.153  -3.436 129.369  0.00  0.00    +0.311 C 
ATOM     34  O   LIG A   1      -5.066  -3.226 128.873  0.00  0.00    -0.250 OA
BRANCH  33  35
ATOM     35  O   LIG A   1      -6.317  -4.541 130.128  0.00  0.00    -0.480 OA
ATOM     36  H   LIG A   1      -5.642  -4.433 130.832  0.00  0.00    +0.295 HD
ENDBRANCH  33  35
ENDBRANCH  21  33
BRANCH   4  37
ATOM     37  O   LIG A   1      -3.880   6.237 132.050  0.00  0.00    -0.345 OA
BRANCH  37  38
ATOM     38  C   LIG A   1      -2.706   6.918 131.587  0.00  0.00    +0.282 C 
ATOM     39  O   LIG A   1      -2.413   8.107 132.322  0.00  0.00    -0.343 OA
ATOM     40  C   LIG A   1      -1.868   7.960 133.639  0.00  0.00    +0.149 C 
ATOM     41  C   LIG A   1      -2.956   7.720 134.677  0.00  0.00    +0.040 C 
ATOM     42  C   LIG A   1      -0.722   6.936 133.719  0.00  0.00    +0.174 C 
ATOM     43  C   LIG A   1      -1.042   5.627 132.981  0.00  0.00    +0.179 C 
ATOM     44  C   LIG A   1      -1.515   5.929 131.554  0.00  0.00    +0.201 C 
BRANCH  42  45
ATOM     45  O   LIG A   1       0.456   7.527 133.138  0.00  0.00    -0.387 OA
ATOM     46  H   LIG A   1       0.190   8.407 132.797  0.00  0.00    +0.210 HD
ENDBRANCH  42  45
BRANCH  43  47
ATOM     47  O   LIG A   1      -1.984   4.827 133.695  0.00  0.00    -0.386 OA
ATOM     48  H   LIG A   1      -1.729   4.825 134.641  0.00  0.00    +0.210 HD
ENDBRANCH  43  47
BRANCH  44  49
ATOM     49  O   LIG A   1      -0.437   6.488 130.782  0.00  0.00    -0.384 OA
ATOM     50  H   LIG A   1      -0.164   7.316 131.220  0.00  0.00    +0.210 HD
ENDBRANCH  44  49
ENDBRANCH  37  38
ENDBRANCH   4  37
TORSDOF 9
ENDMDL
MODEL 4
REMARK VINA RESULT:      -8.3      1.895      3.250
REMARK  Name = NuBBE_315
REMARK  16 active torsions:
REMARK  status: ('A' for Active; 'I' for Inactive)
REMARK    1  A    between atoms: C_1  and  C_2
REMARK    2  A    between atoms: C_2  and  C_3
REMARK    3  A    between atoms: C_4  and  O_6
REMARK    4  A    between atoms: O_6  and  C_7
REMARK    5  A    between atoms: C_10  and  C_12
REMARK    6  A    between atoms: C_13  and  O_15
REMARK    7  A    between atoms: C_16  and  O_18
REMARK    8  A    between atoms: C_19  and  O_21
REMARK    9  A    between atoms: C_24  and  C_25
REMARK   10  A    between atoms: C_29  and  C_30
REMARK   11  A    between atoms: C_35  and  C_36
REMARK   12  A    between atoms: C_36  and  O_37
REMARK   13  A    between atoms: C_41  and  C_42
REMARK   14  A    between atoms: C_42  and  O_43
REMARK   15  A    between atoms: C_47  and  C_50
REMARK   16  A    between atoms: C_47  and  C_51
REMARK                            x       y       z     vdW  Elec       q    Type
REMARK                         _______ _______ _______ _____ _____    ______ ____
ROOT
ATOM      1  C   LIG A   1      -6.998   4.483 127.764  0.00  0.00    +0.014 C 
ATOM      2  C   LIG A   1      -6.394   4.185 129.163  0.00  0.00    -0.005 C 
ATOM      3  C   LIG A   1      -4.868   4.293 128.957  0.00  0.00    +0.014 C 
ATOM      4  C   LIG A   1      -6.904   5.277 130.179  0.00  0.00    +0.127 C 
ATOM      5  C   LIG A   1      -6.455   4.935 131.604  0.00  0.00    +0.033 C 
ATOM      6  C   LIG A   1      -6.987   3.575 132.061  0.00  0.00    +0.010 C 
ATOM      7  C   LIG A   1      -6.540   2.390 131.152  0.00  0.00    -0.025 C 
ATOM      8  C   LIG A   1      -5.036   2.179 131.425  0.00  0.00    +0.012 C 
ATOM      9  C   LIG A   1      -6.874   2.765 129.657  0.00  0.00    +0.003 C 
ATOM     10  C   LIG A   1      -6.526   1.593 128.719  0.00  0.00    +0.005 C 
ATOM     11  C   LIG A   1      -7.317   0.329 129.078  0.00  0.00    +0.009 C 
ATOM     12  C   LIG A   1      -7.217  -0.172 130.551  0.00  0.00    -0.009 C 
ATOM     13  C   LIG A   1      -8.517  -1.038 130.734  0.00  0.00    +0.013 C 
ATOM     14  C   LIG A   1      -7.399   1.091 131.495  0.00  0.00    +0.006 C 
ATOM     15  C   LIG A   1      -7.387   0.662 132.968  0.00  0.00    +0.031 C 
ATOM     16  C   LIG A   1      -6.266  -0.249 133.311  0.00  0.00    -0.026 C 
ATOM     17  C   LIG A   1      -5.561  -1.002 132.445  0.00  0.00    -0.052 C 
ATOM     18  C   LIG A   1      -5.911  -1.100 130.929  0.00  0.00    +0.094 C 
ATOM     19  C   LIG A   1      -6.158  -2.638 130.689  0.00  0.00    +0.024 C 
ATOM     20  C   LIG A   1      -5.001  -3.558 131.143  0.00  0.00    +0.020 C 
ATOM     21  C   LIG A   1      -4.610  -3.375 132.630  0.00  0.00    +0.074 C 
ATOM     22  C   LIG A   1      -4.394  -1.873 132.936  0.00  0.00    +0.033 C 
ATOM     23  C   LIG A   1      -3.936  -1.654 134.400  0.00  0.00    +0.015 C 
ATOM     24  C   LIG A   1      -2.645  -2.423 134.767  0.00  0.00    -0.034 C 
ATOM     25  C   LIG A   1      -2.762  -3.904 134.346  0.00  0.00    +0.007 C 
ATOM     26  C   LIG A   1      -3.267  -4.105 132.911  0.00  0.00    +0.019 C 
ATOM     27  C   LIG A   1      -1.414  -1.771 134.105  0.00  0.00    +0.011 C 
ATOM     28  C   LIG A   1      -2.450  -2.343 136.294  0.00  0.00    +0.011 C 
ENDROOT
BRANCH  18  29
ATOM     29  C   LIG A   1      -4.671  -0.783 130.034  0.00  0.00    +0.316 C 
ATOM     30  O   LIG A   1      -3.686  -0.117 130.308  0.00  0.00    -0.250 OA
BRANCH  29  31
ATOM     31  O   LIG A   1      -4.673  -1.416 128.841  0.00  0.00    -0.480 OA
ATOM     32  H   LIG A   1      -5.554  -1.202 128.467  0.00  0.00    +0.295 HD
ENDBRANCH  29  31
ENDBRANCH  18  29
BRANCH  21  33
ATOM     33  C   LIG A   1      -5.738  -3.974 133.492  0.00  0.00    +0.311 C 
ATOM     34  O   LIG A   1      -6.542  -3.378 134.178  0.00  0.00    -0.250 OA
BRANCH  33  35
ATOM     35  O   LIG A   1      -5.840  -5.317 133.395  0.00  0.00    -0.480 OA
ATOM     36  H   LIG A   1      -4.913  -5.604 133.251  0.00  0.00    +0.295 HD
ENDBRANCH  33  35
ENDBRANCH  21  33
BRANCH   4  37
ATOM     37  O   LIG A   1      -8.344   5.375 130.067  0.00  0.00    -0.345 OA
BRANCH  37  38
ATOM     38  C   LIG A   1      -8.976   6.321 130.940  0.00  0.00    +0.282 C 
ATOM     39  O   LIG A   1      -9.423   7.501 130.269  0.00  0.00    -0.343 OA
ATOM     40  C   LIG A   1     -10.595   7.398 129.451  0.00  0.00    +0.149 C 
ATOM     41  C   LIG A   1     -10.270   6.866 128.062  0.00  0.00    +0.040 C 
ATOM     42  C   LIG A   1     -11.754   6.646 130.128  0.00  0.00    +0.174 C 
ATOM     43  C   LIG A   1     -11.301   5.345 130.808  0.00  0.00    +0.179 C 
ATOM     44  C   LIG A   1     -10.107   5.620 131.730  0.00  0.00    +0.201 C 
BRANCH  42  45
ATOM     45  O   LIG A   1     -12.341   7.512 131.118  0.00  0.00    -0.387 OA
ATOM     46  H   LIG A   1     -11.887   8.377 131.038  0.00  0.00    +0.210 HD
ENDBRANCH  42  45
BRANCH  43  47
ATOM     47  O   LIG A   1     -11.014   4.317 129.859  0.00  0.00    -0.386 OA
ATOM     48  H   LIG A   1     -10.807   4.742 129.001  0.00  0.00    +0.210 HD
ENDBRANCH  43  47
BRANCH  44  49
ATOM     49  O   LIG A   1     -10.515   6.444 132.836  0.00  0.00    -0.384 OA
ATOM     50  H   LIG A   1      -9.979   7.260 132.805  0.00  0.00    +0.210 HD
ENDBRANCH  44  49
ENDBRANCH  37  38
ENDBRANCH   4  37
TORSDOF 9
ENDMDL
MODEL 5
REMARK VINA RESULT:      -8.2      3.301      4.599
REMARK  Name = NuBBE_315
REMARK  16 active torsions:
REMARK  status: ('A' for Active; 'I' for Inactive)
REMARK    1  A    between atoms: C_1  and  C_2
REMARK    2  A    between atoms: C_2  and  C_3
REMARK    3  A    between atoms: C_4  and  O_6
REMARK    4  A    between atoms: O_6  and  C_7
REMARK    5  A    between atoms: C_10  and  C_12
REMARK    6  A    between atoms: C_13  and  O_15
REMARK    7  A    between atoms: C_16  and  O_18
REMARK    8  A    between atoms: C_19  and  O_21
REMARK    9  A    between atoms: C_24  and  C_25
REMARK   10  A    between atoms: C_29  and  C_30
REMARK   11  A    between atoms: C_35  and  C_36
REMARK   12  A    between atoms: C_36  and  O_37
REMARK   13  A    between atoms: C_41  and  C_42
REMARK   14  A    between atoms: C_42  and  O_43
REMARK   15  A    between atoms: C_47  and  C_50
REMARK   16  A    between atoms: C_47  and  C_51
REMARK                            x       y       z     vdW  Elec       q    Type
REMARK                         _______ _______ _______ _____ _____    ______ ____
ROOT
ATOM      1  C   LIG A   1      -5.657   4.302 130.185  0.00  0.00    +0.014 C 
ATOM      2  C   LIG A   1      -6.712   3.240 130.596  0.00  0.00    -0.005 C 
ATOM      3  C   LIG A   1      -7.303   3.771 131.919  0.00  0.00    +0.014 C 
ATOM      4  C   LIG A   1      -7.818   3.164 129.475  0.00  0.00    +0.127 C 
ATOM      5  C   LIG A   1      -8.798   2.021 129.765  0.00  0.00    +0.033 C 
ATOM      6  C   LIG A   1      -8.092   0.665 129.829  0.00  0.00    +0.010 C 
ATOM      7  C   LIG A   1      -6.978   0.589 130.917  0.00  0.00    -0.025 C 
ATOM      8  C   LIG A   1      -7.704   0.562 132.278  0.00  0.00    +0.012 C 
ATOM      9  C   LIG A   1      -6.020   1.827 130.726  0.00  0.00    +0.003 C 
ATOM     10  C   LIG A   1      -4.851   1.760 131.727  0.00  0.00    +0.005 C 
ATOM     11  C   LIG A   1      -4.019   0.485 131.538  0.00  0.00    +0.009 C 
ATOM     12  C   LIG A   1      -4.787  -0.871 131.586  0.00  0.00    -0.009 C 
ATOM     13  C   LIG A   1      -3.841  -1.857 130.806  0.00  0.00    +0.013 C 
ATOM     14  C   LIG A   1      -6.086  -0.713 130.689  0.00  0.00    +0.006 C 
ATOM     15  C   LIG A   1      -6.856  -2.038 130.627  0.00  0.00    +0.031 C 
ATOM     16  C   LIG A   1      -7.058  -2.669 131.955  0.00  0.00    -0.026 C 
ATOM     17  C   LIG A   1      -6.337  -2.428 133.067  0.00  0.00    -0.052 C 
ATOM     18  C   LIG A   1      -5.083  -1.501 133.078  0.00  0.00    +0.094 C 
ATOM     19  C   LIG A   1      -3.921  -2.429 133.597  0.00  0.00    +0.024 C 
ATOM     20  C   LIG A   1      -4.210  -3.137 134.941  0.00  0.00    +0.020 C 
ATOM     21  C   LIG A   1      -5.510  -3.979 134.933  0.00  0.00    +0.074 C 
ATOM     22  C   LIG A   1      -6.683  -3.126 134.391  0.00  0.00    +0.033 C 
ATOM     23  C   LIG A   1      -8.018  -3.913 134.430  0.00  0.00    +0.015 C 
ATOM     24  C   LIG A   1      -8.392  -4.430 135.838  0.00  0.00    -0.034 C 
ATOM     25  C   LIG A   1      -7.196  -5.166 136.478  0.00  0.00    +0.007 C 
ATOM     26  C   LIG A   1      -5.870  -4.397 136.385  0.00  0.00    +0.019 C 
ATOM     27  C   LIG A   1      -8.855  -3.268 136.741  0.00  0.00    +0.011 C 
ATOM     28  C   LIG A   1      -9.575  -5.409 135.698  0.00  0.00    +0.011 C 
ENDROOT
BRANCH  18  29
ATOM     29  C   LIG A   1      -5.195  -0.401 134.181  0.00  0.00    +0.316 C 
ATOM     30  O   LIG A   1      -6.200   0.034 134.722  0.00  0.00    -0.250 OA
BRANCH  29  31
ATOM     31  O   LIG A   1      -4.007   0.043 134.643  0.00  0.00    -0.480 OA
ATOM     32  H   LIG A   1      -3.352  -0.519 134.176  0.00  0.00    +0.295 HD
ENDBRANCH  29  31
ENDBRANCH  18  29
BRANCH  21  33
ATOM     33  C   LIG A   1      -5.261  -5.224 134.060  0.00  0.00    +0.311 C 
ATOM     34  O   LIG A   1      -5.620  -5.410 132.916  0.00  0.00    -0.250 OA
BRANCH  33  35
ATOM     35  O   LIG A   1      -4.503  -6.165 134.662  0.00  0.00    -0.480 OA
ATOM     36  H   LIG A   1      -5.000  -6.994 134.499  0.00  0.00    +0.295 HD
ENDBRANCH  33  35
ENDBRANCH  21  33
BRANCH   4  37
ATOM     37  O   LIG A   1      -7.166   3.014 128.192  0.00  0.00    -0.345 OA
BRANCH  37  38
ATOM     38  C   LIG A   1      -7.668   3.842 127.134  0.00  0.00    +0.282 C 
ATOM     39  O   LIG A   1      -6.748   4.854 126.721  0.00  0.00    -0.343 OA
ATOM     40  C   LIG A   1      -5.622   4.448 125.934  0.00  0.00    +0.149 C 
ATOM     41  C   LIG A   1      -4.485   3.927 126.802  0.00  0.00    +0.040 C 
ATOM     42  C   LIG A   1      -5.986   3.495 124.782  0.00  0.00    +0.174 C 
ATOM     43  C   LIG A   1      -6.932   2.367 125.222  0.00  0.00    +0.179 C 
ATOM     44  C   LIG A   1      -8.142   2.951 125.961  0.00  0.00    +0.201 C 
BRANCH  42  45
ATOM     45  O   LIG A   1      -6.623   4.262 123.743  0.00  0.00    -0.387 OA
ATOM     46  H   LIG A   1      -6.449   3.791 122.900  0.00  0.00    +0.210 HD
ENDBRANCH  42  45
BRANCH  43  47
ATOM     47  O   LIG A   1      -6.259   1.378 126.002  0.00  0.00    -0.386 OA
ATOM     48  H   LIG A   1      -5.438   1.124 125.531  0.00  0.00    +0.210 HD
ENDBRANCH  43  47
BRANCH  44  49
ATOM     49  O   LIG A   1      -8.950   3.724 125.055  0.00  0.00    -0.384 OA
ATOM     50  H   LIG A   1      -9.434   3.095 124.487  0.00  0.00    +0.210 HD
ENDBRANCH  44  49
ENDBRANCH  37  38
ENDBRANCH   4  37
TORSDOF 9
ENDMDL
MODEL 6
REMARK VINA RESULT:      -8.2      4.374      7.452
REMARK  Name = NuBBE_315
REMARK  16 active torsions:
REMARK  status: ('A' for Active; 'I' for Inactive)
REMARK    1  A    between atoms: C_1  and  C_2
REMARK    2  A    between atoms: C_2  and  C_3
REMARK    3  A    between atoms: C_4  and  O_6
REMARK    4  A    between atoms: O_6  and  C_7
REMARK    5  A    between atoms: C_10  and  C_12
REMARK    6  A    between atoms: C_13  and  O_15
REMARK    7  A    between atoms: C_16  and  O_18
REMARK    8  A    between atoms: C_19  and  O_21
REMARK    9  A    between atoms: C_24  and  C_25
REMARK   10  A    between atoms: C_29  and  C_30
REMARK   11  A    between atoms: C_35  and  C_36
REMARK   12  A    between atoms: C_36  and  O_37
REMARK   13  A    between atoms: C_41  and  C_42
REMARK   14  A    between atoms: C_42  and  O_43
REMARK   15  A    between atoms: C_47  and  C_50
REMARK   16  A    between atoms: C_47  and  C_51
REMARK                            x       y       z     vdW  Elec       q    Type
REMARK                         _______ _______ _______ _____ _____    ______ ____
ROOT
ATOM      1  C   LIG A   1      -3.683   8.189 131.078  0.00  0.00    +0.014 C 
ATOM      2  C   LIG A   1      -3.109   6.748 131.008  0.00  0.00    -0.005 C 
ATOM      3  C   LIG A   1      -3.102   6.405 129.504  0.00  0.00    +0.014 C 
ATOM      4  C   LIG A   1      -1.644   6.755 131.592  0.00  0.00    +0.127 C 
ATOM      5  C   LIG A   1      -1.096   5.327 131.683  0.00  0.00    +0.033 C 
ATOM      6  C   LIG A   1      -1.960   4.439 132.581  0.00  0.00    +0.010 C 
ATOM      7  C   LIG A   1      -3.441   4.322 132.108  0.00  0.00    -0.025 C 
ATOM      8  C   LIG A   1      -3.421   3.453 130.833  0.00  0.00    +0.012 C 
ATOM      9  C   LIG A   1      -4.000   5.779 131.881  0.00  0.00    +0.003 C 
ATOM     10  C   LIG A   1      -5.489   5.728 131.488  0.00  0.00    +0.005 C 
ATOM     11  C   LIG A   1      -6.337   5.061 132.578  0.00  0.00    +0.009 C 
ATOM     12  C   LIG A   1      -5.900   3.637 133.040  0.00  0.00    -0.009 C 
ATOM     13  C   LIG A   1      -6.536   3.504 134.473  0.00  0.00    +0.013 C 
ATOM     14  C   LIG A   1      -4.329   3.672 133.262  0.00  0.00    +0.006 C 
ATOM     15  C   LIG A   1      -3.835   2.320 133.792  0.00  0.00    +0.031 C 
ATOM     16  C   LIG A   1      -4.356   1.158 133.030  0.00  0.00    -0.026 C 
ATOM     17  C   LIG A   1      -5.453   1.149 132.248  0.00  0.00    -0.052 C 
ATOM     18  C   LIG A   1      -6.412   2.372 132.120  0.00  0.00    +0.094 C 
ATOM     19  C   LIG A   1      -7.814   1.812 132.568  0.00  0.00    +0.024 C 
ATOM     20  C   LIG A   1      -8.279   0.547 131.809  0.00  0.00    +0.020 C 
ATOM     21  C   LIG A   1      -7.267  -0.623 131.874  0.00  0.00    +0.074 C 
ATOM     22  C   LIG A   1      -5.856  -0.120 131.481  0.00  0.00    +0.033 C 
ATOM     23  C   LIG A   1      -4.827  -1.278 131.469  0.00  0.00    +0.015 C 
ATOM     24  C   LIG A   1      -5.214  -2.443 130.529  0.00  0.00    -0.034 C 
ATOM     25  C   LIG A   1      -6.670  -2.884 130.789  0.00  0.00    +0.007 C 
ATOM     26  C   LIG A   1      -7.671  -1.721 130.851  0.00  0.00    +0.019 C 
ATOM     27  C   LIG A   1      -5.030  -2.038 129.052  0.00  0.00    +0.011 C 
ATOM     28  C   LIG A   1      -4.268  -3.628 130.808  0.00  0.00    +0.011 C 
ENDROOT
BRANCH  18  29
ATOM     29  C   LIG A   1      -6.636   2.769 130.626  0.00  0.00    +0.316 C 
ATOM     30  O   LIG A   1      -5.926   2.531 129.661  0.00  0.00    -0.250 OA
BRANCH  29  31
ATOM     31  O   LIG A   1      -7.819   3.373 130.386  0.00  0.00    -0.480 OA
ATOM     32  H   LIG A   1      -7.954   3.941 131.173  0.00  0.00    +0.295 HD
ENDBRANCH  29  31
ENDBRANCH  18  29
BRANCH  21  33
ATOM     33  C   LIG A   1      -7.290  -1.189 133.307  0.00  0.00    +0.311 C 
ATOM     34  O   LIG A   1      -6.570  -0.884 134.235  0.00  0.00    -0.250 OA
BRANCH  33  35
ATOM     35  O   LIG A   1      -8.280  -2.081 133.521  0.00  0.00    -0.480 OA
ATOM     36  H   LIG A   1      -8.842  -1.992 132.723  0.00  0.00    +0.295 HD
ENDBRANCH  33  35
ENDBRANCH  21  33
BRANCH   4  37
ATOM     37  O   LIG A   1      -1.663   7.418 132.878  0.00  0.00    -0.345 OA
BRANCH  37  38
ATOM     38  C   LIG A   1      -0.385   7.804 133.402  0.00  0.00    +0.282 C 
ATOM     39  O   LIG A   1      -0.144   9.211 133.331  0.00  0.00    -0.343 OA
ATOM     40  C   LIG A   1      -0.835  10.051 134.263  0.00  0.00    +0.149 C 
ATOM     41  C   LIG A   1      -2.244  10.382 133.790  0.00  0.00    +0.040 C 
ATOM     42  C   LIG A   1      -0.791   9.531 135.711  0.00  0.00    +0.174 C 
ATOM     43  C   LIG A   1      -1.103   8.030 135.812  0.00  0.00    +0.179 C 
ATOM     44  C   LIG A   1      -0.222   7.242 134.834  0.00  0.00    +0.201 C 
BRANCH  42  45
ATOM     45  O   LIG A   1       0.525   9.774 136.241  0.00  0.00    -0.387 OA
ATOM     46  H   LIG A   1       0.581   9.283 137.089  0.00  0.00    +0.210 HD
ENDBRANCH  42  45
BRANCH  43  47
ATOM     47  O   LIG A   1      -2.490   7.757 135.616  0.00  0.00    -0.386 OA
ATOM     48  H   LIG A   1      -2.970   8.611 135.594  0.00  0.00    +0.210 HD
ENDBRANCH  43  47
BRANCH  44  49
ATOM     49  O   LIG A   1       1.157   7.320 135.237  0.00  0.00    -0.384 OA
ATOM     50  H   LIG A   1       1.594   6.500 134.938  0.00  0.00    +0.210 HD
ENDBRANCH  44  49
ENDBRANCH  37  38
ENDBRANCH   4  37
TORSDOF 9
ENDMDL
MODEL 7
REMARK VINA RESULT:      -8.1      4.272      7.404
REMARK  Name = NuBBE_315
REMARK  16 active torsions:
REMARK  status: ('A' for Active; 'I' for Inactive)
REMARK    1  A    between atoms: C_1  and  C_2
REMARK    2  A    between atoms: C_2  and  C_3
REMARK    3  A    between atoms: C_4  and  O_6
REMARK    4  A    between atoms: O_6  and  C_7
REMARK    5  A    between atoms: C_10  and  C_12
REMARK    6  A    between atoms: C_13  and  O_15
REMARK    7  A    between atoms: C_16  and  O_18
REMARK    8  A    between atoms: C_19  and  O_21
REMARK    9  A    between atoms: C_24  and  C_25
REMARK   10  A    between atoms: C_29  and  C_30
REMARK   11  A    between atoms: C_35  and  C_36
REMARK   12  A    between atoms: C_36  and  O_37
REMARK   13  A    between atoms: C_41  and  C_42
REMARK   14  A    between atoms: C_42  and  O_43
REMARK   15  A    between atoms: C_47  and  C_50
REMARK   16  A    between atoms: C_47  and  C_51
REMARK                            x       y       z     vdW  Elec       q    Type
REMARK                         _______ _______ _______ _____ _____    ______ ____
ROOT
ATOM      1  C   LIG A   1      -4.350   6.348 136.571  0.00  0.00    +0.014 C 
ATOM      2  C   LIG A   1      -5.392   5.519 135.772  0.00  0.00    -0.005 C 
ATOM      3  C   LIG A   1      -4.930   4.055 135.934  0.00  0.00    +0.014 C 
ATOM      4  C   LIG A   1      -6.816   5.736 136.416  0.00  0.00    +0.127 C 
ATOM      5  C   LIG A   1      -7.897   5.058 135.568  0.00  0.00    +0.033 C 
ATOM      6  C   LIG A   1      -7.933   5.608 134.140  0.00  0.00    +0.010 C 
ATOM      7  C   LIG A   1      -6.587   5.440 133.371  0.00  0.00    -0.025 C 
ATOM      8  C   LIG A   1      -6.450   3.935 133.060  0.00  0.00    +0.012 C 
ATOM      9  C   LIG A   1      -5.430   6.016 134.274  0.00  0.00    +0.003 C 
ATOM     10  C   LIG A   1      -4.083   5.949 133.529  0.00  0.00    +0.005 C 
ATOM     11  C   LIG A   1      -4.117   6.763 132.229  0.00  0.00    +0.009 C 
ATOM     12  C   LIG A   1      -5.257   6.431 131.218  0.00  0.00    -0.009 C 
ATOM     13  C   LIG A   1      -5.379   7.742 130.357  0.00  0.00    +0.013 C 
ATOM     14  C   LIG A   1      -6.608   6.326 132.045  0.00  0.00    +0.006 C 
ATOM     15  C   LIG A   1      -7.791   6.074 131.102  0.00  0.00    +0.031 C 
ATOM     16  C   LIG A   1      -7.547   4.989 130.118  0.00  0.00    -0.026 C 
ATOM     17  C   LIG A   1      -6.342   4.525 129.732  0.00  0.00    -0.052 C 
ATOM     18  C   LIG A   1      -4.999   5.161 130.204  0.00  0.00    +0.094 C 
ATOM     19  C   LIG A   1      -4.278   5.577 128.867  0.00  0.00    +0.024 C 
ATOM     20  C   LIG A   1      -4.123   4.437 127.833  0.00  0.00    +0.020 C 
ATOM     21  C   LIG A   1      -5.462   3.760 127.450  0.00  0.00    +0.074 C 
ATOM     22  C   LIG A   1      -6.236   3.364 128.731  0.00  0.00    +0.033 C 
ATOM     23  C   LIG A   1      -7.552   2.623 128.389  0.00  0.00    +0.015 C 
ATOM     24  C   LIG A   1      -7.345   1.356 127.527  0.00  0.00    -0.034 C 
ATOM     25  C   LIG A   1      -6.454   1.673 126.308  0.00  0.00    +0.007 C 
ATOM     26  C   LIG A   1      -5.178   2.454 126.655  0.00  0.00    +0.019 C 
ATOM     27  C   LIG A   1      -6.725   0.220 128.366  0.00  0.00    +0.011 C 
ATOM     28  C   LIG A   1      -8.724   0.872 127.035  0.00  0.00    +0.011 C 
ENDROOT
BRANCH  18  29
ATOM     29  C   LIG A   1      -4.044   4.088 130.818  0.00  0.00    +0.316 C 
ATOM     30  O   LIG A   1      -4.322   2.983 131.256  0.00  0.00    -0.250 OA
BRANCH  29  31
ATOM     31  O   LIG A   1      -2.735   4.415 130.760  0.00  0.00    -0.480 OA
ATOM     32  H   LIG A   1      -2.508   4.628 131.690  0.00  0.00    +0.295 HD
ENDBRANCH  29  31
ENDBRANCH  18  29
BRANCH  21  33
ATOM     33  C   LIG A   1      -6.262   4.753 126.585  0.00  0.00    +0.311 C 
ATOM     34  O   LIG A   1      -7.457   4.960 126.610  0.00  0.00    -0.250 OA
BRANCH  33  35
ATOM     35  O   LIG A   1      -5.493   5.495 125.761  0.00  0.00    -0.480 OA
ATOM     36  H   LIG A   1      -5.701   5.135 124.873  0.00  0.00    +0.295 HD
ENDBRANCH  33  35
ENDBRANCH  21  33
BRANCH   4  37
ATOM     37  O   LIG A   1      -7.044   7.157 136.562  0.00  0.00    -0.345 OA
BRANCH  37  38
ATOM     38  C   LIG A   1      -8.265   7.531 137.217  0.00  0.00    +0.282 C 
ATOM     39  O   LIG A   1      -8.318   7.129 138.586  0.00  0.00    -0.343 OA
ATOM     40  C   LIG A   1      -7.530   7.868 139.528  0.00  0.00    +0.149 C 
ATOM     41  C   LIG A   1      -6.087   7.383 139.559  0.00  0.00    +0.040 C 
ATOM     42  C   LIG A   1      -7.651   9.393 139.369  0.00  0.00    +0.174 C 
ATOM     43  C   LIG A   1      -7.539   9.849 137.906  0.00  0.00    +0.179 C 
ATOM     44  C   LIG A   1      -8.509   9.047 137.029  0.00  0.00    +0.201 C 
BRANCH  42  45
ATOM     45  O   LIG A   1      -8.927   9.805 139.892  0.00  0.00    -0.387 OA
ATOM     46  H   LIG A   1      -9.421   8.985 140.104  0.00  0.00    +0.210 HD
ENDBRANCH  42  45
BRANCH  43  47
ATOM     47  O   LIG A   1      -6.198   9.772 137.423  0.00  0.00    -0.386 OA
ATOM     48  H   LIG A   1      -6.032   8.854 137.124  0.00  0.00    +0.210 HD
ENDBRANCH  43  47
BRANCH  44  49
ATOM     49  O   LIG A   1      -9.868   9.370 137.371  0.00  0.00    -0.384 OA
ATOM     50  H   LIG A   1     -10.298   9.714 136.566  0.00  0.00    +0.210 HD
ENDBRANCH  44  49
ENDBRANCH  37  38
ENDBRANCH   4  37
TORSDOF 9
ENDMDL
MODEL 8
REMARK VINA RESULT:      -8.0      3.987      5.492
REMARK  Name = NuBBE_315
REMARK  16 active torsions:
REMARK  status: ('A' for Active; 'I' for Inactive)
REMARK    1  A    between atoms: C_1  and  C_2
REMARK    2  A    between atoms: C_2  and  C_3
REMARK    3  A    between atoms: C_4  and  O_6
REMARK    4  A    between atoms: O_6  and  C_7
REMARK    5  A    between atoms: C_10  and  C_12
REMARK    6  A    between atoms: C_13  and  O_15
REMARK    7  A    between atoms: C_16  and  O_18
REMARK    8  A    between atoms: C_19  and  O_21
REMARK    9  A    between atoms: C_24  and  C_25
REMARK   10  A    between atoms: C_29  and  C_30
REMARK   11  A    between atoms: C_35  and  C_36
REMARK   12  A    between atoms: C_36  and  O_37
REMARK   13  A    between atoms: C_41  and  C_42
REMARK   14  A    between atoms: C_42  and  O_43
REMARK   15  A    between atoms: C_47  and  C_50
REMARK   16  A    between atoms: C_47  and  C_51
REMARK                            x       y       z     vdW  Elec       q    Type
REMARK                         _______ _______ _______ _____ _____    ______ ____
ROOT
ATOM      1  C   LIG A   1      -4.624   1.824 127.839  0.00  0.00    +0.014 C 
ATOM      2  C   LIG A   1      -5.566   1.570 129.047  0.00  0.00    -0.005 C 
ATOM      3  C   LIG A   1      -5.094   2.570 130.123  0.00  0.00    +0.014 C 
ATOM      4  C   LIG A   1      -7.050   1.874 128.606  0.00  0.00    +0.127 C 
ATOM      5  C   LIG A   1      -8.029   1.492 129.721  0.00  0.00    +0.033 C 
ATOM      6  C   LIG A   1      -7.935   0.007 130.081  0.00  0.00    +0.010 C 
ATOM      7  C   LIG A   1      -6.517  -0.433 130.558  0.00  0.00    -0.025 C 
ATOM      8  C   LIG A   1      -6.322   0.182 131.959  0.00  0.00    +0.012 C 
ATOM      9  C   LIG A   1      -5.466   0.058 129.490  0.00  0.00    +0.003 C 
ATOM     10  C   LIG A   1      -4.052  -0.419 129.870  0.00  0.00    +0.005 C 
ATOM     11  C   LIG A   1      -3.973  -1.950 129.941  0.00  0.00    +0.009 C 
ATOM     12  C   LIG A   1      -5.002  -2.667 130.868  0.00  0.00    -0.009 C 
ATOM     13  C   LIG A   1      -5.064  -4.128 130.288  0.00  0.00    +0.013 C 
ATOM     14  C   LIG A   1      -6.425  -2.025 130.584  0.00  0.00    +0.006 C 
ATOM     15  C   LIG A   1      -7.505  -2.735 131.409  0.00  0.00    +0.031 C 
ATOM     16  C   LIG A   1      -7.144  -2.903 132.839  0.00  0.00    -0.026 C 
ATOM     17  C   LIG A   1      -5.899  -2.870 133.353  0.00  0.00    -0.052 C 
ATOM     18  C   LIG A   1      -4.621  -2.753 132.467  0.00  0.00    +0.094 C 
ATOM     19  C   LIG A   1      -3.780  -4.035 132.832  0.00  0.00    +0.024 C 
ATOM     20  C   LIG A   1      -3.502  -4.219 134.342  0.00  0.00    +0.020 C 
ATOM     21  C   LIG A   1      -4.784  -4.239 135.211  0.00  0.00    +0.074 C 
ATOM     22  C   LIG A   1      -5.673  -3.019 134.865  0.00  0.00    +0.033 C 
ATOM     23  C   LIG A   1      -6.935  -2.968 135.762  0.00  0.00    +0.015 C 
ATOM     24  C   LIG A   1      -6.620  -2.936 137.275  0.00  0.00    -0.034 C 
ATOM     25  C   LIG A   1      -5.619  -4.052 137.642  0.00  0.00    +0.007 C 
ATOM     26  C   LIG A   1      -4.399  -4.125 136.712  0.00  0.00    +0.019 C 
ATOM     27  C   LIG A   1      -6.063  -1.558 137.688  0.00  0.00    +0.011 C 
ATOM     28  C   LIG A   1      -7.934  -3.158 138.051  0.00  0.00    +0.011 C 
ENDROOT
BRANCH  18  29
ATOM     29  C   LIG A   1      -3.710  -1.572 132.931  0.00  0.00    +0.316 C 
ATOM     30  O   LIG A   1      -4.018  -0.584 133.579  0.00  0.00    -0.250 OA
BRANCH  29  31
ATOM     31  O   LIG A   1      -2.401  -1.737 132.644  0.00  0.00    -0.480 OA
ATOM     32  H   LIG A   1      -2.406  -2.066 131.720  0.00  0.00    +0.295 HD
ENDBRANCH  29  31
ENDBRANCH  18  29
BRANCH  21  33
ATOM     33  C   LIG A   1      -5.514  -5.569 134.943  0.00  0.00    +0.311 C 
ATOM     34  O   LIG A   1      -6.659  -5.724 134.570  0.00  0.00    -0.250 OA
BRANCH  33  35
ATOM     35  O   LIG A   1      -4.733  -6.658 135.101  0.00  0.00    -0.480 OA
ATOM     36  H   LIG A   1      -3.879  -6.282 135.403  0.00  0.00    +0.295 HD
ENDBRANCH  33  35
ENDBRANCH  21  33
BRANCH   4  37
ATOM     37  O   LIG A   1      -7.318   1.166 127.373  0.00  0.00    -0.345 OA
BRANCH  37  38
ATOM     38  C   LIG A   1      -8.612   1.387 126.794  0.00  0.00    +0.282 C 
ATOM     39  O   LIG A   1      -8.766   2.692 126.233  0.00  0.00    -0.343 OA
ATOM     40  C   LIG A   1      -8.109   2.964 124.990  0.00  0.00    +0.149 C 
ATOM     41  C   LIG A   1      -6.650   3.347 125.194  0.00  0.00    +0.040 C 
ATOM     42  C   LIG A   1      -8.301   1.858 123.937  0.00  0.00    +0.174 C 
ATOM     43  C   LIG A   1      -8.084   0.449 124.510  0.00  0.00    +0.179 C 
ATOM     44  C   LIG A   1      -8.924   0.261 125.779  0.00  0.00    +0.201 C 
BRANCH  42  45
ATOM     45  O   LIG A   1      -9.641   1.952 123.419  0.00  0.00    -0.387 OA
ATOM     46  H   LIG A   1      -9.680   2.775 122.887  0.00  0.00    +0.210 HD
ENDBRANCH  42  45
BRANCH  43  47
ATOM     47  O   LIG A   1      -6.702   0.173 124.741  0.00  0.00    -0.386 OA
ATOM     48  H   LIG A   1      -6.641  -0.561 125.387  0.00  0.00    +0.210 HD
ENDBRANCH  43  47
BRANCH  44  49
ATOM     49  O   LIG A   1     -10.325   0.271 125.452  0.00  0.00    -0.384 OA
ATOM     50  H   LIG A   1     -10.670  -0.626 125.622  0.00  0.00    +0.210 HD
ENDBRANCH  44  49
ENDBRANCH  37  38
ENDBRANCH   4  37
TORSDOF 9
ENDMDL
MODEL 9
REMARK VINA RESULT:      -7.9      4.563     10.498
REMARK  Name = NuBBE_315
REMARK  16 active torsions:
REMARK  status: ('A' for Active; 'I' for Inactive)
REMARK    1  A    between atoms: C_1  and  C_2
REMARK    2  A    between atoms: C_2  and  C_3
REMARK    3  A    between atoms: C_4  and  O_6
REMARK    4  A    between atoms: O_6  and  C_7
REMARK    5  A    between atoms: C_10  and  C_12
REMARK    6  A    between atoms: C_13  and  O_15
REMARK    7  A    between atoms: C_16  and  O_18
REMARK    8  A    between atoms: C_19  and  O_21
REMARK    9  A    between atoms: C_24  and  C_25
REMARK   10  A    between atoms: C_29  and  C_30
REMARK   11  A    between atoms: C_35  and  C_36
REMARK   12  A    between atoms: C_36  and  O_37
REMARK   13  A    between atoms: C_41  and  C_42
REMARK   14  A    between atoms: C_42  and  O_43
REMARK   15  A    between atoms: C_47  and  C_50
REMARK   16  A    between atoms: C_47  and  C_51
REMARK                            x       y       z     vdW  Elec       q    Type
REMARK                         _______ _______ _______ _____ _____    ______ ____
ROOT
ATOM      1  C   LIG A   1      -5.569  -4.818 135.213  0.00  0.00    +0.014 C 
ATOM      2  C   LIG A   1      -5.594  -3.335 134.754  0.00  0.00    -0.005 C 
ATOM      3  C   LIG A   1      -7.032  -2.860 135.051  0.00  0.00    +0.014 C 
ATOM      4  C   LIG A   1      -4.544  -2.523 135.606  0.00  0.00    +0.127 C 
ATOM      5  C   LIG A   1      -4.425  -1.087 135.083  0.00  0.00    +0.033 C 
ATOM      6  C   LIG A   1      -3.982  -1.046 133.619  0.00  0.00    +0.010 C 
ATOM      7  C   LIG A   1      -4.947  -1.798 132.652  0.00  0.00    -0.025 C 
ATOM      8  C   LIG A   1      -6.222  -0.936 132.555  0.00  0.00    +0.012 C 
ATOM      9  C   LIG A   1      -5.192  -3.245 133.230  0.00  0.00    +0.003 C 
ATOM     10  C   LIG A   1      -6.077  -4.063 132.271  0.00  0.00    +0.005 C 
ATOM     11  C   LIG A   1      -5.425  -4.211 130.890  0.00  0.00    +0.009 C 
ATOM     12  C   LIG A   1      -4.998  -2.897 130.167  0.00  0.00    -0.009 C 
ATOM     13  C   LIG A   1      -3.896  -3.376 129.153  0.00  0.00    +0.013 C 
ATOM     14  C   LIG A   1      -4.246  -1.992 131.232  0.00  0.00    +0.006 C 
ATOM     15  C   LIG A   1      -3.729  -0.708 130.571  0.00  0.00    +0.031 C 
ATOM     16  C   LIG A   1      -4.745  -0.019 129.737  0.00  0.00    -0.026 C 
ATOM     17  C   LIG A   1      -5.854  -0.578 129.213  0.00  0.00    -0.052 C 
ATOM     18  C   LIG A   1      -6.170  -2.100 129.330  0.00  0.00    +0.094 C 
ATOM     19  C   LIG A   1      -6.296  -2.584 127.835  0.00  0.00    +0.024 C 
ATOM     20  C   LIG A   1      -7.302  -1.781 126.978  0.00  0.00    +0.020 C 
ATOM     21  C   LIG A   1      -7.020  -0.258 126.953  0.00  0.00    +0.074 C 
ATOM     22  C   LIG A   1      -6.846   0.267 128.399  0.00  0.00    +0.033 C 
ATOM     23  C   LIG A   1      -6.628   1.801 128.421  0.00  0.00    +0.015 C 
ATOM     24  C   LIG A   1      -7.764   2.598 127.740  0.00  0.00    -0.034 C 
ATOM     25  C   LIG A   1      -8.072   2.015 126.344  0.00  0.00    +0.007 C 
ATOM     26  C   LIG A   1      -8.232   0.488 126.329  0.00  0.00    +0.019 C 
ATOM     27  C   LIG A   1      -9.034   2.596 128.615  0.00  0.00    +0.011 C 
ATOM     28  C   LIG A   1      -7.307   4.063 127.587  0.00  0.00    +0.011 C 
ENDROOT
BRANCH  18  29
ATOM     29  C   LIG A   1      -7.597  -2.345 129.915  0.00  0.00    +0.316 C 
ATOM     30  O   LIG A   1      -8.265  -1.607 130.623  0.00  0.00    -0.250 OA
BRANCH  29  31
ATOM     31  O   LIG A   1      -8.181  -3.487 129.494  0.00  0.00    -0.480 OA
ATOM     32  H   LIG A   1      -8.088  -3.448 128.518  0.00  0.00    +0.295 HD
ENDBRANCH  29  31
ENDBRANCH  18  29
BRANCH  21  33
ATOM     33  C   LIG A   1      -5.753  -0.026 126.108  0.00  0.00    +0.311 C 
ATOM     34  O   LIG A   1      -4.861   0.772 126.312  0.00  0.00    -0.250 OA
BRANCH  33  35
ATOM     35  O   LIG A   1      -5.638  -0.870 125.060  0.00  0.00    -0.480 OA
ATOM     36  H   LIG A   1      -4.886  -1.445 125.315  0.00  0.00    +0.295 HD
ENDBRANCH  33  35
ENDBRANCH  21  33
BRANCH   4  37
ATOM     37  O   LIG A   1      -3.279  -3.225 135.572  0.00  0.00    -0.345 OA
BRANCH  37  38
ATOM     38  C   LIG A   1      -2.237  -2.677 136.391  0.00  0.00    +0.282 C 
ATOM     39  O   LIG A   1      -1.857  -3.531 137.471  0.00  0.00    -0.343 OA
ATOM     40  C   LIG A   1      -1.071  -4.688 137.160  0.00  0.00    +0.149 C 
ATOM     41  C   LIG A   1      -1.937  -5.850 136.693  0.00  0.00    +0.040 C 
ATOM     42  C   LIG A   1       0.107  -4.396 136.214  0.00  0.00    +0.174 C 
ATOM     43  C   LIG A   1      -0.296  -3.524 135.015  0.00  0.00    +0.179 C 
ATOM     44  C   LIG A   1      -1.038  -2.272 135.500  0.00  0.00    +0.201 C 
BRANCH  42  45
ATOM     45  O   LIG A   1       1.133  -3.718 136.963  0.00  0.00    -0.387 OA
ATOM     46  H   LIG A   1       0.677  -3.077 137.548  0.00  0.00    +0.210 HD
ENDBRANCH  42  45
BRANCH  43  47
ATOM     47  O   LIG A   1      -1.059  -4.254 134.054  0.00  0.00    -0.386 OA
ATOM     48  H   LIG A   1      -1.680  -3.634 133.620  0.00  0.00    +0.210 HD
ENDBRANCH  43  47
BRANCH  44  49
ATOM     49  O   LIG A   1      -0.144  -1.422 136.240  0.00  0.00    -0.384 OA
ATOM     50  H   LIG A   1      -0.362  -1.524 137.186  0.00  0.00    +0.210 HD
ENDBRANCH  44  49
ENDBRANCH  37  38
ENDBRANCH   4  37
TORSDOF 9
ENDMDL
