MODEL 1
REMARK VINA RESULT:      -7.1      0.000      0.000
REMARK  Name = NuBBE_2413
REMARK  5 active torsions:
REMARK  status: ('A' for Active; 'I' for Inactive)
REMARK    1  A    between atoms: O_1  and  C_2
REMARK    2  A    between atoms: C_3  and  C_10
REMARK    3  A    between atoms: C_6  and  O_8
REMARK    4  A    between atoms: O_8  and  C_9
REMARK    5  A    between atoms: C_18  and  O_21
REMARK                            x       y       z     vdW  Elec       q    Type
REMARK                         _______ _______ _______ _____ _____    ______ ____
ROOT
ATOM      1  C   LIG A   1     -10.195   5.772 130.276  0.00  0.00    +0.064 C 
ATOM      2  C   LIG A   1      -9.435   5.989 131.588  0.00  0.00    +0.050 C 
ATOM      3  C   LIG A   1      -8.890   4.697 132.128  0.00  0.00    -0.005 A 
ATOM      4  C   LIG A   1      -9.250   3.463 131.571  0.00  0.00    +0.127 A 
ATOM      5  O   LIG A   1     -10.082   3.337 130.490  0.00  0.00    -0.491 OA
ATOM      6  C   LIG A   1     -10.966   4.453 130.323  0.00  0.00    +0.237 C 
ATOM      7  C   LIG A   1      -8.744   2.274 132.092  0.00  0.00    +0.091 A 
ATOM      8  C   LIG A   1      -7.905   2.318 133.200  0.00  0.00    +0.120 A 
ATOM      9  C   LIG A   1      -7.548   3.531 133.777  0.00  0.00    +0.046 A 
ATOM     10  C   LIG A   1      -8.036   4.721 133.239  0.00  0.00    +0.011 A 
ENDROOT
BRANCH   1  12
ATOM     11  C   LIG A   1     -10.965   7.659 128.702  0.00  0.00    +0.124 A 
ATOM     12  C   LIG A   1     -11.077   6.946 129.901  0.00  0.00    +0.001 A 
ATOM     13  C   LIG A   1     -12.052   7.349 130.821  0.00  0.00    +0.011 A 
ATOM     14  C   LIG A   1     -12.886   8.429 130.544  0.00  0.00    +0.046 A 
ATOM     15  C   LIG A   1     -12.777   9.125 129.341  0.00  0.00    +0.124 A 
ATOM     16  C   LIG A   1     -11.808   8.738 128.412  0.00  0.00    +0.091 A 
BRANCH  11  17
ATOM     17  O   LIG A   1     -10.004   7.290 127.801  0.00  0.00    -0.506 OA
ATOM     18  H   LIG A   1     -10.361   6.611 127.209  0.00  0.00    +0.292 HD
ENDBRANCH  11  17
BRANCH  15  19
ATOM     19  O   LIG A   1     -13.564  10.192 128.992  0.00  0.00    -0.495 OA
ATOM     20  C   LIG A   1     -13.644  11.232 129.964  0.00  0.00    +0.277 C 
ENDBRANCH  15  19
ENDBRANCH   1  12
BRANCH   8  21
ATOM     21  O   LIG A   1      -7.414   1.178 133.764  0.00  0.00    -0.507 OA
ATOM     22  H   LIG A   1      -6.761   0.794 133.155  0.00  0.00    +0.292 HD
ENDBRANCH   8  21
TORSDOF 4
ENDMDL
MODEL 2
REMARK VINA RESULT:      -7.1      8.654     11.452
REMARK  Name = NuBBE_2413
REMARK  5 active torsions:
REMARK  status: ('A' for Active; 'I' for Inactive)
REMARK    1  A    between atoms: O_1  and  C_2
REMARK    2  A    between atoms: C_3  and  C_10
REMARK    3  A    between atoms: C_6  and  O_8
REMARK    4  A    between atoms: O_8  and  C_9
REMARK    5  A    between atoms: C_18  and  O_21
REMARK                            x       y       z     vdW  Elec       q    Type
REMARK                         _______ _______ _______ _____ _____    ______ ____
ROOT
ATOM      1  C   LIG A   1      -8.246   2.647 122.885  0.00  0.00    +0.064 C 
ATOM      2  C   LIG A   1      -6.753   2.890 122.639  0.00  0.00    +0.050 C 
ATOM      3  C   LIG A   1      -6.526   3.712 121.402  0.00  0.00    -0.005 A 
ATOM      4  C   LIG A   1      -7.572   4.002 120.516  0.00  0.00    +0.127 A 
ATOM      5  O   LIG A   1      -8.866   3.599 120.718  0.00  0.00    -0.491 OA
ATOM      6  C   LIG A   1      -8.973   2.441 121.557  0.00  0.00    +0.237 C 
ATOM      7  C   LIG A   1      -7.340   4.756 119.367  0.00  0.00    +0.091 A 
ATOM      8  C   LIG A   1      -6.050   5.189 119.085  0.00  0.00    +0.120 A 
ATOM      9  C   LIG A   1      -4.996   4.899 119.943  0.00  0.00    +0.046 A 
ATOM     10  C   LIG A   1      -5.234   4.164 121.104  0.00  0.00    +0.011 A 
ENDROOT
BRANCH   1  12
ATOM     11  C   LIG A   1      -8.813   1.724 125.221  0.00  0.00    +0.124 A 
ATOM     12  C   LIG A   1      -8.509   1.525 123.869  0.00  0.00    +0.001 A 
ATOM     13  C   LIG A   1      -8.425   0.210 123.397  0.00  0.00    +0.011 A 
ATOM     14  C   LIG A   1      -8.643  -0.867 124.254  0.00  0.00    +0.046 A 
ATOM     15  C   LIG A   1      -8.958  -0.659 125.595  0.00  0.00    +0.124 A 
ATOM     16  C   LIG A   1      -9.043   0.647 126.084  0.00  0.00    +0.091 A 
BRANCH  11  17
ATOM     17  O   LIG A   1      -8.877   3.002 125.702  0.00  0.00    -0.506 OA
ATOM     18  H   LIG A   1      -9.479   3.525 125.150  0.00  0.00    +0.292 HD
ENDBRANCH  11  17
BRANCH  15  19
ATOM     19  O   LIG A   1      -9.193  -1.664 126.498  0.00  0.00    -0.495 OA
ATOM     20  C   LIG A   1      -9.240  -2.979 125.945  0.00  0.00    +0.277 C 
ENDBRANCH  15  19
ENDBRANCH   1  12
BRANCH   8  21
ATOM     21  O   LIG A   1      -5.771   5.899 117.955  0.00  0.00    -0.507 OA
ATOM     22  H   LIG A   1      -6.027   5.363 117.186  0.00  0.00    +0.292 HD
ENDBRANCH   8  21
TORSDOF 4
ENDMDL
MODEL 3
REMARK VINA RESULT:      -6.9      1.131      7.285
REMARK  Name = NuBBE_2413
REMARK  5 active torsions:
REMARK  status: ('A' for Active; 'I' for Inactive)
REMARK    1  A    between atoms: O_1  and  C_2
REMARK    2  A    between atoms: C_3  and  C_10
REMARK    3  A    between atoms: C_6  and  O_8
REMARK    4  A    between atoms: O_8  and  C_9
REMARK    5  A    between atoms: C_18  and  O_21
REMARK                            x       y       z     vdW  Elec       q    Type
REMARK                         _______ _______ _______ _____ _____    ______ ____
ROOT
ATOM      1  C   LIG A   1     -10.483   4.824 130.343  0.00  0.00    +0.064 C 
ATOM      2  C   LIG A   1     -11.348   5.689 131.265  0.00  0.00    +0.050 C 
ATOM      3  C   LIG A   1     -11.829   6.928 130.563  0.00  0.00    -0.005 A 
ATOM      4  C   LIG A   1     -11.337   7.291 129.303  0.00  0.00    +0.127 A 
ATOM      5  O   LIG A   1     -10.423   6.545 128.606  0.00  0.00    -0.491 OA
ATOM      6  C   LIG A   1      -9.618   5.707 129.445  0.00  0.00    +0.237 C 
ATOM      7  C   LIG A   1     -11.786   8.450 128.672  0.00  0.00    +0.091 A 
ATOM      8  C   LIG A   1     -12.702   9.269 129.323  0.00  0.00    +0.120 A 
ATOM      9  C   LIG A   1     -13.191   8.935 130.580  0.00  0.00    +0.046 A 
ATOM     10  C   LIG A   1     -12.758   7.762 131.199  0.00  0.00    +0.011 A 
ENDROOT
BRANCH   1  12
ATOM     11  C   LIG A   1      -9.100   2.657 130.500  0.00  0.00    +0.124 A 
ATOM     12  C   LIG A   1      -9.670   3.789 131.095  0.00  0.00    +0.001 A 
ATOM     13  C   LIG A   1      -9.493   3.972 132.472  0.00  0.00    +0.011 A 
ATOM     14  C   LIG A   1      -8.768   3.051 133.223  0.00  0.00    +0.046 A 
ATOM     15  C   LIG A   1      -8.192   1.934 132.620  0.00  0.00    +0.124 A 
ATOM     16  C   LIG A   1      -8.360   1.734 131.248  0.00  0.00    +0.091 A 
BRANCH  11  17
ATOM     17  O   LIG A   1      -9.280   2.453 129.160  0.00  0.00    -0.506 OA
ATOM     18  H   LIG A   1      -9.668   3.248 128.762  0.00  0.00    +0.292 HD
ENDBRANCH  11  17
BRANCH  15  19
ATOM     19  O   LIG A   1      -7.459   0.988 133.289  0.00  0.00    -0.495 OA
ATOM     20  C   LIG A   1      -6.333   1.487 134.009  0.00  0.00    +0.277 C 
ENDBRANCH  15  19
ENDBRANCH   1  12
BRANCH   8  21
ATOM     21  O   LIG A   1     -13.142  10.429 128.759  0.00  0.00    -0.507 OA
ATOM     22  H   LIG A   1     -12.397  10.844 128.293  0.00  0.00    +0.292 HD
ENDBRANCH   8  21
TORSDOF 4
ENDMDL
MODEL 4
REMARK VINA RESULT:      -6.8      1.707      7.480
REMARK  Name = NuBBE_2413
REMARK  5 active torsions:
REMARK  status: ('A' for Active; 'I' for Inactive)
REMARK    1  A    between atoms: O_1  and  C_2
REMARK    2  A    between atoms: C_3  and  C_10
REMARK    3  A    between atoms: C_6  and  O_8
REMARK    4  A    between atoms: O_8  and  C_9
REMARK    5  A    between atoms: C_18  and  O_21
REMARK                            x       y       z     vdW  Elec       q    Type
REMARK                         _______ _______ _______ _____ _____    ______ ____
ROOT
ATOM      1  C   LIG A   1      -9.968   6.059 131.945  0.00  0.00    +0.064 C 
ATOM      2  C   LIG A   1      -9.670   6.369 130.475  0.00  0.00    +0.050 C 
ATOM      3  C   LIG A   1     -10.692   7.304 129.893  0.00  0.00    -0.005 A 
ATOM      4  C   LIG A   1     -11.858   7.639 130.592  0.00  0.00    +0.127 A 
ATOM      5  O   LIG A   1     -12.141   7.180 131.852  0.00  0.00    -0.491 OA
ATOM      6  C   LIG A   1     -11.476   5.950 132.168  0.00  0.00    +0.237 C 
ATOM      7  C   LIG A   1     -12.801   8.499 130.031  0.00  0.00    +0.091 A 
ATOM      8  C   LIG A   1     -12.593   8.995 128.749  0.00  0.00    +0.120 A 
ATOM      9  C   LIG A   1     -11.450   8.663 128.032  0.00  0.00    +0.046 A 
ATOM     10  C   LIG A   1     -10.497   7.821 128.604  0.00  0.00    +0.011 A 
ENDROOT
BRANCH   1  12
ATOM     11  C   LIG A   1      -8.532   4.808 133.679  0.00  0.00    +0.124 A 
ATOM     12  C   LIG A   1      -9.217   4.847 132.459  0.00  0.00    +0.001 A 
ATOM     13  C   LIG A   1      -9.195   3.703 131.652  0.00  0.00    +0.011 A 
ATOM     14  C   LIG A   1      -8.512   2.560 132.059  0.00  0.00    +0.046 A 
ATOM     15  C   LIG A   1      -7.844   2.526 133.282  0.00  0.00    +0.124 A 
ATOM     16  C   LIG A   1      -7.853   3.659 134.099  0.00  0.00    +0.091 A 
BRANCH  11  17
ATOM     17  O   LIG A   1      -8.527   5.924 134.469  0.00  0.00    -0.506 OA
ATOM     18  H   LIG A   1      -7.668   6.368 134.395  0.00  0.00    +0.292 HD
ENDBRANCH  11  17
BRANCH  15  19
ATOM     19  O   LIG A   1      -7.156   1.438 133.756  0.00  0.00    -0.495 OA
ATOM     20  C   LIG A   1      -5.946   1.738 134.448  0.00  0.00    +0.277 C 
ENDBRANCH  15  19
ENDBRANCH   1  12
BRANCH   8  21
ATOM     21  O   LIG A   1     -13.505   9.811 128.148  0.00  0.00    -0.507 OA
ATOM     22  H   LIG A   1     -14.331   9.773 128.659  0.00  0.00    +0.292 HD
ENDBRANCH   8  21
TORSDOF 4
ENDMDL
MODEL 5
REMARK VINA RESULT:      -6.8      2.702      7.220
REMARK  Name = NuBBE_2413
REMARK  5 active torsions:
REMARK  status: ('A' for Active; 'I' for Inactive)
REMARK    1  A    between atoms: O_1  and  C_2
REMARK    2  A    between atoms: C_3  and  C_10
REMARK    3  A    between atoms: C_6  and  O_8
REMARK    4  A    between atoms: O_8  and  C_9
REMARK    5  A    between atoms: C_18  and  O_21
REMARK                            x       y       z     vdW  Elec       q    Type
REMARK                         _______ _______ _______ _____ _____    ______ ____
ROOT
ATOM      1  C   LIG A   1      -9.152   6.466 131.595  0.00  0.00    +0.064 C 
ATOM      2  C   LIG A   1      -9.070   7.347 130.344  0.00  0.00    +0.050 C 
ATOM      3  C   LIG A   1     -10.359   7.329 129.574  0.00  0.00    -0.005 A 
ATOM      4  C   LIG A   1     -11.389   6.435 129.894  0.00  0.00    +0.127 A 
ATOM      5  O   LIG A   1     -11.321   5.547 130.935  0.00  0.00    -0.491 OA
ATOM      6  C   LIG A   1      -9.978   5.213 131.306  0.00  0.00    +0.237 C 
ATOM      7  C   LIG A   1     -12.575   6.426 129.160  0.00  0.00    +0.091 A 
ATOM      8  C   LIG A   1     -12.714   7.287 128.078  0.00  0.00    +0.120 A 
ATOM      9  C   LIG A   1     -11.698   8.171 127.735  0.00  0.00    +0.046 A 
ATOM     10  C   LIG A   1     -10.522   8.196 128.484  0.00  0.00    +0.011 A 
ENDROOT
BRANCH   1  12
ATOM     11  C   LIG A   1      -7.585   5.756 133.511  0.00  0.00    +0.124 A 
ATOM     12  C   LIG A   1      -7.793   6.142 132.182  0.00  0.00    +0.001 A 
ATOM     13  C   LIG A   1      -6.677   6.253 131.343  0.00  0.00    +0.011 A 
ATOM     14  C   LIG A   1      -5.399   5.983 131.824  0.00  0.00    +0.046 A 
ATOM     15  C   LIG A   1      -5.203   5.586 133.146  0.00  0.00    +0.124 A 
ATOM     16  C   LIG A   1      -6.304   5.472 133.997  0.00  0.00    +0.091 A 
BRANCH  11  17
ATOM     17  O   LIG A   1      -8.662   5.663 134.348  0.00  0.00    -0.506 OA
ATOM     18  H   LIG A   1      -9.141   6.506 134.353  0.00  0.00    +0.292 HD
ENDBRANCH  11  17
BRANCH  15  19
ATOM     19  O   LIG A   1      -3.978   5.295 133.691  0.00  0.00    -0.495 OA
ATOM     20  C   LIG A   1      -2.878   6.007 133.128  0.00  0.00    +0.277 C 
ENDBRANCH  15  19
ENDBRANCH   1  12
BRANCH   8  21
ATOM     21  O   LIG A   1     -13.842   7.288 127.312  0.00  0.00    -0.507 OA
ATOM     22  H   LIG A   1     -14.158   6.373 127.235  0.00  0.00    +0.292 HD
ENDBRANCH   8  21
TORSDOF 4
ENDMDL
MODEL 6
REMARK VINA RESULT:      -6.7      8.280     10.937
REMARK  Name = NuBBE_2413
REMARK  5 active torsions:
REMARK  status: ('A' for Active; 'I' for Inactive)
REMARK    1  A    between atoms: O_1  and  C_2
REMARK    2  A    between atoms: C_3  and  C_10
REMARK    3  A    between atoms: C_6  and  O_8
REMARK    4  A    between atoms: O_8  and  C_9
REMARK    5  A    between atoms: C_18  and  O_21
REMARK                            x       y       z     vdW  Elec       q    Type
REMARK                         _______ _______ _______ _____ _____    ______ ____
ROOT
ATOM      1  C   LIG A   1      -6.359   2.965 123.235  0.00  0.00    +0.064 C 
ATOM      2  C   LIG A   1      -7.443   3.128 122.165  0.00  0.00    +0.050 C 
ATOM      3  C   LIG A   1      -6.930   3.890 120.976  0.00  0.00    -0.005 A 
ATOM      4  C   LIG A   1      -5.682   4.525 120.997  0.00  0.00    +0.127 A 
ATOM      5  O   LIG A   1      -4.830   4.477 122.068  0.00  0.00    -0.491 OA
ATOM      6  C   LIG A   1      -5.497   4.224 123.312  0.00  0.00    +0.237 C 
ATOM      7  C   LIG A   1      -5.228   5.237 119.888  0.00  0.00    +0.091 A 
ATOM      8  C   LIG A   1      -6.044   5.345 118.767  0.00  0.00    +0.120 A 
ATOM      9  C   LIG A   1      -7.292   4.735 118.731  0.00  0.00    +0.046 A 
ATOM     10  C   LIG A   1      -7.734   4.003 119.833  0.00  0.00    +0.011 A 
ENDROOT
BRANCH   1  12
ATOM     11  C   LIG A   1      -7.281   1.251 124.922  0.00  0.00    +0.124 A 
ATOM     12  C   LIG A   1      -6.915   2.560 124.585  0.00  0.00    +0.001 A 
ATOM     13  C   LIG A   1      -7.089   3.563 125.546  0.00  0.00    +0.011 A 
ATOM     14  C   LIG A   1      -7.608   3.260 126.802  0.00  0.00    +0.046 A 
ATOM     15  C   LIG A   1      -7.957   1.951 127.134  0.00  0.00    +0.124 A 
ATOM     16  C   LIG A   1      -7.793   0.938 126.185  0.00  0.00    +0.091 A 
BRANCH  11  17
ATOM     17  O   LIG A   1      -7.137   0.264 123.987  0.00  0.00    -0.506 OA
ATOM     18  H   LIG A   1      -7.888   0.287 123.374  0.00  0.00    +0.292 HD
ENDBRANCH  11  17
BRANCH  15  19
ATOM     19  O   LIG A   1      -8.466   1.572 128.349  0.00  0.00    -0.495 OA
ATOM     20  C   LIG A   1      -8.854   2.644 129.207  0.00  0.00    +0.277 C 
ENDBRANCH  15  19
ENDBRANCH   1  12
BRANCH   8  21
ATOM     21  O   LIG A   1      -5.655   6.060 117.673  0.00  0.00    -0.507 OA
ATOM     22  H   LIG A   1      -6.448   6.284 117.158  0.00  0.00    +0.292 HD
ENDBRANCH   8  21
TORSDOF 4
ENDMDL
MODEL 7
REMARK VINA RESULT:      -6.7      1.911      2.657
REMARK  Name = NuBBE_2413
REMARK  5 active torsions:
REMARK  status: ('A' for Active; 'I' for Inactive)
REMARK    1  A    between atoms: O_1  and  C_2
REMARK    2  A    between atoms: C_3  and  C_10
REMARK    3  A    between atoms: C_6  and  O_8
REMARK    4  A    between atoms: O_8  and  C_9
REMARK    5  A    between atoms: C_18  and  O_21
REMARK                            x       y       z     vdW  Elec       q    Type
REMARK                         _______ _______ _______ _____ _____    ______ ____
ROOT
ATOM      1  C   LIG A   1      -9.741   5.800 130.903  0.00  0.00    +0.064 C 
ATOM      2  C   LIG A   1      -9.978   4.412 130.299  0.00  0.00    +0.050 C 
ATOM      3  C   LIG A   1      -8.805   3.503 130.534  0.00  0.00    -0.005 A 
ATOM      4  C   LIG A   1      -7.598   3.987 131.054  0.00  0.00    +0.127 A 
ATOM      5  O   LIG A   1      -7.403   5.294 131.416  0.00  0.00    -0.491 OA
ATOM      6  C   LIG A   1      -8.277   6.205 130.738  0.00  0.00    +0.237 C 
ATOM      7  C   LIG A   1      -6.517   3.131 131.254  0.00  0.00    +0.091 A 
ATOM      8  C   LIG A   1      -6.632   1.792 130.897  0.00  0.00    +0.120 A 
ATOM      9  C   LIG A   1      -7.816   1.295 130.365  0.00  0.00    +0.046 A 
ATOM     10  C   LIG A   1      -8.904   2.148 130.187  0.00  0.00    +0.011 A 
ENDROOT
BRANCH   1  12
ATOM     11  C   LIG A   1     -11.963   7.101 130.911  0.00  0.00    +0.124 A 
ATOM     12  C   LIG A   1     -10.697   6.848 130.370  0.00  0.00    +0.001 A 
ATOM     13  C   LIG A   1     -10.291   7.596 129.259  0.00  0.00    +0.011 A 
ATOM     14  C   LIG A   1     -11.128   8.567 128.713  0.00  0.00    +0.046 A 
ATOM     15  C   LIG A   1     -12.381   8.821 129.266  0.00  0.00    +0.124 A 
ATOM     16  C   LIG A   1     -12.804   8.082 130.373  0.00  0.00    +0.091 A 
BRANCH  11  17
ATOM     17  O   LIG A   1     -12.383   6.364 131.983  0.00  0.00    -0.506 OA
ATOM     18  H   LIG A   1     -13.114   5.787 131.713  0.00  0.00    +0.292 HD
ENDBRANCH  11  17
BRANCH  15  19
ATOM     19  O   LIG A   1     -13.258   9.763 128.791  0.00  0.00    -0.495 OA
ATOM     20  C   LIG A   1     -13.558  10.825 129.694  0.00  0.00    +0.277 C 
ENDBRANCH  15  19
ENDBRANCH   1  12
BRANCH   8  21
ATOM     21  O   LIG A   1      -5.589   0.926 131.043  0.00  0.00    -0.507 OA
ATOM     22  H   LIG A   1      -5.940   0.020 131.020  0.00  0.00    +0.292 HD
ENDBRANCH   8  21
TORSDOF 4
ENDMDL
MODEL 8
REMARK VINA RESULT:      -6.6      2.004      7.517
REMARK  Name = NuBBE_2413
REMARK  5 active torsions:
REMARK  status: ('A' for Active; 'I' for Inactive)
REMARK    1  A    between atoms: O_1  and  C_2
REMARK    2  A    between atoms: C_3  and  C_10
REMARK    3  A    between atoms: C_6  and  O_8
REMARK    4  A    between atoms: O_8  and  C_9
REMARK    5  A    between atoms: C_18  and  O_21
REMARK                            x       y       z     vdW  Elec       q    Type
REMARK                         _______ _______ _______ _____ _____    ______ ____
ROOT
ATOM      1  C   LIG A   1      -8.530   5.564 131.873  0.00  0.00    +0.064 C 
ATOM      2  C   LIG A   1      -9.980   5.908 132.230  0.00  0.00    +0.050 C 
ATOM      3  C   LIG A   1     -10.629   6.733 131.155  0.00  0.00    -0.005 A 
ATOM      4  C   LIG A   1      -9.886   7.265 130.094  0.00  0.00    +0.127 A 
ATOM      5  O   LIG A   1      -8.543   7.053 129.932  0.00  0.00    -0.491 OA
ATOM      6  C   LIG A   1      -7.868   6.741 131.158  0.00  0.00    +0.237 C 
ATOM      7  C   LIG A   1     -10.504   8.037 129.112  0.00  0.00    +0.091 A 
ATOM      8  C   LIG A   1     -11.864   8.310 129.214  0.00  0.00    +0.120 A 
ATOM      9  C   LIG A   1     -12.616   7.804 130.268  0.00  0.00    +0.046 A 
ATOM     10  C   LIG A   1     -12.000   7.012 131.236  0.00  0.00    +0.011 A 
ENDROOT
BRANCH   1  12
ATOM     11  C   LIG A   1      -6.758   4.073 132.999  0.00  0.00    +0.124 A 
ATOM     12  C   LIG A   1      -7.726   5.082 133.064  0.00  0.00    +0.001 A 
ATOM     13  C   LIG A   1      -7.981   5.675 134.306  0.00  0.00    +0.011 A 
ATOM     14  C   LIG A   1      -7.286   5.269 135.442  0.00  0.00    +0.046 A 
ATOM     15  C   LIG A   1      -6.314   4.272 135.366  0.00  0.00    +0.124 A 
ATOM     16  C   LIG A   1      -6.048   3.668 134.135  0.00  0.00    +0.091 A 
BRANCH  11  17
ATOM     17  O   LIG A   1      -6.511   3.470 131.797  0.00  0.00    -0.506 OA
ATOM     18  H   LIG A   1      -5.609   3.678 131.510  0.00  0.00    +0.292 HD
ENDBRANCH  11  17
BRANCH  15  19
ATOM     19  O   LIG A   1      -5.583   3.823 136.436  0.00  0.00    -0.495 OA
ATOM     20  C   LIG A   1      -4.305   3.279 136.114  0.00  0.00    +0.277 C 
ENDBRANCH  15  19
ENDBRANCH   1  12
BRANCH   8  21
ATOM     21  O   LIG A   1     -12.502   9.089 128.295  0.00  0.00    -0.507 OA
ATOM     22  H   LIG A   1     -11.993   9.910 128.185  0.00  0.00    +0.292 HD
ENDBRANCH   8  21
TORSDOF 4
ENDMDL
MODEL 9
REMARK VINA RESULT:      -6.6      8.687     11.276
REMARK  Name = NuBBE_2413
REMARK  5 active torsions:
REMARK  status: ('A' for Active; 'I' for Inactive)
REMARK    1  A    between atoms: O_1  and  C_2
REMARK    2  A    between atoms: C_3  and  C_10
REMARK    3  A    between atoms: C_6  and  O_8
REMARK    4  A    between atoms: O_8  and  C_9
REMARK    5  A    between atoms: C_18  and  O_21
REMARK                            x       y       z     vdW  Elec       q    Type
REMARK                         _______ _______ _______ _____ _____    ______ ____
ROOT
ATOM      1  C   LIG A   1      -7.035  -2.849 128.478  0.00  0.00    +0.064 C 
ATOM      2  C   LIG A   1      -8.386  -2.997 127.770  0.00  0.00    +0.050 C 
ATOM      3  C   LIG A   1      -8.250  -2.826 126.284  0.00  0.00    -0.005 A 
ATOM      4  C   LIG A   1      -7.055  -2.378 125.707  0.00  0.00    +0.127 A 
ATOM      5  O   LIG A   1      -5.926  -2.099 126.430  0.00  0.00    -0.491 OA
ATOM      6  C   LIG A   1      -6.198  -1.766 127.798  0.00  0.00    +0.237 C 
ATOM      7  C   LIG A   1      -6.951  -2.215 124.326  0.00  0.00    +0.091 A 
ATOM      8  C   LIG A   1      -8.060  -2.464 123.525  0.00  0.00    +0.120 A 
ATOM      9  C   LIG A   1      -9.259  -2.895 124.079  0.00  0.00    +0.046 A 
ATOM     10  C   LIG A   1      -9.354  -3.080 125.458  0.00  0.00    +0.011 A 
ENDROOT
BRANCH   1  12
ATOM     11  C   LIG A   1      -6.660  -3.495 130.942  0.00  0.00    +0.124 A 
ATOM     12  C   LIG A   1      -7.170  -2.626 129.970  0.00  0.00    +0.001 A 
ATOM     13  C   LIG A   1      -7.862  -1.487 130.400  0.00  0.00    +0.011 A 
ATOM     14  C   LIG A   1      -8.032  -1.231 131.758  0.00  0.00    +0.046 A 
ATOM     15  C   LIG A   1      -7.509  -2.095 132.719  0.00  0.00    +0.124 A 
ATOM     16  C   LIG A   1      -6.818  -3.238 132.308  0.00  0.00    +0.091 A 
BRANCH  11  17
ATOM     17  O   LIG A   1      -5.999  -4.623 130.538  0.00  0.00    -0.506 OA
ATOM     18  H   LIG A   1      -5.056  -4.535 130.742  0.00  0.00    +0.292 HD
ENDBRANCH  11  17
BRANCH  15  19
ATOM     19  O   LIG A   1      -7.628  -1.908 134.072  0.00  0.00    -0.495 OA
ATOM     20  C   LIG A   1      -7.720  -3.103 134.845  0.00  0.00    +0.277 C 
ENDBRANCH  15  19
ENDBRANCH   1  12
BRANCH   8  21
ATOM     21  O   LIG A   1      -8.013  -2.285 122.174  0.00  0.00    -0.507 OA
ATOM     22  H   LIG A   1      -7.426  -1.533 121.987  0.00  0.00    +0.292 HD
ENDBRANCH   8  21
TORSDOF 4
ENDMDL
