MODEL 1
REMARK VINA RESULT:      -5.9      0.000      0.000
REMARK  Name = NuBBE_173
REMARK  17 active torsions:
REMARK  status: ('A' for Active; 'I' for Inactive)
REMARK    1  A    between atoms: O_1  and  C_2
REMARK    2  A    between atoms: C_4  and  C_6
REMARK    3  A    between atoms: C_9  and  C_11
REMARK    4  A    between atoms: C_11  and  C_12
REMARK    5  A    between atoms: C_12  and  C_13
REMARK    6  A    between atoms: C_13  and  C_14
REMARK    7  A    between atoms: C_14  and  C_15
REMARK    8  A    between atoms: C_15  and  C_16
REMARK    9  A    between atoms: C_16  and  C_17
REMARK   10  A    between atoms: C_17  and  C_18
REMARK   11  A    between atoms: C_18  and  C_19
REMARK   12  A    between atoms: C_19  and  C_20
REMARK   13  A    between atoms: C_20  and  C_21
REMARK   14  A    between atoms: C_21  and  C_22
REMARK   15  A    between atoms: C_22  and  C_23
REMARK   16  A    between atoms: C_23  and  C_24
REMARK   17  A    between atoms: N_25  and  O_26
REMARK                            x       y       z     vdW  Elec       q    Type
REMARK                         _______ _______ _______ _____ _____    ______ ____
ROOT
ATOM      1  C   LIG A   1      -9.031  -2.831 126.388  0.00  0.00    -0.000 C 
ENDROOT
BRANCH   1   2
ATOM      2  C   LIG A   1      -9.071  -3.942 127.446  0.00  0.00    +0.000 C 
BRANCH   2   3
ATOM      3  C   LIG A   1      -8.600  -3.491 128.815  0.00  0.00    +0.002 C 
BRANCH   3   4
ATOM      4  C   LIG A   1      -7.822  -2.197 128.735  0.00  0.00    +0.019 C 
BRANCH   4  10
ATOM      5  C   LIG A   1      -4.871  -3.943 131.147  0.00  0.00    +0.131 C 
ATOM      6  C   LIG A   1      -4.417  -3.080 129.953  0.00  0.00    +0.079 C 
ATOM      7  C   LIG A   1      -3.304  -3.761 129.160  0.00  0.00    +0.026 C 
ATOM      8  N   LIG A   1      -5.569  -2.881 129.065  0.00  0.00    -0.308 NA
ATOM      9  H   LIG A   1      -5.280  -2.375 128.226  0.00  0.00    +0.122 HD
ATOM     10  C   LIG A   1      -6.656  -2.145 129.724  0.00  0.00    +0.054 C 
ATOM     11  C   LIG A   1      -7.081  -2.748 131.080  0.00  0.00    +0.021 C 
ATOM     12  C   LIG A   1      -5.911  -3.176 131.957  0.00  0.00    +0.034 C 
BRANCH   5  13
ATOM     13  O   LIG A   1      -5.462  -5.157 130.665  0.00  0.00    -0.390 OA
ATOM     14  H   LIG A   1      -4.998  -5.338 129.820  0.00  0.00    +0.210 HD
ENDBRANCH   5  13
ENDBRANCH   4  10
ENDBRANCH   3   4
ENDBRANCH   2   3
ENDBRANCH   1   2
BRANCH   1  15
ATOM     15  C   LIG A   1      -8.974  -3.278 124.920  0.00  0.00    -0.000 C 
BRANCH  15  16
ATOM     16  C   LIG A   1      -7.641  -3.865 124.421  0.00  0.00    -0.000 C 
BRANCH  16  17
ATOM     17  C   LIG A   1      -6.580  -2.820 124.103  0.00  0.00    -0.000 C 
BRANCH  17  18
ATOM     18  C   LIG A   1      -5.531  -2.543 125.169  0.00  0.00    -0.000 C 
BRANCH  18  19
ATOM     19  C   LIG A   1      -5.775  -1.167 125.832  0.00  0.00    +0.000 C 
BRANCH  19  20
ATOM     20  C   LIG A   1      -6.338  -0.078 124.892  0.00  0.00    +0.000 C 
BRANCH  20  21
ATOM     21  C   LIG A   1      -7.224   0.925 125.646  0.00  0.00    +0.006 C 
BRANCH  21  22
ATOM     22  C   LIG A   1      -8.728   0.597 125.581  0.00  0.00    +0.054 C 
BRANCH  22  23
ATOM     23  C   LIG A   1      -9.375   0.889 124.227  0.00  0.00    +0.054 C 
ATOM     24  C   LIG A   1      -9.201   2.285 123.670  0.00  0.00    +0.064 C 
ATOM     25  N   LIG A   1     -10.021  -0.046 123.632  0.00  0.00    -0.097 NA
BRANCH  25  26
ATOM     26  O   LIG A   1     -10.615   0.390 122.432  0.00  0.00    -0.409 OA
ATOM     27  H   LIG A   1     -11.297  -0.276 122.272  0.00  0.00    +0.328 HD
ENDBRANCH  25  26
ENDBRANCH  22  23
ENDBRANCH  21  22
ENDBRANCH  20  21
ENDBRANCH  19  20
ENDBRANCH  18  19
ENDBRANCH  17  18
ENDBRANCH  16  17
ENDBRANCH  15  16
ENDBRANCH   1  15
TORSDOF 15
ENDMDL
MODEL 2
REMARK VINA RESULT:      -5.7      2.921      5.382
REMARK  Name = NuBBE_173
REMARK  17 active torsions:
REMARK  status: ('A' for Active; 'I' for Inactive)
REMARK    1  A    between atoms: O_1  and  C_2
REMARK    2  A    between atoms: C_4  and  C_6
REMARK    3  A    between atoms: C_9  and  C_11
REMARK    4  A    between atoms: C_11  and  C_12
REMARK    5  A    between atoms: C_12  and  C_13
REMARK    6  A    between atoms: C_13  and  C_14
REMARK    7  A    between atoms: C_14  and  C_15
REMARK    8  A    between atoms: C_15  and  C_16
REMARK    9  A    between atoms: C_16  and  C_17
REMARK   10  A    between atoms: C_17  and  C_18
REMARK   11  A    between atoms: C_18  and  C_19
REMARK   12  A    between atoms: C_19  and  C_20
REMARK   13  A    between atoms: C_20  and  C_21
REMARK   14  A    between atoms: C_21  and  C_22
REMARK   15  A    between atoms: C_22  and  C_23
REMARK   16  A    between atoms: C_23  and  C_24
REMARK   17  A    between atoms: N_25  and  O_26
REMARK                            x       y       z     vdW  Elec       q    Type
REMARK                         _______ _______ _______ _____ _____    ______ ____
ROOT
ATOM      1  C   LIG A   1      -7.771  -3.332 129.382  0.00  0.00    -0.000 C 
ENDROOT
BRANCH   1   2
ATOM      2  C   LIG A   1      -8.763  -3.492 128.222  0.00  0.00    +0.000 C 
BRANCH   2   3
ATOM      3  C   LIG A   1      -8.194  -3.085 126.877  0.00  0.00    +0.002 C 
BRANCH   3   4
ATOM      4  C   LIG A   1      -9.141  -3.426 125.749  0.00  0.00    +0.019 C 
BRANCH   4  10
ATOM      5  C   LIG A   1      -6.524  -1.880 122.861  0.00  0.00    +0.131 C 
ATOM      6  C   LIG A   1      -6.199  -3.256 123.475  0.00  0.00    +0.079 C 
ATOM      7  C   LIG A   1      -4.726  -3.362 123.866  0.00  0.00    +0.026 C 
ATOM      8  N   LIG A   1      -7.016  -3.426 124.683  0.00  0.00    -0.308 NA
ATOM      9  H   LIG A   1      -6.767  -4.298 125.154  0.00  0.00    +0.122 HD
ATOM     10  C   LIG A   1      -8.455  -3.432 124.382  0.00  0.00    +0.054 C 
ATOM     11  C   LIG A   1      -8.918  -2.219 123.547  0.00  0.00    +0.021 C 
ATOM     12  C   LIG A   1      -7.978  -1.865 122.401  0.00  0.00    +0.034 C 
BRANCH   5  13
ATOM     13  O   LIG A   1      -6.339  -0.857 123.848  0.00  0.00    -0.390 OA
ATOM     14  H   LIG A   1      -5.423  -0.537 123.702  0.00  0.00    +0.210 HD
ENDBRANCH   5  13
ENDBRANCH   4  10
ENDBRANCH   3   4
ENDBRANCH   2   3
ENDBRANCH   1   2
BRANCH   1  15
ATOM     15  C   LIG A   1      -6.807  -2.139 129.308  0.00  0.00    -0.000 C 
BRANCH  15  16
ATOM     16  C   LIG A   1      -7.413  -0.739 129.521  0.00  0.00    -0.000 C 
BRANCH  16  17
ATOM     17  C   LIG A   1      -7.187   0.220 128.360  0.00  0.00    -0.000 C 
BRANCH  17  18
ATOM     18  C   LIG A   1      -8.419   0.798 127.682  0.00  0.00    -0.000 C 
BRANCH  18  19
ATOM     19  C   LIG A   1      -8.490   0.352 126.202  0.00  0.00    +0.000 C 
BRANCH  19  20
ATOM     20  C   LIG A   1      -9.738   0.836 125.432  0.00  0.00    +0.000 C 
BRANCH  20  21
ATOM     21  C   LIG A   1      -9.364   1.731 124.242  0.00  0.00    +0.006 C 
BRANCH  21  22
ATOM     22  C   LIG A   1      -7.905   2.227 124.272  0.00  0.00    +0.054 C 
BRANCH  22  23
ATOM     23  C   LIG A   1      -7.751   3.694 124.673  0.00  0.00    +0.054 C 
ATOM     24  C   LIG A   1      -6.429   4.357 124.351  0.00  0.00    +0.064 C 
ATOM     25  N   LIG A   1      -8.730   4.289 125.250  0.00  0.00    -0.097 NA
BRANCH  25  26
ATOM     26  O   LIG A   1      -8.415   5.611 125.618  0.00  0.00    -0.409 OA
ATOM     27  H   LIG A   1      -8.127   6.007 124.785  0.00  0.00    +0.328 HD
ENDBRANCH  25  26
ENDBRANCH  22  23
ENDBRANCH  21  22
ENDBRANCH  20  21
ENDBRANCH  19  20
ENDBRANCH  18  19
ENDBRANCH  17  18
ENDBRANCH  16  17
ENDBRANCH  15  16
ENDBRANCH   1  15
TORSDOF 15
ENDMDL
MODEL 3
REMARK VINA RESULT:      -5.6      6.250      8.872
REMARK  Name = NuBBE_173
REMARK  17 active torsions:
REMARK  status: ('A' for Active; 'I' for Inactive)
REMARK    1  A    between atoms: O_1  and  C_2
REMARK    2  A    between atoms: C_4  and  C_6
REMARK    3  A    between atoms: C_9  and  C_11
REMARK    4  A    between atoms: C_11  and  C_12
REMARK    5  A    between atoms: C_12  and  C_13
REMARK    6  A    between atoms: C_13  and  C_14
REMARK    7  A    between atoms: C_14  and  C_15
REMARK    8  A    between atoms: C_15  and  C_16
REMARK    9  A    between atoms: C_16  and  C_17
REMARK   10  A    between atoms: C_17  and  C_18
REMARK   11  A    between atoms: C_18  and  C_19
REMARK   12  A    between atoms: C_19  and  C_20
REMARK   13  A    between atoms: C_20  and  C_21
REMARK   14  A    between atoms: C_21  and  C_22
REMARK   15  A    between atoms: C_22  and  C_23
REMARK   16  A    between atoms: C_23  and  C_24
REMARK   17  A    between atoms: N_25  and  O_26
REMARK                            x       y       z     vdW  Elec       q    Type
REMARK                         _______ _______ _______ _____ _____    ______ ____
ROOT
ATOM      1  C   LIG A   1      -9.428   1.984 132.044  0.00  0.00    -0.000 C 
ENDROOT
BRANCH   1   2
ATOM      2  C   LIG A   1      -8.075   1.562 131.455  0.00  0.00    +0.000 C 
BRANCH   2   3
ATOM      3  C   LIG A   1      -8.130   1.251 129.972  0.00  0.00    +0.002 C 
BRANCH   3   4
ATOM      4  C   LIG A   1      -8.033   2.510 129.139  0.00  0.00    +0.019 C 
BRANCH   4  10
ATOM      5  C   LIG A   1      -8.045   3.161 124.997  0.00  0.00    +0.131 C 
ATOM      6  C   LIG A   1      -6.763   3.500 125.783  0.00  0.00    +0.079 C 
ATOM      7  C   LIG A   1      -6.201   4.861 125.376  0.00  0.00    +0.026 C 
ATOM      8  N   LIG A   1      -7.096   3.541 127.212  0.00  0.00    -0.308 NA
ATOM      9  H   LIG A   1      -6.282   3.838 127.753  0.00  0.00    +0.122 HD
ATOM     10  C   LIG A   1      -7.559   2.238 127.710  0.00  0.00    +0.054 C 
ATOM     11  C   LIG A   1      -8.705   1.627 126.876  0.00  0.00    +0.021 C 
ATOM     12  C   LIG A   1      -8.507   1.756 125.370  0.00  0.00    +0.034 C 
BRANCH   5  13
ATOM     13  O   LIG A   1      -9.079   4.094 125.337  0.00  0.00    -0.390 OA
ATOM     14  H   LIG A   1      -9.102   4.089 126.318  0.00  0.00    +0.210 HD
ENDBRANCH   5  13
ENDBRANCH   4  10
ENDBRANCH   3   4
ENDBRANCH   2   3
ENDBRANCH   1   2
BRANCH   1  15
ATOM     15  C   LIG A   1      -9.439   3.249 132.913  0.00  0.00    -0.000 C 
BRANCH  15  16
ATOM     16  C   LIG A   1      -9.581   4.596 132.180  0.00  0.00    -0.000 C 
BRANCH  16  17
ATOM     17  C   LIG A   1     -10.195   4.488 130.791  0.00  0.00    -0.000 C 
BRANCH  17  18
ATOM     18  C   LIG A   1     -11.496   5.235 130.542  0.00  0.00    -0.000 C 
BRANCH  18  19
ATOM     19  C   LIG A   1     -11.581   6.498 131.431  0.00  0.00    +0.000 C 
BRANCH  19  20
ATOM     20  C   LIG A   1     -12.839   7.367 131.216  0.00  0.00    +0.000 C 
BRANCH  20  21
ATOM     21  C   LIG A   1     -12.606   8.459 130.161  0.00  0.00    +0.006 C 
BRANCH  21  22
ATOM     22  C   LIG A   1     -13.008   8.041 128.734  0.00  0.00    +0.054 C 
BRANCH  22  23
ATOM     23  C   LIG A   1     -11.829   7.669 127.834  0.00  0.00    +0.054 C 
ATOM     24  C   LIG A   1     -10.544   8.442 128.034  0.00  0.00    +0.064 C 
ATOM     25  N   LIG A   1     -11.977   6.734 126.969  0.00  0.00    -0.097 NA
BRANCH  25  26
ATOM     26  O   LIG A   1     -10.830   6.552 126.172  0.00  0.00    -0.409 OA
ATOM     27  H   LIG A   1     -10.245   6.040 126.746  0.00  0.00    +0.328 HD
ENDBRANCH  25  26
ENDBRANCH  22  23
ENDBRANCH  21  22
ENDBRANCH  20  21
ENDBRANCH  19  20
ENDBRANCH  18  19
ENDBRANCH  17  18
ENDBRANCH  16  17
ENDBRANCH  15  16
ENDBRANCH   1  15
TORSDOF 15
ENDMDL
MODEL 4
REMARK VINA RESULT:      -5.5      2.649      3.640
REMARK  Name = NuBBE_173
REMARK  17 active torsions:
REMARK  status: ('A' for Active; 'I' for Inactive)
REMARK    1  A    between atoms: O_1  and  C_2
REMARK    2  A    between atoms: C_4  and  C_6
REMARK    3  A    between atoms: C_9  and  C_11
REMARK    4  A    between atoms: C_11  and  C_12
REMARK    5  A    between atoms: C_12  and  C_13
REMARK    6  A    between atoms: C_13  and  C_14
REMARK    7  A    between atoms: C_14  and  C_15
REMARK    8  A    between atoms: C_15  and  C_16
REMARK    9  A    between atoms: C_16  and  C_17
REMARK   10  A    between atoms: C_17  and  C_18
REMARK   11  A    between atoms: C_18  and  C_19
REMARK   12  A    between atoms: C_19  and  C_20
REMARK   13  A    between atoms: C_20  and  C_21
REMARK   14  A    between atoms: C_21  and  C_22
REMARK   15  A    between atoms: C_22  and  C_23
REMARK   16  A    between atoms: C_23  and  C_24
REMARK   17  A    between atoms: N_25  and  O_26
REMARK                            x       y       z     vdW  Elec       q    Type
REMARK                         _______ _______ _______ _____ _____    ______ ____
ROOT
ATOM      1  C   LIG A   1      -9.381  -3.340 126.220  0.00  0.00    -0.000 C 
ENDROOT
BRANCH   1   2
ATOM      2  C   LIG A   1      -8.378  -3.562 127.361  0.00  0.00    +0.000 C 
BRANCH   2   3
ATOM      3  C   LIG A   1      -8.462  -2.515 128.454  0.00  0.00    +0.002 C 
BRANCH   3   4
ATOM      4  C   LIG A   1      -7.097  -1.961 128.796  0.00  0.00    +0.019 C 
BRANCH   4  10
ATOM      5  C   LIG A   1      -3.830  -3.738 130.731  0.00  0.00    +0.131 C 
ATOM      6  C   LIG A   1      -5.181  -4.480 130.754  0.00  0.00    +0.079 C 
ATOM      7  C   LIG A   1      -5.509  -5.004 132.151  0.00  0.00    +0.026 C 
ATOM      8  N   LIG A   1      -6.232  -3.537 130.350  0.00  0.00    -0.308 NA
ATOM      9  H   LIG A   1      -7.148  -3.981 130.430  0.00  0.00    +0.122 HD
ATOM     10  C   LIG A   1      -6.043  -3.055 128.975  0.00  0.00    +0.054 C 
ATOM     11  C   LIG A   1      -4.634  -2.486 128.705  0.00  0.00    +0.021 C 
ATOM     12  C   LIG A   1      -3.508  -3.324 129.299  0.00  0.00    +0.034 C 
BRANCH   5  13
ATOM     13  O   LIG A   1      -3.913  -2.562 131.546  0.00  0.00    -0.390 OA
ATOM     14  H   LIG A   1      -3.211  -2.680 132.221  0.00  0.00    +0.210 HD
ENDBRANCH   5  13
ENDBRANCH   4  10
ENDBRANCH   3   4
ENDBRANCH   2   3
ENDBRANCH   1   2
BRANCH   1  15
ATOM     15  C   LIG A   1      -8.928  -3.751 124.812  0.00  0.00    -0.000 C 
BRANCH  15  16
ATOM     16  C   LIG A   1      -9.490  -2.935 123.633  0.00  0.00    -0.000 C 
BRANCH  16  17
ATOM     17  C   LIG A   1      -8.691  -1.679 123.309  0.00  0.00    -0.000 C 
BRANCH  17  18
ATOM     18  C   LIG A   1      -8.891  -0.472 124.211  0.00  0.00    -0.000 C 
BRANCH  18  19
ATOM     19  C   LIG A   1      -7.785  -0.405 125.290  0.00  0.00    +0.000 C 
BRANCH  19  20
ATOM     20  C   LIG A   1      -6.381  -0.034 124.766  0.00  0.00    +0.000 C 
BRANCH  20  21
ATOM     21  C   LIG A   1      -5.305  -1.003 125.279  0.00  0.00    +0.006 C 
BRANCH  21  22
ATOM     22  C   LIG A   1      -5.729  -2.484 125.232  0.00  0.00    +0.054 C 
BRANCH  22  23
ATOM     23  C   LIG A   1      -5.142  -3.267 124.057  0.00  0.00    +0.054 C 
ATOM     24  C   LIG A   1      -5.390  -2.711 122.672  0.00  0.00    +0.064 C 
ATOM     25  N   LIG A   1      -4.476  -4.336 124.293  0.00  0.00    -0.097 NA
BRANCH  25  26
ATOM     26  O   LIG A   1      -4.058  -4.981 123.113  0.00  0.00    -0.409 OA
ATOM     27  H   LIG A   1      -3.983  -4.254 122.481  0.00  0.00    +0.328 HD
ENDBRANCH  25  26
ENDBRANCH  22  23
ENDBRANCH  21  22
ENDBRANCH  20  21
ENDBRANCH  19  20
ENDBRANCH  18  19
ENDBRANCH  17  18
ENDBRANCH  16  17
ENDBRANCH  15  16
ENDBRANCH   1  15
TORSDOF 15
ENDMDL
MODEL 5
REMARK VINA RESULT:      -5.5      1.924      2.271
REMARK  Name = NuBBE_173
REMARK  17 active torsions:
REMARK  status: ('A' for Active; 'I' for Inactive)
REMARK    1  A    between atoms: O_1  and  C_2
REMARK    2  A    between atoms: C_4  and  C_6
REMARK    3  A    between atoms: C_9  and  C_11
REMARK    4  A    between atoms: C_11  and  C_12
REMARK    5  A    between atoms: C_12  and  C_13
REMARK    6  A    between atoms: C_13  and  C_14
REMARK    7  A    between atoms: C_14  and  C_15
REMARK    8  A    between atoms: C_15  and  C_16
REMARK    9  A    between atoms: C_16  and  C_17
REMARK   10  A    between atoms: C_17  and  C_18
REMARK   11  A    between atoms: C_18  and  C_19
REMARK   12  A    between atoms: C_19  and  C_20
REMARK   13  A    between atoms: C_20  and  C_21
REMARK   14  A    between atoms: C_21  and  C_22
REMARK   15  A    between atoms: C_22  and  C_23
REMARK   16  A    between atoms: C_23  and  C_24
REMARK   17  A    between atoms: N_25  and  O_26
REMARK                            x       y       z     vdW  Elec       q    Type
REMARK                         _______ _______ _______ _____ _____    ______ ____
ROOT
ATOM      1  C   LIG A   1      -8.269  -3.666 125.316  0.00  0.00    -0.000 C 
ENDROOT
BRANCH   1   2
ATOM      2  C   LIG A   1      -8.668  -2.893 126.581  0.00  0.00    +0.000 C 
BRANCH   2   3
ATOM      3  C   LIG A   1      -9.019  -3.789 127.752  0.00  0.00    +0.002 C 
BRANCH   3   4
ATOM      4  C   LIG A   1      -8.220  -3.428 128.984  0.00  0.00    +0.019 C 
BRANCH   4  10
ATOM      5  C   LIG A   1      -4.945  -1.042 130.064  0.00  0.00    +0.131 C 
ATOM      6  C   LIG A   1      -4.706  -2.203 129.078  0.00  0.00    +0.079 C 
ATOM      7  C   LIG A   1      -3.461  -3.006 129.449  0.00  0.00    +0.026 C 
ATOM      8  N   LIG A   1      -5.870  -3.097 129.127  0.00  0.00    -0.308 NA
ATOM      9  H   LIG A   1      -5.707  -3.916 128.540  0.00  0.00    +0.122 HD
ATOM     10  C   LIG A   1      -7.103  -2.425 128.692  0.00  0.00    +0.054 C 
ATOM     11  C   LIG A   1      -7.376  -1.094 129.423  0.00  0.00    +0.021 C 
ATOM     12  C   LIG A   1      -6.140  -0.219 129.592  0.00  0.00    +0.034 C 
BRANCH   5  13
ATOM     13  O   LIG A   1      -5.232  -1.569 131.366  0.00  0.00    -0.390 OA
ATOM     14  H   LIG A   1      -6.069  -1.131 131.629  0.00  0.00    +0.210 HD
ENDBRANCH   5  13
ENDBRANCH   4  10
ENDBRANCH   3   4
ENDBRANCH   2   3
ENDBRANCH   1   2
BRANCH   1  15
ATOM     15  C   LIG A   1      -9.171  -3.491 124.085  0.00  0.00    -0.000 C 
BRANCH  15  16
ATOM     16  C   LIG A   1      -8.925  -2.245 123.214  0.00  0.00    -0.000 C 
BRANCH  16  17
ATOM     17  C   LIG A   1      -7.493  -2.105 122.717  0.00  0.00    -0.000 C 
BRANCH  17  18
ATOM     18  C   LIG A   1      -6.742  -0.839 123.099  0.00  0.00    -0.000 C 
BRANCH  18  19
ATOM     19  C   LIG A   1      -6.130  -0.972 124.514  0.00  0.00    +0.000 C 
BRANCH  19  20
ATOM     20  C   LIG A   1      -6.739  -0.036 125.581  0.00  0.00    +0.000 C 
BRANCH  20  21
ATOM     21  C   LIG A   1      -6.529   1.445 125.229  0.00  0.00    +0.006 C 
BRANCH  21  22
ATOM     22  C   LIG A   1      -7.824   2.179 124.833  0.00  0.00    +0.054 C 
BRANCH  22  23
ATOM     23  C   LIG A   1      -7.791   2.799 123.436  0.00  0.00    +0.054 C 
ATOM     24  C   LIG A   1      -6.437   2.926 122.775  0.00  0.00    +0.064 C 
ATOM     25  N   LIG A   1      -8.892   3.174 122.895  0.00  0.00    -0.097 NA
BRANCH  25  26
ATOM     26  O   LIG A   1      -8.696   3.786 121.642  0.00  0.00    -0.409 OA
ATOM     27  H   LIG A   1      -8.604   3.032 121.044  0.00  0.00    +0.328 HD
ENDBRANCH  25  26
ENDBRANCH  22  23
ENDBRANCH  21  22
ENDBRANCH  20  21
ENDBRANCH  19  20
ENDBRANCH  18  19
ENDBRANCH  17  18
ENDBRANCH  16  17
ENDBRANCH  15  16
ENDBRANCH   1  15
TORSDOF 15
ENDMDL
MODEL 6
REMARK VINA RESULT:      -5.5      1.884      2.479
REMARK  Name = NuBBE_173
REMARK  17 active torsions:
REMARK  status: ('A' for Active; 'I' for Inactive)
REMARK    1  A    between atoms: O_1  and  C_2
REMARK    2  A    between atoms: C_4  and  C_6
REMARK    3  A    between atoms: C_9  and  C_11
REMARK    4  A    between atoms: C_11  and  C_12
REMARK    5  A    between atoms: C_12  and  C_13
REMARK    6  A    between atoms: C_13  and  C_14
REMARK    7  A    between atoms: C_14  and  C_15
REMARK    8  A    between atoms: C_15  and  C_16
REMARK    9  A    between atoms: C_16  and  C_17
REMARK   10  A    between atoms: C_17  and  C_18
REMARK   11  A    between atoms: C_18  and  C_19
REMARK   12  A    between atoms: C_19  and  C_20
REMARK   13  A    between atoms: C_20  and  C_21
REMARK   14  A    between atoms: C_21  and  C_22
REMARK   15  A    between atoms: C_22  and  C_23
REMARK   16  A    between atoms: C_23  and  C_24
REMARK   17  A    between atoms: N_25  and  O_26
REMARK                            x       y       z     vdW  Elec       q    Type
REMARK                         _______ _______ _______ _____ _____    ______ ____
ROOT
ATOM      1  C   LIG A   1      -9.318  -3.046 124.411  0.00  0.00    -0.000 C 
ENDROOT
BRANCH   1   2
ATOM      2  C   LIG A   1      -8.565  -3.707 125.573  0.00  0.00    +0.000 C 
BRANCH   2   3
ATOM      3  C   LIG A   1      -8.634  -2.919 126.866  0.00  0.00    +0.002 C 
BRANCH   3   4
ATOM      4  C   LIG A   1      -8.692  -3.833 128.070  0.00  0.00    +0.019 C 
BRANCH   4  10
ATOM      5  C   LIG A   1      -5.851  -1.611 130.208  0.00  0.00    +0.131 C 
ATOM      6  C   LIG A   1      -7.261  -1.014 130.035  0.00  0.00    +0.079 C 
ATOM      7  C   LIG A   1      -7.200   0.456 129.625  0.00  0.00    +0.026 C 
ATOM      8  N   LIG A   1      -7.953  -1.764 128.980  0.00  0.00    -0.308 NA
ATOM      9  H   LIG A   1      -8.864  -1.342 128.790  0.00  0.00    +0.122 HD
ATOM     10  C   LIG A   1      -8.139  -3.178 129.337  0.00  0.00    +0.054 C 
ATOM     11  C   LIG A   1      -6.838  -3.882 129.777  0.00  0.00    +0.021 C 
ATOM     12  C   LIG A   1      -5.970  -3.047 130.710  0.00  0.00    +0.034 C 
BRANCH   5  13
ATOM     13  O   LIG A   1      -5.172  -1.617 128.945  0.00  0.00    -0.390 OA
ATOM     14  H   LIG A   1      -4.325  -1.155 129.119  0.00  0.00    +0.210 HD
ENDBRANCH   5  13
ENDBRANCH   4  10
ENDBRANCH   3   4
ENDBRANCH   2   3
ENDBRANCH   1   2
BRANCH   1  15
ATOM     15  C   LIG A   1      -8.560  -1.971 123.619  0.00  0.00    -0.000 C 
BRANCH  15  16
ATOM     16  C   LIG A   1      -7.297  -2.423 122.863  0.00  0.00    -0.000 C 
BRANCH  16  17
ATOM     17  C   LIG A   1      -6.007  -1.799 123.378  0.00  0.00    -0.000 C 
BRANCH  17  18
ATOM     18  C   LIG A   1      -5.619  -2.088 124.819  0.00  0.00    -0.000 C 
BRANCH  18  19
ATOM     19  C   LIG A   1      -5.349  -0.772 125.587  0.00  0.00    +0.000 C 
BRANCH  19  20
ATOM     20  C   LIG A   1      -6.608   0.052 125.935  0.00  0.00    +0.000 C 
BRANCH  20  21
ATOM     21  C   LIG A   1      -6.872   1.156 124.900  0.00  0.00    +0.006 C 
BRANCH  21  22
ATOM     22  C   LIG A   1      -8.332   1.648 124.874  0.00  0.00    +0.054 C 
BRANCH  22  23
ATOM     23  C   LIG A   1      -8.783   2.202 123.523  0.00  0.00    +0.054 C 
ATOM     24  C   LIG A   1      -9.750   1.356 122.724  0.00  0.00    +0.064 C 
ATOM     25  N   LIG A   1      -8.334   3.339 123.135  0.00  0.00    -0.097 NA
BRANCH  25  26
ATOM     26  O   LIG A   1      -8.784   3.684 121.846  0.00  0.00    -0.409 OA
ATOM     27  H   LIG A   1      -7.979   3.993 121.409  0.00  0.00    +0.328 HD
ENDBRANCH  25  26
ENDBRANCH  22  23
ENDBRANCH  21  22
ENDBRANCH  20  21
ENDBRANCH  19  20
ENDBRANCH  18  19
ENDBRANCH  17  18
ENDBRANCH  16  17
ENDBRANCH  15  16
ENDBRANCH   1  15
TORSDOF 15
ENDMDL
MODEL 7
REMARK VINA RESULT:      -5.4      3.236      6.609
REMARK  Name = NuBBE_173
REMARK  17 active torsions:
REMARK  status: ('A' for Active; 'I' for Inactive)
REMARK    1  A    between atoms: O_1  and  C_2
REMARK    2  A    between atoms: C_4  and  C_6
REMARK    3  A    between atoms: C_9  and  C_11
REMARK    4  A    between atoms: C_11  and  C_12
REMARK    5  A    between atoms: C_12  and  C_13
REMARK    6  A    between atoms: C_13  and  C_14
REMARK    7  A    between atoms: C_14  and  C_15
REMARK    8  A    between atoms: C_15  and  C_16
REMARK    9  A    between atoms: C_16  and  C_17
REMARK   10  A    between atoms: C_17  and  C_18
REMARK   11  A    between atoms: C_18  and  C_19
REMARK   12  A    between atoms: C_19  and  C_20
REMARK   13  A    between atoms: C_20  and  C_21
REMARK   14  A    between atoms: C_21  and  C_22
REMARK   15  A    between atoms: C_22  and  C_23
REMARK   16  A    between atoms: C_23  and  C_24
REMARK   17  A    between atoms: N_25  and  O_26
REMARK                            x       y       z     vdW  Elec       q    Type
REMARK                         _______ _______ _______ _____ _____    ______ ____
ROOT
ATOM      1  C   LIG A   1      -7.670  -0.829 123.391  0.00  0.00    -0.000 C 
ENDROOT
BRANCH   1   2
ATOM      2  C   LIG A   1      -6.454  -0.980 124.316  0.00  0.00    +0.000 C 
BRANCH   2   3
ATOM      3  C   LIG A   1      -6.585  -0.217 125.619  0.00  0.00    +0.002 C 
BRANCH   3   4
ATOM      4  C   LIG A   1      -5.246   0.301 126.095  0.00  0.00    +0.019 C 
BRANCH   4  10
ATOM      5  C   LIG A   1      -4.706   4.121 127.737  0.00  0.00    +0.131 C 
ATOM      6  C   LIG A   1      -3.635   3.589 126.764  0.00  0.00    +0.079 C 
ATOM      7  C   LIG A   1      -2.225   3.831 127.298  0.00  0.00    +0.026 C 
ATOM      8  N   LIG A   1      -3.833   2.143 126.607  0.00  0.00    -0.308 NA
ATOM      9  H   LIG A   1      -3.090   1.750 126.026  0.00  0.00    +0.122 HD
ATOM     10  C   LIG A   1      -5.136   1.824 126.008  0.00  0.00    +0.054 C 
ATOM     11  C   LIG A   1      -6.329   2.486 126.730  0.00  0.00    +0.021 C 
ATOM     12  C   LIG A   1      -6.087   3.941 127.113  0.00  0.00    +0.034 C 
BRANCH   5  13
ATOM     13  O   LIG A   1      -4.653   3.380 128.964  0.00  0.00    -0.390 OA
ATOM     14  H   LIG A   1      -3.811   2.878 128.911  0.00  0.00    +0.210 HD
ENDBRANCH   5  13
ENDBRANCH   4  10
ENDBRANCH   3   4
ENDBRANCH   2   3
ENDBRANCH   1   2
BRANCH   1  15
ATOM     15  C   LIG A   1      -8.171  -2.102 122.694  0.00  0.00    -0.000 C 
BRANCH  15  16
ATOM     16  C   LIG A   1      -9.386  -2.808 123.323  0.00  0.00    -0.000 C 
BRANCH  16  17
ATOM     17  C   LIG A   1      -9.057  -3.618 124.571  0.00  0.00    -0.000 C 
BRANCH  17  18
ATOM     18  C   LIG A   1      -9.421  -3.008 125.915  0.00  0.00    -0.000 C 
BRANCH  18  19
ATOM     19  C   LIG A   1      -8.236  -3.116 126.904  0.00  0.00    +0.000 C 
BRANCH  19  20
ATOM     20  C   LIG A   1      -8.608  -3.612 128.319  0.00  0.00    +0.000 C 
BRANCH  20  21
ATOM     21  C   LIG A   1      -7.729  -2.964 129.400  0.00  0.00    +0.006 C 
BRANCH  21  22
ATOM     22  C   LIG A   1      -6.649  -3.904 129.968  0.00  0.00    +0.054 C 
BRANCH  22  23
ATOM     23  C   LIG A   1      -5.216  -3.427 129.730  0.00  0.00    +0.054 C 
ATOM     24  C   LIG A   1      -4.994  -2.468 128.582  0.00  0.00    +0.064 C 
ATOM     25  N   LIG A   1      -4.283  -3.850 130.502  0.00  0.00    -0.097 NA
BRANCH  25  26
ATOM     26  O   LIG A   1      -3.012  -3.380 130.119  0.00  0.00    -0.409 OA
ATOM     27  H   LIG A   1      -3.073  -2.429 130.285  0.00  0.00    +0.328 HD
ENDBRANCH  25  26
ENDBRANCH  22  23
ENDBRANCH  21  22
ENDBRANCH  20  21
ENDBRANCH  19  20
ENDBRANCH  18  19
ENDBRANCH  17  18
ENDBRANCH  16  17
ENDBRANCH  15  16
ENDBRANCH   1  15
TORSDOF 15
ENDMDL
MODEL 8
REMARK VINA RESULT:      -5.4      2.855      6.348
REMARK  Name = NuBBE_173
REMARK  17 active torsions:
REMARK  status: ('A' for Active; 'I' for Inactive)
REMARK    1  A    between atoms: O_1  and  C_2
REMARK    2  A    between atoms: C_4  and  C_6
REMARK    3  A    between atoms: C_9  and  C_11
REMARK    4  A    between atoms: C_11  and  C_12
REMARK    5  A    between atoms: C_12  and  C_13
REMARK    6  A    between atoms: C_13  and  C_14
REMARK    7  A    between atoms: C_14  and  C_15
REMARK    8  A    between atoms: C_15  and  C_16
REMARK    9  A    between atoms: C_16  and  C_17
REMARK   10  A    between atoms: C_17  and  C_18
REMARK   11  A    between atoms: C_18  and  C_19
REMARK   12  A    between atoms: C_19  and  C_20
REMARK   13  A    between atoms: C_20  and  C_21
REMARK   14  A    between atoms: C_21  and  C_22
REMARK   15  A    between atoms: C_22  and  C_23
REMARK   16  A    between atoms: C_23  and  C_24
REMARK   17  A    between atoms: N_25  and  O_26
REMARK                            x       y       z     vdW  Elec       q    Type
REMARK                         _______ _______ _______ _____ _____    ______ ____
ROOT
ATOM      1  C   LIG A   1      -7.598  -0.341 131.475  0.00  0.00    -0.000 C 
ENDROOT
BRANCH   1   2
ATOM      2  C   LIG A   1      -6.937   0.079 130.155  0.00  0.00    +0.000 C 
BRANCH   2   3
ATOM      3  C   LIG A   1      -7.928   0.364 129.045  0.00  0.00    +0.002 C 
BRANCH   3   4
ATOM      4  C   LIG A   1      -7.290   0.218 127.681  0.00  0.00    +0.019 C 
BRANCH   4  10
ATOM      5  C   LIG A   1      -7.396   2.186 123.981  0.00  0.00    +0.131 C 
ATOM      6  C   LIG A   1      -8.724   1.993 124.740  0.00  0.00    +0.079 C 
ATOM      7  C   LIG A   1      -9.832   1.494 123.815  0.00  0.00    +0.026 C 
ATOM      8  N   LIG A   1      -8.510   0.993 125.794  0.00  0.00    -0.308 NA
ATOM      9  H   LIG A   1      -9.393   0.788 126.266  0.00  0.00    +0.122 HD
ATOM     10  C   LIG A   1      -7.522   1.437 126.786  0.00  0.00    +0.054 C 
ATOM     11  C   LIG A   1      -6.187   1.904 126.167  0.00  0.00    +0.021 C 
ATOM     12  C   LIG A   1      -6.356   2.775 124.928  0.00  0.00    +0.034 C 
BRANCH   5  13
ATOM     13  O   LIG A   1      -6.925   0.918 123.505  0.00  0.00    -0.390 OA
ATOM     14  H   LIG A   1      -7.541   0.264 123.899  0.00  0.00    +0.210 HD
ENDBRANCH   5  13
ENDBRANCH   4  10
ENDBRANCH   3   4
ENDBRANCH   2   3
ENDBRANCH   1   2
BRANCH   1  15
ATOM     15  C   LIG A   1      -6.906  -1.457 132.271  0.00  0.00    -0.000 C 
BRANCH  15  16
ATOM     16  C   LIG A   1      -7.239  -2.907 131.871  0.00  0.00    -0.000 C 
BRANCH  16  17
ATOM     17  C   LIG A   1      -6.291  -3.501 130.838  0.00  0.00    -0.000 C 
BRANCH  17  18
ATOM     18  C   LIG A   1      -6.816  -3.661 129.419  0.00  0.00    -0.000 C 
BRANCH  18  19
ATOM     19  C   LIG A   1      -8.327  -3.339 129.355  0.00  0.00    +0.000 C 
BRANCH  19  20
ATOM     20  C   LIG A   1      -9.063  -3.893 128.115  0.00  0.00    +0.000 C 
BRANCH  20  21
ATOM     21  C   LIG A   1      -8.421  -3.408 126.806  0.00  0.00    +0.006 C 
BRANCH  21  22
ATOM     22  C   LIG A   1      -9.401  -2.680 125.866  0.00  0.00    +0.054 C 
BRANCH  22  23
ATOM     23  C   LIG A   1      -8.877  -2.485 124.444  0.00  0.00    +0.054 C 
ATOM     24  C   LIG A   1      -9.583  -3.246 123.343  0.00  0.00    +0.064 C 
ATOM     25  N   LIG A   1      -7.886  -1.696 124.249  0.00  0.00    -0.097 NA
BRANCH  25  26
ATOM     26  O   LIG A   1      -7.474  -1.670 122.902  0.00  0.00    -0.409 OA
ATOM     27  H   LIG A   1      -7.548  -0.735 122.669  0.00  0.00    +0.328 HD
ENDBRANCH  25  26
ENDBRANCH  22  23
ENDBRANCH  21  22
ENDBRANCH  20  21
ENDBRANCH  19  20
ENDBRANCH  18  19
ENDBRANCH  17  18
ENDBRANCH  16  17
ENDBRANCH  15  16
ENDBRANCH   1  15
TORSDOF 15
ENDMDL
MODEL 9
REMARK VINA RESULT:      -5.4      6.711      9.000
REMARK  Name = NuBBE_173
REMARK  17 active torsions:
REMARK  status: ('A' for Active; 'I' for Inactive)
REMARK    1  A    between atoms: O_1  and  C_2
REMARK    2  A    between atoms: C_4  and  C_6
REMARK    3  A    between atoms: C_9  and  C_11
REMARK    4  A    between atoms: C_11  and  C_12
REMARK    5  A    between atoms: C_12  and  C_13
REMARK    6  A    between atoms: C_13  and  C_14
REMARK    7  A    between atoms: C_14  and  C_15
REMARK    8  A    between atoms: C_15  and  C_16
REMARK    9  A    between atoms: C_16  and  C_17
REMARK   10  A    between atoms: C_17  and  C_18
REMARK   11  A    between atoms: C_18  and  C_19
REMARK   12  A    between atoms: C_19  and  C_20
REMARK   13  A    between atoms: C_20  and  C_21
REMARK   14  A    between atoms: C_21  and  C_22
REMARK   15  A    between atoms: C_22  and  C_23
REMARK   16  A    between atoms: C_23  and  C_24
REMARK   17  A    between atoms: N_25  and  O_26
REMARK                            x       y       z     vdW  Elec       q    Type
REMARK                         _______ _______ _______ _____ _____    ______ ____
ROOT
ATOM      1  C   LIG A   1      -3.681   8.050 130.088  0.00  0.00    -0.000 C 
ENDROOT
BRANCH   1   2
ATOM      2  C   LIG A   1      -4.418   7.255 131.175  0.00  0.00    +0.000 C 
BRANCH   2   3
ATOM      3  C   LIG A   1      -5.798   6.789 130.754  0.00  0.00    +0.002 C 
BRANCH   3   4
ATOM      4  C   LIG A   1      -6.509   6.075 131.883  0.00  0.00    +0.019 C 
BRANCH   4  10
ATOM      5  C   LIG A   1     -10.039   5.597 129.672  0.00  0.00    +0.131 C 
ATOM      6  C   LIG A   1      -9.765   4.613 130.827  0.00  0.00    +0.079 C 
ATOM      7  C   LIG A   1     -10.033   3.169 130.409  0.00  0.00    +0.026 C 
ATOM      8  N   LIG A   1      -8.353   4.734 131.210  0.00  0.00    -0.308 NA
ATOM      9  H   LIG A   1      -8.123   4.040 131.923  0.00  0.00    +0.122 HD
ATOM     10  C   LIG A   1      -8.030   6.075 131.717  0.00  0.00    +0.054 C 
ATOM     11  C   LIG A   1      -8.463   7.217 130.772  0.00  0.00    +0.021 C 
ATOM     12  C   LIG A   1      -9.850   7.026 130.172  0.00  0.00    +0.034 C 
BRANCH   5  13
ATOM     13  O   LIG A   1      -9.114   5.354 128.603  0.00  0.00    -0.390 OA
ATOM     14  H   LIG A   1      -8.740   4.468 128.799  0.00  0.00    +0.210 HD
ENDBRANCH   5  13
ENDBRANCH   4  10
ENDBRANCH   3   4
ENDBRANCH   2   3
ENDBRANCH   1   2
BRANCH   1  15
ATOM     15  C   LIG A   1      -3.553   7.383 128.711  0.00  0.00    -0.000 C 
BRANCH  15  16
ATOM     16  C   LIG A   1      -2.261   6.590 128.438  0.00  0.00    -0.000 C 
BRANCH  16  17
ATOM     17  C   LIG A   1      -2.488   5.114 128.138  0.00  0.00    -0.000 C 
BRANCH  17  18
ATOM     18  C   LIG A   1      -3.195   4.286 129.200  0.00  0.00    -0.000 C 
BRANCH  18  19
ATOM     19  C   LIG A   1      -4.295   3.405 128.563  0.00  0.00    +0.000 C 
BRANCH  19  20
ATOM     20  C   LIG A   1      -4.633   3.739 127.093  0.00  0.00    +0.000 C 
BRANCH  20  21
ATOM     21  C   LIG A   1      -4.992   2.480 126.289  0.00  0.00    +0.006 C 
BRANCH  21  22
ATOM     22  C   LIG A   1      -6.508   2.241 126.152  0.00  0.00    +0.054 C 
BRANCH  22  23
ATOM     23  C   LIG A   1      -7.271   3.406 125.521  0.00  0.00    +0.054 C 
ATOM     24  C   LIG A   1      -6.868   3.809 124.119  0.00  0.00    +0.064 C 
ATOM     25  N   LIG A   1      -8.204   3.975 126.191  0.00  0.00    -0.097 NA
BRANCH  25  26
ATOM     26  O   LIG A   1      -8.767   5.070 125.508  0.00  0.00    -0.409 OA
ATOM     27  H   LIG A   1      -9.691   5.051 125.791  0.00  0.00    +0.328 HD
ENDBRANCH  25  26
ENDBRANCH  22  23
ENDBRANCH  21  22
ENDBRANCH  20  21
ENDBRANCH  19  20
ENDBRANCH  18  19
ENDBRANCH  17  18
ENDBRANCH  16  17
ENDBRANCH  15  16
ENDBRANCH   1  15
TORSDOF 15
ENDMDL
