MODEL 1
REMARK VINA RESULT:      -9.7      0.000      0.000
REMARK  Name = NuBBE_1356
REMARK  14 active torsions:
REMARK  status: ('A' for Active; 'I' for Inactive)
REMARK    1  A    between atoms: C_1  and  C_2
REMARK    2  A    between atoms: C_2  and  C_42
REMARK    3  A    between atoms: C_3  and  O_4
REMARK    4  A    between atoms: O_4  and  C_5
REMARK    5  A    between atoms: C_5  and  C_6
REMARK    6  A    between atoms: C_10  and  C_40
REMARK    7  A    between atoms: C_14  and  C_39
REMARK    8  A    between atoms: C_19  and  C_38
REMARK    9  A    between atoms: C_21  and  O_34
REMARK   10  A    between atoms: C_23  and  C_33
REMARK   11  A    between atoms: C_25  and  C_32
REMARK   12  A    between atoms: C_27  and  C_31
REMARK   13  A    between atoms: O_34  and  C_35
REMARK   14  A    between atoms: C_35  and  C_36
REMARK                            x       y       z     vdW  Elec       q    Type
REMARK                         _______ _______ _______ _____ _____    ______ ____
ROOT
ATOM      1  C   LIG A   1      -6.031  -3.254 124.358  0.00  0.00    +0.015 C 
ATOM      2  C   LIG A   1      -6.663  -2.243 125.364  0.00  0.00    +0.005 C 
ATOM      3  C   LIG A   1      -8.214  -2.234 125.035  0.00  0.00    +0.182 C 
ATOM      4  C   LIG A   1      -9.193  -2.745 126.114  0.00  0.00    +0.046 C 
ATOM      5  C   LIG A   1      -8.595  -3.353 127.381  0.00  0.00    +0.011 C 
ATOM      6  C   LIG A   1      -7.373  -2.560 127.912  0.00  0.00    -0.025 C 
ATOM      7  C   LIG A   1      -6.278  -2.754 126.823  0.00  0.00    +0.004 C 
ATOM      8  C   LIG A   1      -4.913  -2.236 127.313  0.00  0.00    +0.005 C 
ATOM      9  C   LIG A   1      -4.454  -2.939 128.577  0.00  0.00    +0.008 C 
ATOM     10  C   LIG A   1      -5.404  -2.802 129.793  0.00  0.00    -0.019 C 
ATOM     11  C   LIG A   1      -6.888  -3.139 129.324  0.00  0.00    +0.006 C 
ATOM     12  C   LIG A   1      -7.850  -2.873 130.501  0.00  0.00    +0.031 C 
ATOM     13  C   LIG A   1      -7.729  -1.494 131.067  0.00  0.00    -0.026 C 
ATOM     14  C   LIG A   1      -6.610  -0.744 131.075  0.00  0.00    -0.063 C 
ATOM     15  C   LIG A   1      -5.253  -1.367 130.670  0.00  0.00    -0.002 C 
ATOM     16  C   LIG A   1      -4.327  -0.243 130.062  0.00  0.00    +0.057 C 
ATOM     17  C   LIG A   1      -4.995   1.011 129.465  0.00  0.00    +0.184 C 
ATOM     18  C   LIG A   1      -6.057   1.706 130.425  0.00  0.00    +0.012 C 
ATOM     19  C   LIG A   1      -6.556   0.731 131.562  0.00  0.00    +0.028 C 
ATOM     20  C   LIG A   1      -7.848   1.234 132.315  0.00  0.00    -0.003 C 
ATOM     21  C   LIG A   1      -8.954   1.753 131.357  0.00  0.00    -0.011 C 
ATOM     22  C   LIG A   1      -8.431   2.749 130.319  0.00  0.00    +0.004 C 
ATOM     23  C   LIG A   1      -7.243   2.190 129.544  0.00  0.00    +0.011 C 
ATOM     24  C   LIG A   1     -10.155   2.356 132.093  0.00  0.00    +0.008 C 
ATOM     25  C   LIG A   1      -7.533   2.215 133.462  0.00  0.00    +0.008 C 
ATOM     26  C   LIG A   1      -5.441   2.980 131.073  0.00  0.00    +0.015 C 
ATOM     27  C   LIG A   1      -4.546  -1.691 132.036  0.00  0.00    +0.016 C 
ATOM     28  C   LIG A   1      -4.988  -4.042 130.683  0.00  0.00    +0.012 C 
ATOM     29  C   LIG A   1      -7.784  -1.099 128.053  0.00  0.00    +0.012 C 
ATOM     30  C   LIG A   1      -5.985  -0.886 125.032  0.00  0.00    +0.015 C 
ENDROOT
BRANCH   3  31
ATOM     31  O   LIG A   1      -8.692  -0.897 124.673  0.00  0.00    -0.461 OA
BRANCH  31  32
ATOM     32  C   LIG A   1      -9.283  -0.717 123.462  0.00  0.00    +0.304 C 
ATOM     33  C   LIG A   1      -8.859  -1.769 122.481  0.00  0.00    +0.136 C 
ATOM     34  O   LIG A   1     -10.044   0.208 123.166  0.00  0.00    -0.251 OA
ENDBRANCH  31  32
ENDBRANCH   3  31
BRANCH  17  35
ATOM     35  O   LIG A   1      -4.002   2.011 129.056  0.00  0.00    -0.461 OA
BRANCH  35  36
ATOM     36  C   LIG A   1      -3.929   2.394 127.753  0.00  0.00    +0.304 C 
ATOM     37  C   LIG A   1      -2.679   3.182 127.495  0.00  0.00    +0.136 C 
ATOM     38  O   LIG A   1      -4.783   2.205 126.900  0.00  0.00    -0.251 OA
ENDBRANCH  35  36
ENDBRANCH  17  35
TORSDOF 4
ENDMDL
MODEL 2
REMARK VINA RESULT:      -9.0      2.548      6.585
REMARK  Name = NuBBE_1356
REMARK  14 active torsions:
REMARK  status: ('A' for Active; 'I' for Inactive)
REMARK    1  A    between atoms: C_1  and  C_2
REMARK    2  A    between atoms: C_2  and  C_42
REMARK    3  A    between atoms: C_3  and  O_4
REMARK    4  A    between atoms: O_4  and  C_5
REMARK    5  A    between atoms: C_5  and  C_6
REMARK    6  A    between atoms: C_10  and  C_40
REMARK    7  A    between atoms: C_14  and  C_39
REMARK    8  A    between atoms: C_19  and  C_38
REMARK    9  A    between atoms: C_21  and  O_34
REMARK   10  A    between atoms: C_23  and  C_33
REMARK   11  A    between atoms: C_25  and  C_32
REMARK   12  A    between atoms: C_27  and  C_31
REMARK   13  A    between atoms: O_34  and  C_35
REMARK   14  A    between atoms: C_35  and  C_36
REMARK                            x       y       z     vdW  Elec       q    Type
REMARK                         _______ _______ _______ _____ _____    ______ ____
ROOT
ATOM      1  C   LIG A   1      -6.064  -4.245 132.321  0.00  0.00    +0.015 C 
ATOM      2  C   LIG A   1      -5.426  -2.999 131.630  0.00  0.00    +0.005 C 
ATOM      3  C   LIG A   1      -3.877  -3.319 131.530  0.00  0.00    +0.182 C 
ATOM      4  C   LIG A   1      -3.249  -3.465 130.127  0.00  0.00    +0.046 C 
ATOM      5  C   LIG A   1      -4.190  -3.426 128.924  0.00  0.00    +0.011 C 
ATOM      6  C   LIG A   1      -5.289  -2.340 129.053  0.00  0.00    -0.025 C 
ATOM      7  C   LIG A   1      -6.177  -2.821 130.236  0.00  0.00    +0.004 C 
ATOM      8  C   LIG A   1      -7.465  -1.982 130.337  0.00  0.00    +0.005 C 
ATOM      9  C   LIG A   1      -8.292  -2.048 129.067  0.00  0.00    +0.008 C 
ATOM     10  C   LIG A   1      -7.579  -1.548 127.785  0.00  0.00    -0.019 C 
ATOM     11  C   LIG A   1      -6.141  -2.229 127.702  0.00  0.00    +0.006 C 
ATOM     12  C   LIG A   1      -5.381  -1.630 126.499  0.00  0.00    +0.031 C 
ATOM     13  C   LIG A   1      -5.304  -0.136 126.530  0.00  0.00    -0.026 C 
ATOM     14  C   LIG A   1      -6.217   0.685 127.084  0.00  0.00    -0.063 C 
ATOM     15  C   LIG A   1      -7.576   0.126 127.565  0.00  0.00    -0.002 C 
ATOM     16  C   LIG A   1      -8.109   1.012 128.759  0.00  0.00    +0.057 C 
ATOM     17  C   LIG A   1      -7.086   1.821 129.581  0.00  0.00    +0.184 C 
ATOM     18  C   LIG A   1      -6.097   2.708 128.705  0.00  0.00    +0.012 C 
ATOM     19  C   LIG A   1      -6.041   2.225 127.203  0.00  0.00    +0.028 C 
ATOM     20  C   LIG A   1      -4.834   2.825 126.383  0.00  0.00    -0.003 C 
ATOM     21  C   LIG A   1      -3.483   2.767 127.147  0.00  0.00    -0.011 C 
ATOM     22  C   LIG A   1      -3.577   3.312 128.574  0.00  0.00    +0.004 C 
ATOM     23  C   LIG A   1      -4.692   2.639 129.366  0.00  0.00    +0.011 C 
ATOM     24  C   LIG A   1      -2.339   3.463 126.401  0.00  0.00    +0.008 C 
ATOM     25  C   LIG A   1      -5.137   4.219 125.797  0.00  0.00    +0.008 C 
ATOM     26  C   LIG A   1      -6.533   4.201 128.750  0.00  0.00    +0.015 C 
ATOM     27  C   LIG A   1      -8.579   0.476 126.407  0.00  0.00    +0.016 C 
ATOM     28  C   LIG A   1      -8.410  -2.256 126.641  0.00  0.00    +0.012 C 
ATOM     29  C   LIG A   1      -4.606  -1.011 129.357  0.00  0.00    +0.012 C 
ATOM     30  C   LIG A   1      -5.722  -1.821 132.597  0.00  0.00    +0.015 C 
ENDROOT
BRANCH   3  31
ATOM     31  O   LIG A   1      -3.062  -2.316 132.222  0.00  0.00    -0.461 OA
BRANCH  31  32
ATOM     32  C   LIG A   1      -2.533  -2.623 133.435  0.00  0.00    +0.304 C 
ATOM     33  C   LIG A   1      -2.176  -1.387 134.208  0.00  0.00    +0.136 C 
ATOM     34  O   LIG A   1      -2.323  -3.762 133.859  0.00  0.00    -0.251 OA
ENDBRANCH  31  32
ENDBRANCH   3  31
BRANCH  17  35
ATOM     35  O   LIG A   1      -7.746   2.684 130.567  0.00  0.00    -0.461 OA
BRANCH  35  36
ATOM     36  C   LIG A   1      -7.467   2.530 131.890  0.00  0.00    +0.304 C 
ATOM     37  C   LIG A   1      -8.082   1.269 132.424  0.00  0.00    +0.136 C 
ATOM     38  O   LIG A   1      -6.867   3.326 132.595  0.00  0.00    -0.251 OA
ENDBRANCH  35  36
ENDBRANCH  17  35
TORSDOF 4
ENDMDL
MODEL 3
REMARK VINA RESULT:      -8.8      2.640      4.905
REMARK  Name = NuBBE_1356
REMARK  14 active torsions:
REMARK  status: ('A' for Active; 'I' for Inactive)
REMARK    1  A    between atoms: C_1  and  C_2
REMARK    2  A    between atoms: C_2  and  C_42
REMARK    3  A    between atoms: C_3  and  O_4
REMARK    4  A    between atoms: O_4  and  C_5
REMARK    5  A    between atoms: C_5  and  C_6
REMARK    6  A    between atoms: C_10  and  C_40
REMARK    7  A    between atoms: C_14  and  C_39
REMARK    8  A    between atoms: C_19  and  C_38
REMARK    9  A    between atoms: C_21  and  O_34
REMARK   10  A    between atoms: C_23  and  C_33
REMARK   11  A    between atoms: C_25  and  C_32
REMARK   12  A    between atoms: C_27  and  C_31
REMARK   13  A    between atoms: O_34  and  C_35
REMARK   14  A    between atoms: C_35  and  C_36
REMARK                            x       y       z     vdW  Elec       q    Type
REMARK                         _______ _______ _______ _____ _____    ______ ____
ROOT
ATOM      1  C   LIG A   1      -7.184   2.103 123.135  0.00  0.00    +0.015 C 
ATOM      2  C   LIG A   1      -7.399   1.608 124.599  0.00  0.00    +0.005 C 
ATOM      3  C   LIG A   1      -7.278   0.029 124.533  0.00  0.00    +0.182 C 
ATOM      4  C   LIG A   1      -6.112  -0.647 125.288  0.00  0.00    +0.046 C 
ATOM      5  C   LIG A   1      -5.071   0.261 125.939  0.00  0.00    +0.011 C 
ATOM      6  C   LIG A   1      -5.700   1.489 126.647  0.00  0.00    -0.025 C 
ATOM      7  C   LIG A   1      -6.301   2.341 125.491  0.00  0.00    +0.004 C 
ATOM      8  C   LIG A   1      -6.747   3.724 125.999  0.00  0.00    +0.005 C 
ATOM      9  C   LIG A   1      -5.601   4.505 126.615  0.00  0.00    +0.008 C 
ATOM     10  C   LIG A   1      -4.915   3.827 127.828  0.00  0.00    -0.019 C 
ATOM     11  C   LIG A   1      -4.588   2.315 127.451  0.00  0.00    +0.006 C 
ATOM     12  C   LIG A   1      -4.027   1.605 128.701  0.00  0.00    +0.031 C 
ATOM     13  C   LIG A   1      -4.919   1.714 129.897  0.00  0.00    -0.026 C 
ATOM     14  C   LIG A   1      -5.758   2.735 130.158  0.00  0.00    -0.063 C 
ATOM     15  C   LIG A   1      -5.701   4.027 129.308  0.00  0.00    -0.002 C 
ATOM     16  C   LIG A   1      -7.131   4.695 129.283  0.00  0.00    +0.057 C 
ATOM     17  C   LIG A   1      -8.360   3.801 129.544  0.00  0.00    +0.184 C 
ATOM     18  C   LIG A   1      -8.251   2.908 130.857  0.00  0.00    +0.012 C 
ATOM     19  C   LIG A   1      -6.758   2.755 131.348  0.00  0.00    +0.028 C 
ATOM     20  C   LIG A   1      -6.550   1.611 132.415  0.00  0.00    -0.003 C 
ATOM     21  C   LIG A   1      -7.262   0.284 132.039  0.00  0.00    -0.011 C 
ATOM     22  C   LIG A   1      -8.726   0.480 131.639  0.00  0.00    +0.004 C 
ATOM     23  C   LIG A   1      -8.879   1.522 130.537  0.00  0.00    +0.011 C 
ATOM     24  C   LIG A   1      -7.164  -0.784 133.135  0.00  0.00    +0.008 C 
ATOM     25  C   LIG A   1      -6.849   2.071 133.856  0.00  0.00    +0.008 C 
ATOM     26  C   LIG A   1      -9.108   3.527 131.999  0.00  0.00    +0.015 C 
ATOM     27  C   LIG A   1      -4.869   5.035 130.181  0.00  0.00    +0.016 C 
ATOM     28  C   LIG A   1      -3.500   4.535 127.851  0.00  0.00    +0.012 C 
ATOM     29  C   LIG A   1      -6.776   0.984 127.602  0.00  0.00    +0.012 C 
ATOM     30  C   LIG A   1      -8.837   2.072 124.961  0.00  0.00    +0.015 C 
ENDROOT
BRANCH   3  31
ATOM     31  O   LIG A   1      -8.493  -0.637 125.011  0.00  0.00    -0.461 OA
BRANCH  31  32
ATOM     32  C   LIG A   1      -8.962  -1.715 124.328  0.00  0.00    +0.304 C 
ATOM     33  C   LIG A   1      -8.716  -1.582 122.854  0.00  0.00    +0.136 C 
ATOM     34  O   LIG A   1      -9.556  -2.675 124.825  0.00  0.00    -0.251 OA
ENDBRANCH  31  32
ENDBRANCH   3  31
BRANCH  17  35
ATOM     35  O   LIG A   1      -9.596   4.588 129.609  0.00  0.00    -0.461 OA
BRANCH  35  36
ATOM     36  C   LIG A   1      -9.603   5.870 129.156  0.00  0.00    +0.304 C 
ATOM     37  C   LIG A   1      -9.600   6.844 130.299  0.00  0.00    +0.136 C 
ATOM     38  O   LIG A   1      -9.677   6.219 127.988  0.00  0.00    -0.251 OA
ENDBRANCH  35  36
ENDBRANCH  17  35
TORSDOF 4
ENDMDL
MODEL 4
REMARK VINA RESULT:      -8.4      3.826      7.302
REMARK  Name = NuBBE_1356
REMARK  14 active torsions:
REMARK  status: ('A' for Active; 'I' for Inactive)
REMARK    1  A    between atoms: C_1  and  C_2
REMARK    2  A    between atoms: C_2  and  C_42
REMARK    3  A    between atoms: C_3  and  O_4
REMARK    4  A    between atoms: O_4  and  C_5
REMARK    5  A    between atoms: C_5  and  C_6
REMARK    6  A    between atoms: C_10  and  C_40
REMARK    7  A    between atoms: C_14  and  C_39
REMARK    8  A    between atoms: C_19  and  C_38
REMARK    9  A    between atoms: C_21  and  O_34
REMARK   10  A    between atoms: C_23  and  C_33
REMARK   11  A    between atoms: C_25  and  C_32
REMARK   12  A    between atoms: C_27  and  C_31
REMARK   13  A    between atoms: O_34  and  C_35
REMARK   14  A    between atoms: C_35  and  C_36
REMARK                            x       y       z     vdW  Elec       q    Type
REMARK                         _______ _______ _______ _____ _____    ______ ____
ROOT
ATOM      1  C   LIG A   1      -7.745  -1.529 132.744  0.00  0.00    +0.015 C 
ATOM      2  C   LIG A   1      -6.756  -0.443 132.216  0.00  0.00    +0.005 C 
ATOM      3  C   LIG A   1      -5.976  -1.129 131.019  0.00  0.00    +0.182 C 
ATOM      4  C   LIG A   1      -6.165  -0.554 129.598  0.00  0.00    +0.046 C 
ATOM      5  C   LIG A   1      -7.198   0.555 129.416  0.00  0.00    +0.011 C 
ATOM      6  C   LIG A   1      -7.167   1.602 130.560  0.00  0.00    -0.025 C 
ATOM      7  C   LIG A   1      -7.642   0.820 131.818  0.00  0.00    +0.004 C 
ATOM      8  C   LIG A   1      -7.908   1.777 132.996  0.00  0.00    +0.005 C 
ATOM      9  C   LIG A   1      -8.960   2.818 132.661  0.00  0.00    +0.008 C 
ATOM     10  C   LIG A   1      -8.623   3.735 131.458  0.00  0.00    -0.019 C 
ATOM     11  C   LIG A   1      -8.149   2.826 130.239  0.00  0.00    +0.006 C 
ATOM     12  C   LIG A   1      -7.688   3.745 129.088  0.00  0.00    +0.031 C 
ATOM     13  C   LIG A   1      -6.646   4.737 129.500  0.00  0.00    -0.026 C 
ATOM     14  C   LIG A   1      -6.511   5.266 130.732  0.00  0.00    -0.063 C 
ATOM     15  C   LIG A   1      -7.604   5.036 131.802  0.00  0.00    -0.002 C 
ATOM     16  C   LIG A   1      -6.943   5.076 133.235  0.00  0.00    +0.057 C 
ATOM     17  C   LIG A   1      -5.437   4.767 133.354  0.00  0.00    +0.184 C 
ATOM     18  C   LIG A   1      -4.518   5.602 132.358  0.00  0.00    +0.012 C 
ATOM     19  C   LIG A   1      -5.342   6.200 131.152  0.00  0.00    +0.028 C 
ATOM     20  C   LIG A   1      -4.446   6.725 129.964  0.00  0.00    -0.003 C 
ATOM     21  C   LIG A   1      -3.313   5.741 129.567  0.00  0.00    -0.011 C 
ATOM     22  C   LIG A   1      -2.501   5.246 130.766  0.00  0.00    +0.004 C 
ATOM     23  C   LIG A   1      -3.393   4.656 131.852  0.00  0.00    +0.011 C 
ATOM     24  C   LIG A   1      -2.369   6.308 128.500  0.00  0.00    +0.008 C 
ATOM     25  C   LIG A   1      -3.946   8.168 130.180  0.00  0.00    +0.008 C 
ATOM     26  C   LIG A   1      -3.811   6.758 133.123  0.00  0.00    +0.015 C 
ATOM     27  C   LIG A   1      -8.458   6.355 131.784  0.00  0.00    +0.016 C 
ATOM     28  C   LIG A   1     -10.053   4.252 131.021  0.00  0.00    +0.012 C 
ATOM     29  C   LIG A   1      -5.733   2.099 130.705  0.00  0.00    +0.012 C 
ATOM     30  C   LIG A   1      -5.829  -0.138 133.424  0.00  0.00    +0.015 C 
ENDROOT
BRANCH   3  31
ATOM     31  O   LIG A   1      -4.528  -1.149 131.245  0.00  0.00    -0.461 OA
BRANCH  31  32
ATOM     32  C   LIG A   1      -3.829  -2.269 130.925  0.00  0.00    +0.304 C 
ATOM     33  C   LIG A   1      -4.584  -3.513 131.291  0.00  0.00    +0.136 C 
ATOM     34  O   LIG A   1      -2.697  -2.292 130.434  0.00  0.00    -0.251 OA
ENDBRANCH  31  32
ENDBRANCH   3  31
BRANCH  17  35
ATOM     35  O   LIG A   1      -4.951   4.966 134.724  0.00  0.00    -0.461 OA
BRANCH  35  36
ATOM     36  C   LIG A   1      -4.882   3.905 135.574  0.00  0.00    +0.304 C 
ATOM     37  C   LIG A   1      -4.079   2.788 134.973  0.00  0.00    +0.136 C 
ATOM     38  O   LIG A   1      -5.446   3.811 136.653  0.00  0.00    -0.251 OA
ENDBRANCH  35  36
ENDBRANCH  17  35
TORSDOF 4
ENDMDL
MODEL 5
REMARK VINA RESULT:      -8.2      5.196      8.827
REMARK  Name = NuBBE_1356
REMARK  14 active torsions:
REMARK  status: ('A' for Active; 'I' for Inactive)
REMARK    1  A    between atoms: C_1  and  C_2
REMARK    2  A    between atoms: C_2  and  C_42
REMARK    3  A    between atoms: C_3  and  O_4
REMARK    4  A    between atoms: O_4  and  C_5
REMARK    5  A    between atoms: C_5  and  C_6
REMARK    6  A    between atoms: C_10  and  C_40
REMARK    7  A    between atoms: C_14  and  C_39
REMARK    8  A    between atoms: C_19  and  C_38
REMARK    9  A    between atoms: C_21  and  O_34
REMARK   10  A    between atoms: C_23  and  C_33
REMARK   11  A    between atoms: C_25  and  C_32
REMARK   12  A    between atoms: C_27  and  C_31
REMARK   13  A    between atoms: O_34  and  C_35
REMARK   14  A    between atoms: C_35  and  C_36
REMARK                            x       y       z     vdW  Elec       q    Type
REMARK                         _______ _______ _______ _____ _____    ______ ____
ROOT
ATOM      1  C   LIG A   1      -0.613   5.600 132.786  0.00  0.00    +0.015 C 
ATOM      2  C   LIG A   1      -2.095   5.918 132.415  0.00  0.00    +0.005 C 
ATOM      3  C   LIG A   1      -2.035   7.218 131.511  0.00  0.00    +0.182 C 
ATOM      4  C   LIG A   1      -2.492   7.108 130.040  0.00  0.00    +0.046 C 
ATOM      5  C   LIG A   1      -2.846   5.720 129.512  0.00  0.00    +0.011 C 
ATOM      6  C   LIG A   1      -3.661   4.877 130.528  0.00  0.00    -0.025 C 
ATOM      7  C   LIG A   1      -2.672   4.616 131.700  0.00  0.00    +0.004 C 
ATOM      8  C   LIG A   1      -3.244   3.579 132.685  0.00  0.00    +0.005 C 
ATOM      9  C   LIG A   1      -3.541   2.252 132.011  0.00  0.00    +0.008 C 
ATOM     10  C   LIG A   1      -4.560   2.315 130.846  0.00  0.00    -0.019 C 
ATOM     11  C   LIG A   1      -4.146   3.501 129.868  0.00  0.00    +0.006 C 
ATOM     12  C   LIG A   1      -5.234   3.648 128.783  0.00  0.00    +0.031 C 
ATOM     13  C   LIG A   1      -6.611   3.823 129.342  0.00  0.00    -0.026 C 
ATOM     14  C   LIG A   1      -7.050   3.328 130.515  0.00  0.00    -0.063 C 
ATOM     15  C   LIG A   1      -6.184   2.318 131.306  0.00  0.00    -0.002 C 
ATOM     16  C   LIG A   1      -6.499   2.460 132.846  0.00  0.00    +0.057 C 
ATOM     17  C   LIG A   1      -7.076   3.797 133.354  0.00  0.00    +0.184 C 
ATOM     18  C   LIG A   1      -8.340   4.315 132.538  0.00  0.00    +0.012 C 
ATOM     19  C   LIG A   1      -8.449   3.634 131.118  0.00  0.00    +0.028 C 
ATOM     20  C   LIG A   1      -9.455   4.354 130.139  0.00  0.00    -0.003 C 
ATOM     21  C   LIG A   1      -9.296   5.898 130.121  0.00  0.00    -0.011 C 
ATOM     22  C   LIG A   1      -9.267   6.515 131.521  0.00  0.00    +0.004 C 
ATOM     23  C   LIG A   1      -8.215   5.860 132.408  0.00  0.00    +0.011 C 
ATOM     24  C   LIG A   1     -10.356   6.603 129.267  0.00  0.00    +0.008 C 
ATOM     25  C   LIG A   1     -10.916   3.899 130.336  0.00  0.00    +0.008 C 
ATOM     26  C   LIG A   1      -9.645   4.045 133.341  0.00  0.00    +0.015 C 
ATOM     27  C   LIG A   1      -6.802   0.915 130.960  0.00  0.00    +0.016 C 
ATOM     28  C   LIG A   1      -4.217   1.004 130.030  0.00  0.00    +0.012 C 
ATOM     29  C   LIG A   1      -4.863   5.704 130.970  0.00  0.00    +0.012 C 
ATOM     30  C   LIG A   1      -2.791   6.181 133.778  0.00  0.00    +0.015 C 
ENDROOT
BRANCH   3  31
ATOM     31  O   LIG A   1      -2.812   8.322 132.082  0.00  0.00    -0.461 OA
BRANCH  31  32
ATOM     32  C   LIG A   1      -2.180   9.490 132.370  0.00  0.00    +0.304 C 
ATOM     33  C   LIG A   1      -0.978   9.265 133.238  0.00  0.00    +0.136 C 
ATOM     34  O   LIG A   1      -2.548  10.612 132.011  0.00  0.00    -0.251 OA
ENDBRANCH  31  32
ENDBRANCH   3  31
BRANCH  17  35
ATOM     35  O   LIG A   1      -7.428   3.728 134.777  0.00  0.00    -0.461 OA
BRANCH  35  36
ATOM     36  C   LIG A   1      -6.757   4.500 135.674  0.00  0.00    +0.304 C 
ATOM     37  C   LIG A   1      -7.519   5.758 135.974  0.00  0.00    +0.136 C 
ATOM     38  O   LIG A   1      -5.650   4.269 136.135  0.00  0.00    -0.251 OA
ENDBRANCH  35  36
ENDBRANCH  17  35
TORSDOF 4
ENDMDL
MODEL 6
REMARK VINA RESULT:      -8.2      2.545      5.402
REMARK  Name = NuBBE_1356
REMARK  14 active torsions:
REMARK  status: ('A' for Active; 'I' for Inactive)
REMARK    1  A    between atoms: C_1  and  C_2
REMARK    2  A    between atoms: C_2  and  C_42
REMARK    3  A    between atoms: C_3  and  O_4
REMARK    4  A    between atoms: O_4  and  C_5
REMARK    5  A    between atoms: C_5  and  C_6
REMARK    6  A    between atoms: C_10  and  C_40
REMARK    7  A    between atoms: C_14  and  C_39
REMARK    8  A    between atoms: C_19  and  C_38
REMARK    9  A    between atoms: C_21  and  O_34
REMARK   10  A    between atoms: C_23  and  C_33
REMARK   11  A    between atoms: C_25  and  C_32
REMARK   12  A    between atoms: C_27  and  C_31
REMARK   13  A    between atoms: O_34  and  C_35
REMARK   14  A    between atoms: C_35  and  C_36
REMARK                            x       y       z     vdW  Elec       q    Type
REMARK                         _______ _______ _______ _____ _____    ______ ____
ROOT
ATOM      1  C   LIG A   1      -8.662   1.208 124.417  0.00  0.00    +0.015 C 
ATOM      2  C   LIG A   1      -8.009   0.881 125.796  0.00  0.00    +0.005 C 
ATOM      3  C   LIG A   1      -7.399  -0.574 125.640  0.00  0.00    +0.182 C 
ATOM      4  C   LIG A   1      -5.867  -0.739 125.738  0.00  0.00    +0.046 C 
ATOM      5  C   LIG A   1      -5.025   0.531 125.844  0.00  0.00    +0.011 C 
ATOM      6  C   LIG A   1      -5.643   1.587 126.796  0.00  0.00    -0.025 C 
ATOM      7  C   LIG A   1      -6.951   2.037 126.083  0.00  0.00    +0.004 C 
ATOM      8  C   LIG A   1      -7.563   3.269 126.776  0.00  0.00    +0.005 C 
ATOM      9  C   LIG A   1      -6.607   4.447 126.798  0.00  0.00    +0.008 C 
ATOM     10  C   LIG A   1      -5.262   4.194 127.526  0.00  0.00    -0.019 C 
ATOM     11  C   LIG A   1      -4.646   2.823 127.000  0.00  0.00    +0.006 C 
ATOM     12  C   LIG A   1      -3.377   2.507 127.820  0.00  0.00    +0.031 C 
ATOM     13  C   LIG A   1      -3.610   2.498 129.297  0.00  0.00    -0.026 C 
ATOM     14  C   LIG A   1      -4.533   3.232 129.950  0.00  0.00    -0.063 C 
ATOM     15  C   LIG A   1      -5.310   4.344 129.207  0.00  0.00    -0.002 C 
ATOM     16  C   LIG A   1      -6.729   4.521 129.876  0.00  0.00    +0.057 C 
ATOM     17  C   LIG A   1      -7.319   3.334 130.664  0.00  0.00    +0.184 C 
ATOM     18  C   LIG A   1      -6.331   2.713 131.746  0.00  0.00    +0.012 C 
ATOM     19  C   LIG A   1      -4.827   3.104 131.471  0.00  0.00    +0.028 C 
ATOM     20  C   LIG A   1      -3.783   2.245 132.283  0.00  0.00    -0.003 C 
ATOM     21  C   LIG A   1      -4.086   0.722 132.254  0.00  0.00    -0.011 C 
ATOM     22  C   LIG A   1      -5.541   0.393 132.597  0.00  0.00    +0.004 C 
ATOM     23  C   LIG A   1      -6.520   1.170 131.725  0.00  0.00    +0.011 C 
ATOM     24  C   LIG A   1      -3.146  -0.096 133.146  0.00  0.00    +0.008 C 
ATOM     25  C   LIG A   1      -3.536   2.785 133.707  0.00  0.00    +0.008 C 
ATOM     26  C   LIG A   1      -6.734   3.187 133.173  0.00  0.00    +0.015 C 
ATOM     27  C   LIG A   1      -4.575   5.674 129.609  0.00  0.00    +0.016 C 
ATOM     28  C   LIG A   1      -4.328   5.305 126.897  0.00  0.00    +0.012 C 
ATOM     29  C   LIG A   1      -5.927   0.910 128.132  0.00  0.00    +0.012 C 
ATOM     30  C   LIG A   1      -9.189   0.918 126.805  0.00  0.00    +0.015 C 
ENDROOT
BRANCH   3  31
ATOM     31  O   LIG A   1      -7.958  -1.513 126.617  0.00  0.00    -0.461 OA
BRANCH  31  32
ATOM     32  C   LIG A   1      -8.878  -2.423 126.202  0.00  0.00    +0.304 C 
ATOM     33  C   LIG A   1      -8.903  -3.627 127.097  0.00  0.00    +0.136 C 
ATOM     34  O   LIG A   1      -9.587  -2.319 125.198  0.00  0.00    -0.251 OA
ENDBRANCH  31  32
ENDBRANCH   3  31
BRANCH  17  35
ATOM     35  O   LIG A   1      -8.578   3.696 131.325  0.00  0.00    -0.461 OA
BRANCH  35  36
ATOM     36  C   LIG A   1      -9.737   3.101 130.935  0.00  0.00    +0.304 C 
ATOM     37  C   LIG A   1     -10.074   1.943 131.829  0.00  0.00    +0.136 C 
ATOM     38  O   LIG A   1     -10.400   3.394 129.952  0.00  0.00    -0.251 OA
ENDBRANCH  35  36
ENDBRANCH  17  35
TORSDOF 4
ENDMDL
MODEL 7
REMARK VINA RESULT:      -8.2      4.862      7.895
REMARK  Name = NuBBE_1356
REMARK  14 active torsions:
REMARK  status: ('A' for Active; 'I' for Inactive)
REMARK    1  A    between atoms: C_1  and  C_2
REMARK    2  A    between atoms: C_2  and  C_42
REMARK    3  A    between atoms: C_3  and  O_4
REMARK    4  A    between atoms: O_4  and  C_5
REMARK    5  A    between atoms: C_5  and  C_6
REMARK    6  A    between atoms: C_10  and  C_40
REMARK    7  A    between atoms: C_14  and  C_39
REMARK    8  A    between atoms: C_19  and  C_38
REMARK    9  A    between atoms: C_21  and  O_34
REMARK   10  A    between atoms: C_23  and  C_33
REMARK   11  A    between atoms: C_25  and  C_32
REMARK   12  A    between atoms: C_27  and  C_31
REMARK   13  A    between atoms: O_34  and  C_35
REMARK   14  A    between atoms: C_35  and  C_36
REMARK                            x       y       z     vdW  Elec       q    Type
REMARK                         _______ _______ _______ _____ _____    ______ ____
ROOT
ATOM      1  C   LIG A   1      -1.964   3.432 132.610  0.00  0.00    +0.015 C 
ATOM      2  C   LIG A   1      -3.177   4.176 131.968  0.00  0.00    +0.005 C 
ATOM      3  C   LIG A   1      -2.627   4.790 130.614  0.00  0.00    +0.182 C 
ATOM      4  C   LIG A   1      -3.219   4.275 129.284  0.00  0.00    +0.046 C 
ATOM      5  C   LIG A   1      -4.202   3.108 129.353  0.00  0.00    +0.011 C 
ATOM      6  C   LIG A   1      -5.209   3.236 130.525  0.00  0.00    -0.025 C 
ATOM      7  C   LIG A   1      -4.336   3.095 131.806  0.00  0.00    +0.004 C 
ATOM      8  C   LIG A   1      -5.217   2.949 133.061  0.00  0.00    +0.005 C 
ATOM      9  C   LIG A   1      -6.135   1.743 132.980  0.00  0.00    +0.008 C 
ATOM     10  C   LIG A   1      -7.122   1.743 131.785  0.00  0.00    -0.019 C 
ATOM     11  C   LIG A   1      -6.316   2.080 130.454  0.00  0.00    +0.006 C 
ATOM     12  C   LIG A   1      -7.319   2.211 129.289  0.00  0.00    +0.031 C 
ATOM     13  C   LIG A   1      -8.415   3.193 129.556  0.00  0.00    -0.026 C 
ATOM     14  C   LIG A   1      -8.918   3.497 130.768  0.00  0.00    -0.063 C 
ATOM     15  C   LIG A   1      -8.525   2.657 132.007  0.00  0.00    -0.002 C 
ATOM     16  C   LIG A   1      -8.599   3.566 133.295  0.00  0.00    +0.057 C 
ATOM     17  C   LIG A   1      -8.470   5.092 133.121  0.00  0.00    +0.184 C 
ATOM     18  C   LIG A   1      -9.440   5.709 132.019  0.00  0.00    +0.012 C 
ATOM     19  C   LIG A   1      -9.972   4.611 131.017  0.00  0.00    +0.028 C 
ATOM     20  C   LIG A   1     -10.638   5.204 129.715  0.00  0.00    -0.003 C 
ATOM     21  C   LIG A   1      -9.810   6.346 129.067  0.00  0.00    -0.011 C 
ATOM     22  C   LIG A   1      -9.379   7.419 130.070  0.00  0.00    +0.004 C 
ATOM     23  C   LIG A   1      -8.653   6.818 131.267  0.00  0.00    +0.011 C 
ATOM     24  C   LIG A   1     -10.519   7.004 127.877  0.00  0.00    +0.008 C 
ATOM     25  C   LIG A   1     -12.123   5.571 129.912  0.00  0.00    +0.008 C 
ATOM     26  C   LIG A   1     -10.648   6.412 132.703  0.00  0.00    +0.015 C 
ATOM     27  C   LIG A   1      -9.732   1.672 132.214  0.00  0.00    +0.016 C 
ATOM     28  C   LIG A   1      -7.477   0.208 131.644  0.00  0.00    +0.012 C 
ATOM     29  C   LIG A   1      -5.870   4.607 130.433  0.00  0.00    +0.012 C 
ATOM     30  C   LIG A   1      -3.553   5.273 133.001  0.00  0.00    +0.015 C 
ENDROOT
BRANCH   3  31
ATOM     31  O   LIG A   1      -2.775   6.248 130.571  0.00  0.00    -0.461 OA
BRANCH  31  32
ATOM     32  C   LIG A   1      -2.690   6.881 129.372  0.00  0.00    +0.304 C 
ATOM     33  C   LIG A   1      -3.795   7.882 129.199  0.00  0.00    +0.136 C 
ATOM     34  O   LIG A   1      -1.848   6.655 128.499  0.00  0.00    -0.251 OA
ENDBRANCH  31  32
ENDBRANCH   3  31
BRANCH  17  35
ATOM     35  O   LIG A   1      -8.683   5.801 134.388  0.00  0.00    -0.461 OA
BRANCH  35  36
ATOM     36  C   LIG A   1      -7.651   5.936 135.264  0.00  0.00    +0.304 C 
ATOM     37  C   LIG A   1      -8.134   6.467 136.583  0.00  0.00    +0.136 C 
ATOM     38  O   LIG A   1      -6.471   5.734 135.022  0.00  0.00    -0.251 OA
ENDBRANCH  35  36
ENDBRANCH  17  35
TORSDOF 4
ENDMDL
MODEL 8
REMARK VINA RESULT:      -8.2      2.746      3.834
REMARK  Name = NuBBE_1356
REMARK  14 active torsions:
REMARK  status: ('A' for Active; 'I' for Inactive)
REMARK    1  A    between atoms: C_1  and  C_2
REMARK    2  A    between atoms: C_2  and  C_42
REMARK    3  A    between atoms: C_3  and  O_4
REMARK    4  A    between atoms: O_4  and  C_5
REMARK    5  A    between atoms: C_5  and  C_6
REMARK    6  A    between atoms: C_10  and  C_40
REMARK    7  A    between atoms: C_14  and  C_39
REMARK    8  A    between atoms: C_19  and  C_38
REMARK    9  A    between atoms: C_21  and  O_34
REMARK   10  A    between atoms: C_23  and  C_33
REMARK   11  A    between atoms: C_25  and  C_32
REMARK   12  A    between atoms: C_27  and  C_31
REMARK   13  A    between atoms: O_34  and  C_35
REMARK   14  A    between atoms: C_35  and  C_36
REMARK                            x       y       z     vdW  Elec       q    Type
REMARK                         _______ _______ _______ _____ _____    ______ ____
ROOT
ATOM      1  C   LIG A   1      -5.067   0.150 125.910  0.00  0.00    +0.015 C 
ATOM      2  C   LIG A   1      -5.728   1.246 126.802  0.00  0.00    +0.005 C 
ATOM      3  C   LIG A   1      -7.041   1.686 126.028  0.00  0.00    +0.182 C 
ATOM      4  C   LIG A   1      -8.407   1.407 126.690  0.00  0.00    +0.046 C 
ATOM      5  C   LIG A   1      -8.413   0.603 127.988  0.00  0.00    +0.011 C 
ATOM      6  C   LIG A   1      -7.275   1.014 128.958  0.00  0.00    -0.025 C 
ATOM      7  C   LIG A   1      -5.968   0.584 128.231  0.00  0.00    +0.004 C 
ATOM      8  C   LIG A   1      -4.752   0.695 129.169  0.00  0.00    +0.005 C 
ATOM      9  C   LIG A   1      -4.906  -0.164 130.411  0.00  0.00    +0.008 C 
ATOM     10  C   LIG A   1      -6.136   0.167 131.295  0.00  0.00    -0.019 C 
ATOM     11  C   LIG A   1      -7.424   0.262 130.364  0.00  0.00    +0.006 C 
ATOM     12  C   LIG A   1      -8.621   0.722 131.224  0.00  0.00    +0.031 C 
ATOM     13  C   LIG A   1      -8.362   1.991 131.972  0.00  0.00    -0.026 C 
ATOM     14  C   LIG A   1      -7.160   2.412 132.410  0.00  0.00    -0.063 C 
ATOM     15  C   LIG A   1      -5.936   1.467 132.353  0.00  0.00    -0.002 C 
ATOM     16  C   LIG A   1      -4.622   2.329 132.199  0.00  0.00    +0.057 C 
ATOM     17  C   LIG A   1      -4.742   3.742 131.596  0.00  0.00    +0.184 C 
ATOM     18  C   LIG A   1      -5.857   4.652 132.276  0.00  0.00    +0.012 C 
ATOM     19  C   LIG A   1      -6.914   3.795 133.077  0.00  0.00    +0.028 C 
ATOM     20  C   LIG A   1      -8.219   4.590 133.466  0.00  0.00    -0.003 C 
ATOM     21  C   LIG A   1      -8.799   5.430 132.296  0.00  0.00    -0.011 C 
ATOM     22  C   LIG A   1      -7.746   6.296 131.599  0.00  0.00    +0.004 C 
ATOM     23  C   LIG A   1      -6.543   5.475 131.150  0.00  0.00    +0.011 C 
ATOM     24  C   LIG A   1      -9.991   6.299 132.711  0.00  0.00    +0.008 C 
ATOM     25  C   LIG A   1      -8.065   5.398 134.771  0.00  0.00    +0.008 C 
ATOM     26  C   LIG A   1      -5.196   5.683 133.236  0.00  0.00    +0.015 C 
ATOM     27  C   LIG A   1      -5.806   0.903 133.814  0.00  0.00    +0.016 C 
ATOM     28  C   LIG A   1      -6.339  -1.178 132.101  0.00  0.00    +0.012 C 
ATOM     29  C   LIG A   1      -7.346   2.524 129.156  0.00  0.00    +0.012 C 
ATOM     30  C   LIG A   1      -4.675   2.386 126.865  0.00  0.00    +0.015 C 
ENDROOT
BRANCH   3  31
ATOM     31  O   LIG A   1      -7.041   3.117 125.714  0.00  0.00    -0.461 OA
BRANCH  31  32
ATOM     32  C   LIG A   1      -8.089   3.637 125.023  0.00  0.00    +0.304 C 
ATOM     33  C   LIG A   1      -8.144   3.102 123.622  0.00  0.00    +0.136 C 
ATOM     34  O   LIG A   1      -8.886   4.475 125.451  0.00  0.00    -0.251 OA
ENDBRANCH  31  32
ENDBRANCH   3  31
BRANCH  17  35
ATOM     35  O   LIG A   1      -3.461   4.457 131.635  0.00  0.00    -0.461 OA
BRANCH  35  36
ATOM     36  C   LIG A   1      -2.893   4.883 130.475  0.00  0.00    +0.304 C 
ATOM     37  C   LIG A   1      -2.174   6.186 130.677  0.00  0.00    +0.136 C 
ATOM     38  O   LIG A   1      -2.997   4.346 129.383  0.00  0.00    -0.251 OA
ENDBRANCH  35  36
ENDBRANCH  17  35
TORSDOF 4
ENDMDL
MODEL 9
REMARK VINA RESULT:      -8.1      2.125      4.883
REMARK  Name = NuBBE_1356
REMARK  14 active torsions:
REMARK  status: ('A' for Active; 'I' for Inactive)
REMARK    1  A    between atoms: C_1  and  C_2
REMARK    2  A    between atoms: C_2  and  C_42
REMARK    3  A    between atoms: C_3  and  O_4
REMARK    4  A    between atoms: O_4  and  C_5
REMARK    5  A    between atoms: C_5  and  C_6
REMARK    6  A    between atoms: C_10  and  C_40
REMARK    7  A    between atoms: C_14  and  C_39
REMARK    8  A    between atoms: C_19  and  C_38
REMARK    9  A    between atoms: C_21  and  O_34
REMARK   10  A    between atoms: C_23  and  C_33
REMARK   11  A    between atoms: C_25  and  C_32
REMARK   12  A    between atoms: C_27  and  C_31
REMARK   13  A    between atoms: O_34  and  C_35
REMARK   14  A    between atoms: C_35  and  C_36
REMARK                            x       y       z     vdW  Elec       q    Type
REMARK                         _______ _______ _______ _____ _____    ______ ____
ROOT
ATOM      1  C   LIG A   1      -8.267  -2.834 128.251  0.00  0.00    +0.015 C 
ATOM      2  C   LIG A   1      -7.420  -1.525 128.191  0.00  0.00    +0.005 C 
ATOM      3  C   LIG A   1      -7.439  -1.079 126.670  0.00  0.00    +0.182 C 
ATOM      4  C   LIG A   1      -8.125   0.256 126.308  0.00  0.00    +0.046 C 
ATOM      5  C   LIG A   1      -8.862   0.997 127.422  0.00  0.00    +0.011 C 
ATOM      6  C   LIG A   1      -8.088   0.989 128.766  0.00  0.00    -0.025 C 
ATOM      7  C   LIG A   1      -8.094  -0.503 129.211  0.00  0.00    +0.004 C 
ATOM      8  C   LIG A   1      -7.581  -0.651 130.655  0.00  0.00    +0.005 C 
ATOM      9  C   LIG A   1      -8.418   0.141 131.644  0.00  0.00    +0.008 C 
ATOM     10  C   LIG A   1      -8.478   1.668 131.386  0.00  0.00    -0.019 C 
ATOM     11  C   LIG A   1      -8.819   1.914 129.850  0.00  0.00    +0.006 C 
ATOM     12  C   LIG A   1      -8.747   3.430 129.566  0.00  0.00    +0.031 C 
ATOM     13  C   LIG A   1      -7.446   4.049 129.968  0.00  0.00    -0.026 C 
ATOM     14  C   LIG A   1      -6.654   3.626 130.973  0.00  0.00    -0.063 C 
ATOM     15  C   LIG A   1      -7.160   2.551 131.964  0.00  0.00    -0.002 C 
ATOM     16  C   LIG A   1      -5.928   1.732 132.515  0.00  0.00    +0.057 C 
ATOM     17  C   LIG A   1      -4.640   1.693 131.669  0.00  0.00    +0.184 C 
ATOM     18  C   LIG A   1      -4.120   3.124 131.203  0.00  0.00    +0.012 C 
ATOM     19  C   LIG A   1      -5.252   4.221 131.282  0.00  0.00    +0.028 C 
ATOM     20  C   LIG A   1      -4.906   5.553 130.511  0.00  0.00    -0.003 C 
ATOM     21  C   LIG A   1      -4.320   5.308 129.094  0.00  0.00    -0.011 C 
ATOM     22  C   LIG A   1      -3.179   4.289 129.085  0.00  0.00    +0.004 C 
ATOM     23  C   LIG A   1      -3.582   2.979 129.752  0.00  0.00    +0.011 C 
ATOM     24  C   LIG A   1      -3.868   6.597 128.399  0.00  0.00    +0.008 C 
ATOM     25  C   LIG A   1      -4.064   6.534 131.352  0.00  0.00    +0.008 C 
ATOM     26  C   LIG A   1      -2.911   3.566 132.079  0.00  0.00    +0.015 C 
ATOM     27  C   LIG A   1      -7.622   3.364 133.226  0.00  0.00    +0.016 C 
ATOM     28  C   LIG A   1      -9.801   2.084 132.147  0.00  0.00    +0.012 C 
ATOM     29  C   LIG A   1      -6.676   1.499 128.502  0.00  0.00    +0.012 C 
ATOM     30  C   LIG A   1      -6.003  -1.954 128.660  0.00  0.00    +0.015 C 
ENDROOT
BRANCH   3  31
ATOM     31  O   LIG A   1      -6.090  -0.992 126.105  0.00  0.00    -0.461 OA
BRANCH  31  32
ATOM     32  C   LIG A   1      -5.874  -1.455 124.846  0.00  0.00    +0.304 C 
ATOM     33  C   LIG A   1      -5.292  -2.838 124.861  0.00  0.00    +0.136 C 
ATOM     34  O   LIG A   1      -6.081  -0.826 123.805  0.00  0.00    -0.251 OA
ENDBRANCH  31  32
ENDBRANCH   3  31
BRANCH  17  35
ATOM     35  O   LIG A   1      -3.553   1.001 132.371  0.00  0.00    -0.461 OA
BRANCH  35  36
ATOM     36  C   LIG A   1      -3.667  -0.327 132.645  0.00  0.00    +0.304 C 
ATOM     37  C   LIG A   1      -3.763  -1.129 131.380  0.00  0.00    +0.136 C 
ATOM     38  O   LIG A   1      -3.760  -0.826 133.756  0.00  0.00    -0.251 OA
ENDBRANCH  35  36
ENDBRANCH  17  35
TORSDOF 4
ENDMDL
