MODEL 1
REMARK VINA RESULT:      -5.6      0.000      0.000
REMARK  Name = NuBBE_1861
REMARK  11 active torsions:
REMARK  status: ('A' for Active; 'I' for Inactive)
REMARK    1  A    between atoms: O_1  and  C_2
REMARK    2  A    between atoms: C_7  and  C_8
REMARK    3  A    between atoms: C_8  and  C_9
REMARK    4  A    between atoms: C_9  and  C_10
REMARK    5  A    between atoms: C_10  and  C_11
REMARK    6  A    between atoms: C_11  and  C_12
REMARK    7  A    between atoms: C_12  and  O_14
REMARK    8  A    between atoms: C_12  and  C_15
REMARK    9  A    between atoms: C_15  and  C_16
REMARK   10  A    between atoms: C_16  and  C_17
REMARK   11  A    between atoms: C_20  and  O_21
REMARK                            x       y       z     vdW  Elec       q    Type
REMARK                         _______ _______ _______ _____ _____    ______ ____
ROOT
ATOM      1  C   LIG A   1      -4.126   5.254 128.808  0.00  0.00    +0.115 C 
ENDROOT
BRANCH   1   2
ATOM      2  O   LIG A   1      -4.573   5.841 127.588  0.00  0.00    -0.392 OA
ATOM      3  H   LIG A   1      -5.200   5.220 127.177  0.00  0.00    +0.210 HD
ENDBRANCH   1   2
BRANCH   1   4
ATOM      4  C   LIG A   1      -4.131   6.334 129.903  0.00  0.00    +0.031 C 
BRANCH   4   5
ATOM      5  C   LIG A   1      -4.330   5.795 131.326  0.00  0.00    +0.003 C 
BRANCH   5   6
ATOM      6  C   LIG A   1      -5.613   6.303 132.004  0.00  0.00    +0.005 C 
BRANCH   6   7
ATOM      7  C   LIG A   1      -6.600   7.024 131.072  0.00  0.00    +0.035 C 
BRANCH   7  13
ATOM      8  C   LIG A   1     -10.793   6.282 131.790  0.00  0.00    +0.117 A 
ATOM      9  C   LIG A   1      -9.844   5.877 132.716  0.00  0.00    +0.045 A 
ATOM     10  C   LIG A   1      -8.488   6.105 132.466  0.00  0.00    +0.007 A 
ATOM     11  C   LIG A   1     -10.407   6.902 130.607  0.00  0.00    +0.045 A 
ATOM     12  C   LIG A   1      -9.053   7.131 130.360  0.00  0.00    +0.007 A 
ATOM     13  C   LIG A   1      -8.073   6.733 131.278  0.00  0.00    -0.047 A 
BRANCH   8  14
ATOM     14  O   LIG A   1     -12.126   6.084 131.993  0.00  0.00    -0.507 OA
ATOM     15  H   LIG A   1     -12.259   5.161 132.260  0.00  0.00    +0.292 HD
ENDBRANCH   8  14
ENDBRANCH   7  13
ENDBRANCH   6   7
ENDBRANCH   5   6
ENDBRANCH   4   5
ENDBRANCH   1   4
BRANCH   1  16
ATOM     16  C   LIG A   1      -4.980   4.015 129.118  0.00  0.00    +0.036 C 
BRANCH  16  17
ATOM     17  C   LIG A   1      -6.423   4.148 128.628  0.00  0.00    +0.037 C 
BRANCH  17  18
ATOM     18  C   LIG A   1      -7.421   3.602 129.617  0.00  0.00    -0.047 A 
ATOM     19  C   LIG A   1      -6.990   3.091 130.850  0.00  0.00    +0.007 A 
ATOM     20  C   LIG A   1      -7.907   2.563 131.760  0.00  0.00    +0.045 A 
ATOM     21  C   LIG A   1      -9.258   2.551 131.438  0.00  0.00    +0.117 A 
ATOM     22  C   LIG A   1      -9.708   3.072 130.229  0.00  0.00    +0.045 A 
ATOM     23  C   LIG A   1      -8.789   3.598 129.319  0.00  0.00    +0.007 A 
BRANCH  21  24
ATOM     24  O   LIG A   1     -10.187   2.024 132.286  0.00  0.00    -0.507 OA
ATOM     25  H   LIG A   1     -10.733   2.751 132.628  0.00  0.00    +0.292 HD
ENDBRANCH  21  24
ENDBRANCH  17  18
ENDBRANCH  16  17
ENDBRANCH   1  16
TORSDOF 11
ENDMDL
MODEL 2
REMARK VINA RESULT:      -5.6      6.306      7.889
REMARK  Name = NuBBE_1861
REMARK  11 active torsions:
REMARK  status: ('A' for Active; 'I' for Inactive)
REMARK    1  A    between atoms: O_1  and  C_2
REMARK    2  A    between atoms: C_7  and  C_8
REMARK    3  A    between atoms: C_8  and  C_9
REMARK    4  A    between atoms: C_9  and  C_10
REMARK    5  A    between atoms: C_10  and  C_11
REMARK    6  A    between atoms: C_11  and  C_12
REMARK    7  A    between atoms: C_12  and  O_14
REMARK    8  A    between atoms: C_12  and  C_15
REMARK    9  A    between atoms: C_15  and  C_16
REMARK   10  A    between atoms: C_16  and  C_17
REMARK   11  A    between atoms: C_20  and  O_21
REMARK                            x       y       z     vdW  Elec       q    Type
REMARK                         _______ _______ _______ _____ _____    ______ ____
ROOT
ATOM      1  C   LIG A   1      -5.289   1.425 127.255  0.00  0.00    +0.115 C 
ENDROOT
BRANCH   1   2
ATOM      2  O   LIG A   1      -4.505   1.125 128.407  0.00  0.00    -0.392 OA
ATOM      3  H   LIG A   1      -3.958   0.348 128.195  0.00  0.00    +0.210 HD
ENDBRANCH   1   2
BRANCH   1   4
ATOM      4  C   LIG A   1      -4.375   2.054 126.189  0.00  0.00    +0.031 C 
BRANCH   4   5
ATOM      5  C   LIG A   1      -4.725   3.504 125.829  0.00  0.00    +0.003 C 
BRANCH   5   6
ATOM      6  C   LIG A   1      -5.714   3.626 124.658  0.00  0.00    +0.005 C 
BRANCH   6   7
ATOM      7  C   LIG A   1      -7.189   3.777 125.065  0.00  0.00    +0.035 C 
BRANCH   7  13
ATOM      8  C   LIG A   1     -10.126   1.162 123.281  0.00  0.00    +0.117 A 
ATOM      9  C   LIG A   1     -10.013   1.246 124.661  0.00  0.00    +0.045 A 
ATOM     10  C   LIG A   1      -9.046   2.081 125.228  0.00  0.00    +0.007 A 
ATOM     11  C   LIG A   1      -9.278   1.892 122.456  0.00  0.00    +0.045 A 
ATOM     12  C   LIG A   1      -8.315   2.727 123.025  0.00  0.00    +0.007 A 
ATOM     13  C   LIG A   1      -8.178   2.832 124.414  0.00  0.00    -0.047 A 
BRANCH   8  14
ATOM     14  O   LIG A   1     -11.056   0.364 122.683  0.00  0.00    -0.507 OA
ATOM     15  H   LIG A   1     -10.590  -0.347 122.216  0.00  0.00    +0.292 HD
ENDBRANCH   8  14
ENDBRANCH   7  13
ENDBRANCH   6   7
ENDBRANCH   5   6
ENDBRANCH   4   5
ENDBRANCH   1   4
BRANCH   1  16
ATOM     16  C   LIG A   1      -6.033   0.159 126.804  0.00  0.00    +0.036 C 
BRANCH  16  17
ATOM     17  C   LIG A   1      -5.940  -0.082 125.296  0.00  0.00    +0.037 C 
BRANCH  17  18
ATOM     18  C   LIG A   1      -7.057  -0.954 124.780  0.00  0.00    -0.047 A 
ATOM     19  C   LIG A   1      -7.950  -1.562 125.673  0.00  0.00    +0.007 A 
ATOM     20  C   LIG A   1      -8.972  -2.389 125.203  0.00  0.00    +0.045 A 
ATOM     21  C   LIG A   1      -9.103  -2.602 123.837  0.00  0.00    +0.117 A 
ATOM     22  C   LIG A   1      -8.240  -1.990 122.933  0.00  0.00    +0.045 A 
ATOM     23  C   LIG A   1      -7.217  -1.166 123.405  0.00  0.00    +0.007 A 
BRANCH  21  24
ATOM     24  O   LIG A   1     -10.072  -3.419 123.334  0.00  0.00    -0.507 OA
ATOM     25  H   LIG A   1     -10.127  -4.208 123.899  0.00  0.00    +0.292 HD
ENDBRANCH  21  24
ENDBRANCH  17  18
ENDBRANCH  16  17
ENDBRANCH   1  16
TORSDOF 11
ENDMDL
MODEL 3
REMARK VINA RESULT:      -5.5      6.565      9.571
REMARK  Name = NuBBE_1861
REMARK  11 active torsions:
REMARK  status: ('A' for Active; 'I' for Inactive)
REMARK    1  A    between atoms: O_1  and  C_2
REMARK    2  A    between atoms: C_7  and  C_8
REMARK    3  A    between atoms: C_8  and  C_9
REMARK    4  A    between atoms: C_9  and  C_10
REMARK    5  A    between atoms: C_10  and  C_11
REMARK    6  A    between atoms: C_11  and  C_12
REMARK    7  A    between atoms: C_12  and  O_14
REMARK    8  A    between atoms: C_12  and  C_15
REMARK    9  A    between atoms: C_15  and  C_16
REMARK   10  A    between atoms: C_16  and  C_17
REMARK   11  A    between atoms: C_20  and  O_21
REMARK                            x       y       z     vdW  Elec       q    Type
REMARK                         _______ _______ _______ _____ _____    ______ ____
ROOT
ATOM      1  C   LIG A   1      -6.920  -1.545 129.587  0.00  0.00    +0.115 C 
ENDROOT
BRANCH   1   2
ATOM      2  O   LIG A   1      -8.022  -1.097 130.374  0.00  0.00    -0.392 OA
ATOM      3  H   LIG A   1      -8.431  -0.348 129.905  0.00  0.00    +0.210 HD
ENDBRANCH   1   2
BRANCH   1   4
ATOM      4  C   LIG A   1      -7.153  -3.019 129.213  0.00  0.00    +0.031 C 
BRANCH   4   5
ATOM      5  C   LIG A   1      -8.616  -3.374 128.918  0.00  0.00    +0.003 C 
BRANCH   5   6
ATOM      6  C   LIG A   1      -8.824  -4.047 127.551  0.00  0.00    +0.005 C 
BRANCH   6   7
ATOM      7  C   LIG A   1      -9.360  -3.123 126.445  0.00  0.00    +0.035 C 
BRANCH   7  13
ATOM      8  C   LIG A   1      -6.794  -2.184 123.101  0.00  0.00    +0.117 A 
ATOM      9  C   LIG A   1      -8.168  -2.259 122.927  0.00  0.00    +0.045 A 
ATOM     10  C   LIG A   1      -8.988  -2.583 124.012  0.00  0.00    +0.007 A 
ATOM     11  C   LIG A   1      -6.223  -2.440 124.343  0.00  0.00    +0.045 A 
ATOM     12  C   LIG A   1      -7.045  -2.760 125.425  0.00  0.00    +0.007 A 
ATOM     13  C   LIG A   1      -8.435  -2.843 125.279  0.00  0.00    -0.047 A 
BRANCH   8  14
ATOM     14  O   LIG A   1      -5.955  -1.869 122.074  0.00  0.00    -0.507 OA
ATOM     15  H   LIG A   1      -5.053  -1.810 122.427  0.00  0.00    +0.292 HD
ENDBRANCH   8  14
ENDBRANCH   7  13
ENDBRANCH   6   7
ENDBRANCH   5   6
ENDBRANCH   4   5
ENDBRANCH   1   4
BRANCH   1  16
ATOM     16  C   LIG A   1      -6.729  -0.596 128.394  0.00  0.00    +0.036 C 
BRANCH  16  17
ATOM     17  C   LIG A   1      -7.917   0.345 128.185  0.00  0.00    +0.037 C 
BRANCH  17  18
ATOM     18  C   LIG A   1      -8.168   0.642 126.728  0.00  0.00    -0.047 A 
ATOM     19  C   LIG A   1      -7.095   0.896 125.862  0.00  0.00    +0.007 A 
ATOM     20  C   LIG A   1      -7.323   1.194 124.517  0.00  0.00    +0.045 A 
ATOM     21  C   LIG A   1      -8.626   1.234 124.038  0.00  0.00    +0.117 A 
ATOM     22  C   LIG A   1      -9.703   0.964 124.877  0.00  0.00    +0.045 A 
ATOM     23  C   LIG A   1      -9.473   0.667 126.222  0.00  0.00    +0.007 A 
BRANCH  21  24
ATOM     24  O   LIG A   1      -8.897   1.543 122.739  0.00  0.00    -0.507 OA
ATOM     25  H   LIG A   1      -8.461   2.386 122.530  0.00  0.00    +0.292 HD
ENDBRANCH  21  24
ENDBRANCH  17  18
ENDBRANCH  16  17
ENDBRANCH   1  16
TORSDOF 11
ENDMDL
MODEL 4
REMARK VINA RESULT:      -5.5      6.125      8.858
REMARK  Name = NuBBE_1861
REMARK  11 active torsions:
REMARK  status: ('A' for Active; 'I' for Inactive)
REMARK    1  A    between atoms: O_1  and  C_2
REMARK    2  A    between atoms: C_7  and  C_8
REMARK    3  A    between atoms: C_8  and  C_9
REMARK    4  A    between atoms: C_9  and  C_10
REMARK    5  A    between atoms: C_10  and  C_11
REMARK    6  A    between atoms: C_11  and  C_12
REMARK    7  A    between atoms: C_12  and  O_14
REMARK    8  A    between atoms: C_12  and  C_15
REMARK    9  A    between atoms: C_15  and  C_16
REMARK   10  A    between atoms: C_16  and  C_17
REMARK   11  A    between atoms: C_20  and  O_21
REMARK                            x       y       z     vdW  Elec       q    Type
REMARK                         _______ _______ _______ _____ _____    ______ ____
ROOT
ATOM      1  C   LIG A   1      -8.949  -2.457 124.060  0.00  0.00    +0.115 C 
ENDROOT
BRANCH   1   2
ATOM      2  O   LIG A   1      -9.993  -3.275 123.535  0.00  0.00    -0.392 OA
ATOM      3  H   LIG A   1     -10.234  -3.919 124.223  0.00  0.00    +0.210 HD
ENDBRANCH   1   2
BRANCH   1   4
ATOM      4  C   LIG A   1      -7.626  -3.238 123.979  0.00  0.00    +0.031 C 
BRANCH   4   5
ATOM      5  C   LIG A   1      -6.469  -2.460 123.340  0.00  0.00    +0.003 C 
BRANCH   5   6
ATOM      6  C   LIG A   1      -5.344  -2.106 124.327  0.00  0.00    +0.005 C 
BRANCH   6   7
ATOM      7  C   LIG A   1      -5.772  -2.030 125.801  0.00  0.00    +0.035 C 
BRANCH   7  13
ATOM      8  C   LIG A   1      -6.734   1.822 127.500  0.00  0.00    +0.117 A 
ATOM      9  C   LIG A   1      -7.578   0.740 127.700  0.00  0.00    +0.045 A 
ATOM     10  C   LIG A   1      -7.268  -0.497 127.130  0.00  0.00    +0.007 A 
ATOM     11  C   LIG A   1      -5.586   1.689 126.727  0.00  0.00    +0.045 A 
ATOM     12  C   LIG A   1      -5.276   0.451 126.161  0.00  0.00    +0.007 A 
ATOM     13  C   LIG A   1      -6.111  -0.658 126.346  0.00  0.00    -0.047 A 
BRANCH   8  14
ATOM     14  O   LIG A   1      -6.993   3.046 128.039  0.00  0.00    -0.507 OA
ATOM     15  H   LIG A   1      -7.847   3.354 127.696  0.00  0.00    +0.292 HD
ENDBRANCH   8  14
ENDBRANCH   7  13
ENDBRANCH   6   7
ENDBRANCH   5   6
ENDBRANCH   4   5
ENDBRANCH   1   4
BRANCH   1  16
ATOM     16  C   LIG A   1      -8.948  -1.105 123.331  0.00  0.00    +0.036 C 
BRANCH  16  17
ATOM     17  C   LIG A   1      -9.405   0.052 124.222  0.00  0.00    +0.037 C 
BRANCH  17  18
ATOM     18  C   LIG A   1      -8.548   1.282 124.056  0.00  0.00    -0.047 A 
ATOM     19  C   LIG A   1      -7.381   1.232 123.279  0.00  0.00    +0.007 A 
ATOM     20  C   LIG A   1      -6.571   2.361 123.141  0.00  0.00    +0.045 A 
ATOM     21  C   LIG A   1      -6.933   3.542 123.776  0.00  0.00    +0.117 A 
ATOM     22  C   LIG A   1      -8.097   3.617 124.533  0.00  0.00    +0.045 A 
ATOM     23  C   LIG A   1      -8.905   2.487 124.672  0.00  0.00    +0.007 A 
BRANCH  21  24
ATOM     24  O   LIG A   1      -6.161   4.662 123.687  0.00  0.00    -0.507 OA
ATOM     25  H   LIG A   1      -5.505   4.636 124.404  0.00  0.00    +0.292 HD
ENDBRANCH  21  24
ENDBRANCH  17  18
ENDBRANCH  16  17
ENDBRANCH   1  16
TORSDOF 11
ENDMDL
MODEL 5
REMARK VINA RESULT:      -5.4      7.185      9.829
REMARK  Name = NuBBE_1861
REMARK  11 active torsions:
REMARK  status: ('A' for Active; 'I' for Inactive)
REMARK    1  A    between atoms: O_1  and  C_2
REMARK    2  A    between atoms: C_7  and  C_8
REMARK    3  A    between atoms: C_8  and  C_9
REMARK    4  A    between atoms: C_9  and  C_10
REMARK    5  A    between atoms: C_10  and  C_11
REMARK    6  A    between atoms: C_11  and  C_12
REMARK    7  A    between atoms: C_12  and  O_14
REMARK    8  A    between atoms: C_12  and  C_15
REMARK    9  A    between atoms: C_15  and  C_16
REMARK   10  A    between atoms: C_16  and  C_17
REMARK   11  A    between atoms: C_20  and  O_21
REMARK                            x       y       z     vdW  Elec       q    Type
REMARK                         _______ _______ _______ _____ _____    ______ ____
ROOT
ATOM      1  C   LIG A   1      -8.851  -3.612 124.442  0.00  0.00    +0.115 C 
ENDROOT
BRANCH   1   2
ATOM      2  O   LIG A   1      -7.430  -3.723 124.474  0.00  0.00    -0.392 OA
ATOM      3  H   LIG A   1      -7.163  -4.286 123.726  0.00  0.00    +0.210 HD
ENDBRANCH   1   2
BRANCH   1   4
ATOM      4  C   LIG A   1      -9.327  -3.017 125.778  0.00  0.00    +0.031 C 
BRANCH   4   5
ATOM      5  C   LIG A   1      -8.269  -3.031 126.890  0.00  0.00    +0.003 C 
BRANCH   5   6
ATOM      6  C   LIG A   1      -8.735  -3.734 128.176  0.00  0.00    +0.005 C 
BRANCH   6   7
ATOM      7  C   LIG A   1      -8.126  -3.185 129.476  0.00  0.00    +0.035 C 
BRANCH   7  13
ATOM      8  C   LIG A   1      -3.865  -2.505 129.640  0.00  0.00    +0.117 A 
ATOM      9  C   LIG A   1      -4.712  -1.513 129.169  0.00  0.00    +0.045 A 
ATOM     10  C   LIG A   1      -6.088  -1.750 129.102  0.00  0.00    +0.007 A 
ATOM     11  C   LIG A   1      -4.370  -3.738 130.035  0.00  0.00    +0.045 A 
ATOM     12  C   LIG A   1      -5.744  -3.972 129.970  0.00  0.00    +0.007 A 
ATOM     13  C   LIG A   1      -6.624  -2.989 129.498  0.00  0.00    -0.047 A 
BRANCH   8  14
ATOM     14  O   LIG A   1      -2.517  -2.318 129.727  0.00  0.00    -0.507 OA
ATOM     15  H   LIG A   1      -2.339  -1.365 129.672  0.00  0.00    +0.292 HD
ENDBRANCH   8  14
ENDBRANCH   7  13
ENDBRANCH   6   7
ENDBRANCH   5   6
ENDBRANCH   4   5
ENDBRANCH   1   4
BRANCH   1  16
ATOM     16  C   LIG A   1      -9.270  -2.819 123.195  0.00  0.00    +0.036 C 
BRANCH  16  17
ATOM     17  C   LIG A   1      -8.224  -1.789 122.764  0.00  0.00    +0.037 C 
BRANCH  17  18
ATOM     18  C   LIG A   1      -8.488  -0.421 123.342  0.00  0.00    -0.047 A 
ATOM     19  C   LIG A   1      -9.651   0.281 122.996  0.00  0.00    +0.007 A 
ATOM     20  C   LIG A   1      -9.890   1.557 123.509  0.00  0.00    +0.045 A 
ATOM     21  C   LIG A   1      -8.967   2.128 124.375  0.00  0.00    +0.117 A 
ATOM     22  C   LIG A   1      -7.818   1.438 124.748  0.00  0.00    +0.045 A 
ATOM     23  C   LIG A   1      -7.579   0.163 124.232  0.00  0.00    +0.007 A 
BRANCH  21  24
ATOM     24  O   LIG A   1      -9.147   3.380 124.883  0.00  0.00    -0.507 OA
ATOM     25  H   LIG A   1      -9.657   3.303 125.707  0.00  0.00    +0.292 HD
ENDBRANCH  21  24
ENDBRANCH  17  18
ENDBRANCH  16  17
ENDBRANCH   1  16
TORSDOF 11
ENDMDL
MODEL 6
REMARK VINA RESULT:      -5.4      7.433     10.192
REMARK  Name = NuBBE_1861
REMARK  11 active torsions:
REMARK  status: ('A' for Active; 'I' for Inactive)
REMARK    1  A    between atoms: O_1  and  C_2
REMARK    2  A    between atoms: C_7  and  C_8
REMARK    3  A    between atoms: C_8  and  C_9
REMARK    4  A    between atoms: C_9  and  C_10
REMARK    5  A    between atoms: C_10  and  C_11
REMARK    6  A    between atoms: C_11  and  C_12
REMARK    7  A    between atoms: C_12  and  O_14
REMARK    8  A    between atoms: C_12  and  C_15
REMARK    9  A    between atoms: C_15  and  C_16
REMARK   10  A    between atoms: C_16  and  C_17
REMARK   11  A    between atoms: C_20  and  O_21
REMARK                            x       y       z     vdW  Elec       q    Type
REMARK                         _______ _______ _______ _____ _____    ______ ____
ROOT
ATOM      1  C   LIG A   1      -7.772   0.178 123.773  0.00  0.00    +0.115 C 
ENDROOT
BRANCH   1   2
ATOM      2  O   LIG A   1      -8.964   0.553 123.085  0.00  0.00    -0.392 OA
ATOM      3  H   LIG A   1      -9.629  -0.136 123.257  0.00  0.00    +0.210 HD
ENDBRANCH   1   2
BRANCH   1   4
ATOM      4  C   LIG A   1      -7.199  -1.085 123.108  0.00  0.00    +0.031 C 
BRANCH   4   5
ATOM      5  C   LIG A   1      -8.222  -2.209 122.896  0.00  0.00    +0.003 C 
BRANCH   5   6
ATOM      6  C   LIG A   1      -8.223  -3.261 124.017  0.00  0.00    +0.005 C 
BRANCH   6   7
ATOM      7  C   LIG A   1      -9.266  -3.033 125.124  0.00  0.00    +0.035 C 
BRANCH   7  13
ATOM      8  C   LIG A   1      -7.861  -2.351 129.150  0.00  0.00    +0.117 A 
ATOM      9  C   LIG A   1      -7.674  -1.385 128.172  0.00  0.00    +0.045 A 
ATOM     10  C   LIG A   1      -8.115  -1.624 126.868  0.00  0.00    +0.007 A 
ATOM     11  C   LIG A   1      -8.473  -3.561 128.841  0.00  0.00    +0.045 A 
ATOM     12  C   LIG A   1      -8.915  -3.796 127.538  0.00  0.00    +0.007 A 
ATOM     13  C   LIG A   1      -8.739  -2.838 126.531  0.00  0.00    -0.047 A 
BRANCH   8  14
ATOM     14  O   LIG A   1      -7.451  -2.162 130.435  0.00  0.00    -0.507 OA
ATOM     15  H   LIG A   1      -6.542  -2.495 130.516  0.00  0.00    +0.292 HD
ENDBRANCH   8  14
ENDBRANCH   7  13
ENDBRANCH   6   7
ENDBRANCH   5   6
ENDBRANCH   4   5
ENDBRANCH   1   4
BRANCH   1  16
ATOM     16  C   LIG A   1      -6.813   1.378 123.817  0.00  0.00    +0.036 C 
BRANCH  16  17
ATOM     17  C   LIG A   1      -7.509   2.707 123.515  0.00  0.00    +0.037 C 
BRANCH  17  18
ATOM     18  C   LIG A   1      -6.918   3.408 122.317  0.00  0.00    -0.047 A 
ATOM     19  C   LIG A   1      -7.659   3.534 121.133  0.00  0.00    +0.007 A 
ATOM     20  C   LIG A   1      -7.110   4.161 120.014  0.00  0.00    +0.045 A 
ATOM     21  C   LIG A   1      -5.818   4.668 120.082  0.00  0.00    +0.117 A 
ATOM     22  C   LIG A   1      -5.075   4.573 121.254  0.00  0.00    +0.045 A 
ATOM     23  C   LIG A   1      -5.626   3.943 122.372  0.00  0.00    +0.007 A 
BRANCH  21  24
ATOM     24  O   LIG A   1      -5.233   5.268 119.007  0.00  0.00    -0.507 OA
ATOM     25  H   LIG A   1      -4.341   5.552 119.266  0.00  0.00    +0.292 HD
ENDBRANCH  21  24
ENDBRANCH  17  18
ENDBRANCH  16  17
ENDBRANCH   1  16
TORSDOF 11
ENDMDL
MODEL 7
REMARK VINA RESULT:      -5.4      6.940      8.864
REMARK  Name = NuBBE_1861
REMARK  11 active torsions:
REMARK  status: ('A' for Active; 'I' for Inactive)
REMARK    1  A    between atoms: O_1  and  C_2
REMARK    2  A    between atoms: C_7  and  C_8
REMARK    3  A    between atoms: C_8  and  C_9
REMARK    4  A    between atoms: C_9  and  C_10
REMARK    5  A    between atoms: C_10  and  C_11
REMARK    6  A    between atoms: C_11  and  C_12
REMARK    7  A    between atoms: C_12  and  O_14
REMARK    8  A    between atoms: C_12  and  C_15
REMARK    9  A    between atoms: C_15  and  C_16
REMARK   10  A    between atoms: C_16  and  C_17
REMARK   11  A    between atoms: C_20  and  O_21
REMARK                            x       y       z     vdW  Elec       q    Type
REMARK                         _______ _______ _______ _____ _____    ______ ____
ROOT
ATOM      1  C   LIG A   1      -8.951  -3.596 124.861  0.00  0.00    +0.115 C 
ENDROOT
BRANCH   1   2
ATOM      2  O   LIG A   1      -9.913  -3.171 123.897  0.00  0.00    -0.392 OA
ATOM      3  H   LIG A   1      -9.696  -3.609 123.055  0.00  0.00    +0.210 HD
ENDBRANCH   1   2
BRANCH   1   4
ATOM      4  C   LIG A   1      -7.555  -3.538 124.219  0.00  0.00    +0.031 C 
BRANCH   4   5
ATOM      5  C   LIG A   1      -6.491  -2.840 125.078  0.00  0.00    +0.003 C 
BRANCH   5   6
ATOM      6  C   LIG A   1      -5.815  -1.652 124.376  0.00  0.00    +0.005 C 
BRANCH   6   7
ATOM      7  C   LIG A   1      -6.188  -0.268 124.933  0.00  0.00    +0.035 C 
BRANCH   7  13
ATOM      8  C   LIG A   1     -10.248   0.970 124.139  0.00  0.00    +0.117 A 
ATOM      9  C   LIG A   1      -9.455   0.476 123.113  0.00  0.00    +0.045 A 
ATOM     10  C   LIG A   1      -8.137   0.096 123.377  0.00  0.00    +0.007 A 
ATOM     11  C   LIG A   1      -9.738   1.103 125.425  0.00  0.00    +0.045 A 
ATOM     12  C   LIG A   1      -8.421   0.720 125.687  0.00  0.00    +0.007 A 
ATOM     13  C   LIG A   1      -7.598   0.218 124.671  0.00  0.00    -0.047 A 
BRANCH   8  14
ATOM     14  O   LIG A   1     -11.540   1.350 123.930  0.00  0.00    -0.507 OA
ATOM     15  H   LIG A   1     -11.867   0.892 123.139  0.00  0.00    +0.292 HD
ENDBRANCH   8  14
ENDBRANCH   7  13
ENDBRANCH   6   7
ENDBRANCH   5   6
ENDBRANCH   4   5
ENDBRANCH   1   4
BRANCH   1  16
ATOM     16  C   LIG A   1      -9.112  -2.761 126.140  0.00  0.00    +0.036 C 
BRANCH  16  17
ATOM     17  C   LIG A   1      -8.976  -3.594 127.416  0.00  0.00    +0.037 C 
BRANCH  17  18
ATOM     18  C   LIG A   1      -8.023  -2.976 128.409  0.00  0.00    -0.047 A 
ATOM     19  C   LIG A   1      -7.442  -3.761 129.415  0.00  0.00    +0.007 A 
ATOM     20  C   LIG A   1      -6.577  -3.190 130.351  0.00  0.00    +0.045 A 
ATOM     21  C   LIG A   1      -6.288  -1.834 130.275  0.00  0.00    +0.117 A 
ATOM     22  C   LIG A   1      -6.837  -1.043 129.270  0.00  0.00    +0.045 A 
ATOM     23  C   LIG A   1      -7.704  -1.615 128.337  0.00  0.00    +0.007 A 
BRANCH  21  24
ATOM     24  O   LIG A   1      -5.468  -1.230 131.180  0.00  0.00    -0.507 OA
ATOM     25  H   LIG A   1      -4.818  -0.697 130.693  0.00  0.00    +0.292 HD
ENDBRANCH  21  24
ENDBRANCH  17  18
ENDBRANCH  16  17
ENDBRANCH   1  16
TORSDOF 11
ENDMDL
MODEL 8
REMARK VINA RESULT:      -5.4      6.896      9.181
REMARK  Name = NuBBE_1861
REMARK  11 active torsions:
REMARK  status: ('A' for Active; 'I' for Inactive)
REMARK    1  A    between atoms: O_1  and  C_2
REMARK    2  A    between atoms: C_7  and  C_8
REMARK    3  A    between atoms: C_8  and  C_9
REMARK    4  A    between atoms: C_9  and  C_10
REMARK    5  A    between atoms: C_10  and  C_11
REMARK    6  A    between atoms: C_11  and  C_12
REMARK    7  A    between atoms: C_12  and  O_14
REMARK    8  A    between atoms: C_12  and  C_15
REMARK    9  A    between atoms: C_15  and  C_16
REMARK   10  A    between atoms: C_16  and  C_17
REMARK   11  A    between atoms: C_20  and  O_21
REMARK                            x       y       z     vdW  Elec       q    Type
REMARK                         _______ _______ _______ _____ _____    ______ ____
ROOT
ATOM      1  C   LIG A   1      -9.331  -3.127 125.903  0.00  0.00    +0.115 C 
ENDROOT
BRANCH   1   2
ATOM      2  O   LIG A   1      -9.806  -1.789 125.774  0.00  0.00    -0.392 OA
ATOM      3  H   LIG A   1      -9.166  -1.207 126.220  0.00  0.00    +0.210 HD
ENDBRANCH   1   2
BRANCH   1   4
ATOM      4  C   LIG A   1      -8.515  -3.481 124.649  0.00  0.00    +0.031 C 
BRANCH   4   5
ATOM      5  C   LIG A   1      -9.146  -3.017 123.329  0.00  0.00    +0.003 C 
BRANCH   5   6
ATOM      6  C   LIG A   1      -8.221  -2.128 122.482  0.00  0.00    +0.005 C 
BRANCH   6   7
ATOM      7  C   LIG A   1      -7.243  -1.254 123.285  0.00  0.00    +0.035 C 
BRANCH   7  13
ATOM      8  C   LIG A   1      -8.618   2.579 124.721  0.00  0.00    +0.117 A 
ATOM      9  C   LIG A   1      -7.485   1.995 125.267  0.00  0.00    +0.045 A 
ATOM     10  C   LIG A   1      -7.060   0.745 124.809  0.00  0.00    +0.007 A 
ATOM     11  C   LIG A   1      -9.343   1.927 123.730  0.00  0.00    +0.045 A 
ATOM     12  C   LIG A   1      -8.914   0.680 123.271  0.00  0.00    +0.007 A 
ATOM     13  C   LIG A   1      -7.773   0.067 123.804  0.00  0.00    -0.047 A 
BRANCH   8  14
ATOM     14  O   LIG A   1      -9.069   3.798 125.134  0.00  0.00    -0.507 OA
ATOM     15  H   LIG A   1      -9.937   3.675 125.549  0.00  0.00    +0.292 HD
ENDBRANCH   8  14
ENDBRANCH   7  13
ENDBRANCH   6   7
ENDBRANCH   5   6
ENDBRANCH   4   5
ENDBRANCH   1   4
BRANCH   1  16
ATOM     16  C   LIG A   1      -8.572  -3.270 127.231  0.00  0.00    +0.036 C 
BRANCH  16  17
ATOM     17  C   LIG A   1      -7.517  -2.181 127.435  0.00  0.00    +0.037 C 
BRANCH  17  18
ATOM     18  C   LIG A   1      -6.451  -2.587 128.420  0.00  0.00    -0.047 A 
ATOM     19  C   LIG A   1      -5.114  -2.223 128.207  0.00  0.00    +0.007 A 
ATOM     20  C   LIG A   1      -4.118  -2.617 129.104  0.00  0.00    +0.045 A 
ATOM     21  C   LIG A   1      -4.464  -3.370 130.219  0.00  0.00    +0.117 A 
ATOM     22  C   LIG A   1      -5.788  -3.722 130.459  0.00  0.00    +0.045 A 
ATOM     23  C   LIG A   1      -6.781  -3.330 129.560  0.00  0.00    +0.007 A 
BRANCH  21  24
ATOM     24  O   LIG A   1      -3.523  -3.795 131.109  0.00  0.00    -0.507 OA
ATOM     25  H   LIG A   1      -2.645  -3.611 130.734  0.00  0.00    +0.292 HD
ENDBRANCH  21  24
ENDBRANCH  17  18
ENDBRANCH  16  17
ENDBRANCH   1  16
TORSDOF 11
ENDMDL
MODEL 9
REMARK VINA RESULT:      -5.4      6.993      9.679
REMARK  Name = NuBBE_1861
REMARK  11 active torsions:
REMARK  status: ('A' for Active; 'I' for Inactive)
REMARK    1  A    between atoms: O_1  and  C_2
REMARK    2  A    between atoms: C_7  and  C_8
REMARK    3  A    between atoms: C_8  and  C_9
REMARK    4  A    between atoms: C_9  and  C_10
REMARK    5  A    between atoms: C_10  and  C_11
REMARK    6  A    between atoms: C_11  and  C_12
REMARK    7  A    between atoms: C_12  and  O_14
REMARK    8  A    between atoms: C_12  and  C_15
REMARK    9  A    between atoms: C_15  and  C_16
REMARK   10  A    between atoms: C_16  and  C_17
REMARK   11  A    between atoms: C_20  and  O_21
REMARK                            x       y       z     vdW  Elec       q    Type
REMARK                         _______ _______ _______ _____ _____    ______ ____
ROOT
ATOM      1  C   LIG A   1      -9.125  -2.714 123.860  0.00  0.00    +0.115 C 
ENDROOT
BRANCH   1   2
ATOM      2  O   LIG A   1     -10.220  -3.449 123.316  0.00  0.00    -0.392 OA
ATOM      3  H   LIG A   1     -10.853  -3.607 124.038  0.00  0.00    +0.210 HD
ENDBRANCH   1   2
BRANCH   1   4
ATOM      4  C   LIG A   1      -8.261  -3.670 124.700  0.00  0.00    +0.031 C 
BRANCH   4   5
ATOM      5  C   LIG A   1      -8.553  -3.631 126.206  0.00  0.00    +0.003 C 
BRANCH   5   6
ATOM      6  C   LIG A   1      -8.399  -2.233 126.827  0.00  0.00    +0.005 C 
BRANCH   6   7
ATOM      7  C   LIG A   1      -6.953  -1.813 127.137  0.00  0.00    +0.035 C 
BRANCH   7  13
ATOM      8  C   LIG A   1      -5.136  -3.825 130.498  0.00  0.00    +0.117 A 
ATOM      9  C   LIG A   1      -6.516  -3.716 130.413  0.00  0.00    +0.045 A 
ATOM     10  C   LIG A   1      -7.094  -3.047 129.331  0.00  0.00    +0.007 A 
ATOM     11  C   LIG A   1      -4.320  -3.263 129.523  0.00  0.00    +0.045 A 
ATOM     12  C   LIG A   1      -4.899  -2.597 128.442  0.00  0.00    +0.007 A 
ATOM     13  C   LIG A   1      -6.290  -2.472 128.329  0.00  0.00    -0.047 A 
BRANCH   8  14
ATOM     14  O   LIG A   1      -4.529  -4.472 131.533  0.00  0.00    -0.507 OA
ATOM     15  H   LIG A   1      -4.302  -3.815 132.210  0.00  0.00    +0.292 HD
ENDBRANCH   8  14
ENDBRANCH   7  13
ENDBRANCH   6   7
ENDBRANCH   5   6
ENDBRANCH   4   5
ENDBRANCH   1   4
BRANCH   1  16
ATOM     16  C   LIG A   1      -8.380  -1.998 122.723  0.00  0.00    +0.036 C 
BRANCH  16  17
ATOM     17  C   LIG A   1      -7.223  -1.130 123.223  0.00  0.00    +0.037 C 
BRANCH  17  18
ATOM     18  C   LIG A   1      -7.685   0.217 123.720  0.00  0.00    -0.047 A 
ATOM     19  C   LIG A   1      -6.897   0.950 124.618  0.00  0.00    +0.007 A 
ATOM     20  C   LIG A   1      -7.330   2.187 125.099  0.00  0.00    +0.045 A 
ATOM     21  C   LIG A   1      -8.552   2.693 124.676  0.00  0.00    +0.117 A 
ATOM     22  C   LIG A   1      -9.339   1.991 123.768  0.00  0.00    +0.045 A 
ATOM     23  C   LIG A   1      -8.905   0.754 123.290  0.00  0.00    +0.007 A 
BRANCH  21  24
ATOM     24  O   LIG A   1      -9.026   3.885 125.136  0.00  0.00    -0.507 OA
ATOM     25  H   LIG A   1      -9.719   3.704 125.792  0.00  0.00    +0.292 HD
ENDBRANCH  21  24
ENDBRANCH  17  18
ENDBRANCH  16  17
ENDBRANCH   1  16
TORSDOF 11
ENDMDL
