MODEL 1
REMARK VINA RESULT:      -7.2      0.000      0.000
REMARK  Name = NuBBE_2338
REMARK  6 active torsions:
REMARK  status: ('A' for Active; 'I' for Inactive)
REMARK    1  A    between atoms: C_2  and  C_3
REMARK    2  A    between atoms: C_4  and  O_5
REMARK    3  A    between atoms: C_6  and  O_7
REMARK    4  A    between atoms: O_7  and  C_8
REMARK    5  A    between atoms: C_11  and  C_13
REMARK    6  A    between atoms: C_16  and  C_18
REMARK                            x       y       z     vdW  Elec       q    Type
REMARK                         _______ _______ _______ _____ _____    ______ ____
ROOT
ATOM      1  C   LIG A   1      -6.421  -1.798 123.679  0.00  0.00    +0.061 A 
ATOM      2  C   LIG A   1      -7.675  -1.692 123.031  0.00  0.00    +0.169 A 
ATOM      3  C   LIG A   1      -8.646  -0.752 123.460  0.00  0.00    +0.162 A 
ATOM      4  C   LIG A   1      -8.350   0.123 124.514  0.00  0.00    +0.057 A 
ATOM      5  C   LIG A   1      -7.124   0.027 125.141  0.00  0.00    +0.005 A 
ATOM      6  C   LIG A   1      -6.580   0.811 126.284  0.00  0.00    +0.065 C 
ATOM      7  C   LIG A   1      -6.008   2.151 125.822  0.00  0.00    +0.016 C 
ATOM      8  C   LIG A   1      -6.193  -0.918 124.735  0.00  0.00    +0.136 A 
ATOM      9  O   LIG A   1      -5.056  -0.898 125.520  0.00  0.00    -0.483 OA
ATOM     10  C   LIG A   1      -5.466  -0.174 126.718  0.00  0.00    +0.211 C 
ENDROOT
BRANCH  10  11
ATOM     11  C   LIG A   1      -5.883  -1.138 127.835  0.00  0.00    -0.003 A 
ATOM     12  C   LIG A   1      -7.134  -0.973 128.483  0.00  0.00    +0.011 A 
ATOM     13  C   LIG A   1      -7.535  -1.827 129.519  0.00  0.00    +0.050 A 
ATOM     14  C   LIG A   1      -6.669  -2.829 129.898  0.00  0.00    +0.166 A 
ATOM     15  C   LIG A   1      -5.453  -2.998 129.285  0.00  0.00    +0.167 A 
ATOM     16  O   LIG A   1      -4.745  -4.036 129.806  0.00  0.00    -0.453 OA
ATOM     17  C   LIG A   1      -5.649  -4.489 130.832  0.00  0.00    +0.466 C 
ATOM     18  O   LIG A   1      -6.882  -3.738 130.887  0.00  0.00    -0.453 OA
ATOM     19  C   LIG A   1      -5.033  -2.176 128.261  0.00  0.00    +0.056 A 
ENDBRANCH  10  11
BRANCH   1  21
ATOM     20  C   LIG A   1      -5.007  -3.864 123.891  0.00  0.00    +0.009 C 
ATOM     21  C   LIG A   1      -5.332  -2.720 123.288  0.00  0.00    +0.007 C 
ENDBRANCH   1  21
BRANCH   2  22
ATOM     22  O   LIG A   1      -7.959  -2.490 121.949  0.00  0.00    -0.503 OA
ATOM     23  H   LIG A   1      -7.319  -2.297 121.246  0.00  0.00    +0.292 HD
ENDBRANCH   2  22
BRANCH   3  24
ATOM     24  O   LIG A   1      -9.908  -0.545 122.965  0.00  0.00    -0.491 OA
ATOM     25  C   LIG A   1     -10.277   0.766 122.566  0.00  0.00    +0.277 C 
ENDBRANCH   3  24
TORSDOF 4
ENDMDL
MODEL 2
REMARK VINA RESULT:      -7.1      3.053      6.909
REMARK  Name = NuBBE_2338
REMARK  6 active torsions:
REMARK  status: ('A' for Active; 'I' for Inactive)
REMARK    1  A    between atoms: C_2  and  C_3
REMARK    2  A    between atoms: C_4  and  O_5
REMARK    3  A    between atoms: C_6  and  O_7
REMARK    4  A    between atoms: O_7  and  C_8
REMARK    5  A    between atoms: C_11  and  C_13
REMARK    6  A    between atoms: C_16  and  C_18
REMARK                            x       y       z     vdW  Elec       q    Type
REMARK                         _______ _______ _______ _____ _____    ______ ____
ROOT
ATOM      1  C   LIG A   1      -7.530  -1.522 124.222  0.00  0.00    +0.061 A 
ATOM      2  C   LIG A   1      -6.570  -2.315 124.895  0.00  0.00    +0.169 A 
ATOM      3  C   LIG A   1      -5.924  -1.849 126.068  0.00  0.00    +0.162 A 
ATOM      4  C   LIG A   1      -6.270  -0.599 126.603  0.00  0.00    +0.057 A 
ATOM      5  C   LIG A   1      -7.212   0.171 125.952  0.00  0.00    +0.005 A 
ATOM      6  C   LIG A   1      -7.731   1.524 126.296  0.00  0.00    +0.065 C 
ATOM      7  C   LIG A   1      -8.826   1.449 127.360  0.00  0.00    +0.016 C 
ATOM      8  C   LIG A   1      -7.815  -0.281 124.788  0.00  0.00    +0.136 A 
ATOM      9  O   LIG A   1      -8.683   0.654 124.256  0.00  0.00    -0.483 OA
ATOM     10  C   LIG A   1      -8.301   1.902 124.907  0.00  0.00    +0.211 C 
ENDROOT
BRANCH  10  11
ATOM     11  C   LIG A   1      -7.335   2.712 124.034  0.00  0.00    -0.003 A 
ATOM     12  C   LIG A   1      -6.288   3.454 124.636  0.00  0.00    +0.011 A 
ATOM     13  C   LIG A   1      -5.399   4.217 123.867  0.00  0.00    +0.050 A 
ATOM     14  C   LIG A   1      -5.583   4.234 122.502  0.00  0.00    +0.166 A 
ATOM     15  C   LIG A   1      -6.596   3.527 121.904  0.00  0.00    +0.167 A 
ATOM     16  O   LIG A   1      -6.612   3.678 120.552  0.00  0.00    -0.453 OA
ATOM     17  C   LIG A   1      -5.502   4.580 120.370  0.00  0.00    +0.466 C 
ATOM     18  O   LIG A   1      -4.833   4.926 121.603  0.00  0.00    -0.453 OA
ATOM     19  C   LIG A   1      -7.481   2.765 122.634  0.00  0.00    +0.056 A 
ENDBRANCH  10  11
BRANCH   1  21
ATOM     20  C   LIG A   1      -9.378  -2.686 122.979  0.00  0.00    +0.009 C 
ATOM     21  C   LIG A   1      -8.281  -1.930 123.014  0.00  0.00    +0.007 C 
ENDBRANCH   1  21
BRANCH   2  22
ATOM     22  O   LIG A   1      -6.269  -3.572 124.429  0.00  0.00    -0.503 OA
ATOM     23  H   LIG A   1      -5.834  -4.069 125.138  0.00  0.00    +0.292 HD
ENDBRANCH   2  22
BRANCH   3  24
ATOM     24  O   LIG A   1      -4.959  -2.474 126.815  0.00  0.00    -0.491 OA
ATOM     25  C   LIG A   1      -5.014  -2.364 128.229  0.00  0.00    +0.277 C 
ENDBRANCH   3  24
TORSDOF 4
ENDMDL
MODEL 3
REMARK VINA RESULT:      -7.1      7.126      9.668
REMARK  Name = NuBBE_2338
REMARK  6 active torsions:
REMARK  status: ('A' for Active; 'I' for Inactive)
REMARK    1  A    between atoms: C_2  and  C_3
REMARK    2  A    between atoms: C_4  and  O_5
REMARK    3  A    between atoms: C_6  and  O_7
REMARK    4  A    between atoms: O_7  and  C_8
REMARK    5  A    between atoms: C_11  and  C_13
REMARK    6  A    between atoms: C_16  and  C_18
REMARK                            x       y       z     vdW  Elec       q    Type
REMARK                         _______ _______ _______ _____ _____    ______ ____
ROOT
ATOM      1  C   LIG A   1      -8.443   2.619 130.534  0.00  0.00    +0.061 A 
ATOM      2  C   LIG A   1      -7.727   2.273 129.362  0.00  0.00    +0.169 A 
ATOM      3  C   LIG A   1      -6.861   3.200 128.729  0.00  0.00    +0.162 A 
ATOM      4  C   LIG A   1      -6.669   4.470 129.293  0.00  0.00    +0.057 A 
ATOM      5  C   LIG A   1      -7.360   4.806 130.439  0.00  0.00    +0.005 A 
ATOM      6  C   LIG A   1      -7.352   6.079 131.212  0.00  0.00    +0.065 C 
ATOM      7  C   LIG A   1      -6.153   6.151 132.158  0.00  0.00    +0.016 C 
ATOM      8  C   LIG A   1      -8.230   3.902 131.033  0.00  0.00    +0.136 A 
ATOM      9  O   LIG A   1      -8.868   4.442 132.133  0.00  0.00    -0.483 OA
ATOM     10  C   LIG A   1      -8.683   5.881 131.979  0.00  0.00    +0.211 C 
ENDROOT
BRANCH  10  11
ATOM     11  C   LIG A   1      -9.896   6.530 131.304  0.00  0.00    -0.003 A 
ATOM     12  C   LIG A   1     -11.188   6.376 131.868  0.00  0.00    +0.011 A 
ATOM     13  C   LIG A   1     -12.319   6.943 131.264  0.00  0.00    +0.050 A 
ATOM     14  C   LIG A   1     -12.137   7.647 130.094  0.00  0.00    +0.166 A 
ATOM     15  C   LIG A   1     -10.894   7.799 129.531  0.00  0.00    +0.167 A 
ATOM     16  O   LIG A   1     -10.928   8.520 128.379  0.00  0.00    -0.453 OA
ATOM     17  C   LIG A   1     -12.340   8.788 128.269  0.00  0.00    +0.466 C 
ATOM     18  O   LIG A   1     -13.114   8.249 129.364  0.00  0.00    -0.453 OA
ATOM     19  C   LIG A   1      -9.765   7.257 130.105  0.00  0.00    +0.056 A 
ENDBRANCH  10  11
BRANCH   1  21
ATOM     20  C   LIG A   1      -8.977   0.678 132.037  0.00  0.00    +0.009 C 
ATOM     21  C   LIG A   1      -9.342   1.716 131.284  0.00  0.00    +0.007 C 
ENDBRANCH   1  21
BRANCH   2  22
ATOM     22  O   LIG A   1      -7.844   1.009 128.834  0.00  0.00    -0.503 OA
ATOM     23  H   LIG A   1      -7.331   0.969 128.013  0.00  0.00    +0.292 HD
ENDBRANCH   2  22
BRANCH   3  24
ATOM     24  O   LIG A   1      -6.125   3.035 127.584  0.00  0.00    -0.491 OA
ATOM     25  C   LIG A   1      -6.140   4.066 126.610  0.00  0.00    +0.277 C 
ENDBRANCH   3  24
TORSDOF 4
ENDMDL
MODEL 4
REMARK VINA RESULT:      -6.9      7.789     10.468
REMARK  Name = NuBBE_2338
REMARK  6 active torsions:
REMARK  status: ('A' for Active; 'I' for Inactive)
REMARK    1  A    between atoms: C_2  and  C_3
REMARK    2  A    between atoms: C_4  and  O_5
REMARK    3  A    between atoms: C_6  and  O_7
REMARK    4  A    between atoms: O_7  and  C_8
REMARK    5  A    between atoms: C_11  and  C_13
REMARK    6  A    between atoms: C_16  and  C_18
REMARK                            x       y       z     vdW  Elec       q    Type
REMARK                         _______ _______ _______ _____ _____    ______ ____
ROOT
ATOM      1  C   LIG A   1      -6.953   4.522 129.884  0.00  0.00    +0.061 A 
ATOM      2  C   LIG A   1      -5.846   5.388 129.714  0.00  0.00    +0.169 A 
ATOM      3  C   LIG A   1      -5.650   6.506 130.564  0.00  0.00    +0.162 A 
ATOM      4  C   LIG A   1      -6.540   6.740 131.622  0.00  0.00    +0.057 A 
ATOM      5  C   LIG A   1      -7.615   5.892 131.794  0.00  0.00    +0.005 A 
ATOM      6  C   LIG A   1      -8.702   5.934 132.811  0.00  0.00    +0.065 C 
ATOM      7  C   LIG A   1      -8.257   5.305 134.132  0.00  0.00    +0.016 C 
ATOM      8  C   LIG A   1      -7.815   4.820 130.937  0.00  0.00    +0.136 A 
ATOM      9  O   LIG A   1      -8.972   4.126 131.235  0.00  0.00    -0.483 OA
ATOM     10  C   LIG A   1      -9.734   5.049 132.069  0.00  0.00    +0.211 C 
ENDROOT
BRANCH  10  11
ATOM     11  C   LIG A   1     -10.752   5.839 131.238  0.00  0.00    -0.003 A 
ATOM     12  C   LIG A   1     -11.734   6.631 131.885  0.00  0.00    +0.011 A 
ATOM     13  C   LIG A   1     -12.688   7.351 131.153  0.00  0.00    +0.050 A 
ATOM     14  C   LIG A   1     -12.650   7.255 129.780  0.00  0.00    +0.166 A 
ATOM     15  C   LIG A   1     -11.710   6.487 129.138  0.00  0.00    +0.167 A 
ATOM     16  O   LIG A   1     -11.845   6.520 127.785  0.00  0.00    -0.453 OA
ATOM     17  C   LIG A   1     -12.991   7.382 127.649  0.00  0.00    +0.466 C 
ATOM     18  O   LIG A   1     -13.500   7.867 128.912  0.00  0.00    -0.453 OA
ATOM     19  C   LIG A   1     -10.758   5.773 129.831  0.00  0.00    +0.056 A 
ENDBRANCH  10  11
BRANCH   1  21
ATOM     20  C   LIG A   1      -7.855   3.275 127.899  0.00  0.00    +0.009 C 
ATOM     21  C   LIG A   1      -7.227   3.316 129.074  0.00  0.00    +0.007 C 
ENDBRANCH   1  21
BRANCH   2  22
ATOM     22  O   LIG A   1      -4.922   5.136 128.729  0.00  0.00    -0.503 OA
ATOM     23  H   LIG A   1      -5.166   5.642 127.939  0.00  0.00    +0.292 HD
ENDBRANCH   2  22
BRANCH   3  24
ATOM     24  O   LIG A   1      -4.656   7.450 130.516  0.00  0.00    -0.491 OA
ATOM     25  C   LIG A   1      -3.679   7.464 131.544  0.00  0.00    +0.277 C 
ENDBRANCH   3  24
TORSDOF 4
ENDMDL
MODEL 5
REMARK VINA RESULT:      -6.7      3.116      5.650
REMARK  Name = NuBBE_2338
REMARK  6 active torsions:
REMARK  status: ('A' for Active; 'I' for Inactive)
REMARK    1  A    between atoms: C_2  and  C_3
REMARK    2  A    between atoms: C_4  and  O_5
REMARK    3  A    between atoms: C_6  and  O_7
REMARK    4  A    between atoms: O_7  and  C_8
REMARK    5  A    between atoms: C_11  and  C_13
REMARK    6  A    between atoms: C_16  and  C_18
REMARK                            x       y       z     vdW  Elec       q    Type
REMARK                         _______ _______ _______ _____ _____    ______ ____
ROOT
ATOM      1  C   LIG A   1      -6.679   3.588 125.291  0.00  0.00    +0.061 A 
ATOM      2  C   LIG A   1      -7.525   4.525 125.933  0.00  0.00    +0.169 A 
ATOM      3  C   LIG A   1      -7.951   4.333 127.271  0.00  0.00    +0.162 A 
ATOM      4  C   LIG A   1      -7.496   3.221 127.994  0.00  0.00    +0.057 A 
ATOM      5  C   LIG A   1      -6.664   2.312 127.372  0.00  0.00    +0.005 A 
ATOM      6  C   LIG A   1      -6.069   1.055 127.904  0.00  0.00    +0.065 C 
ATOM      7  C   LIG A   1      -4.809   1.336 128.723  0.00  0.00    +0.016 C 
ATOM      8  C   LIG A   1      -6.279   2.492 126.052  0.00  0.00    +0.136 A 
ATOM      9  O   LIG A   1      -5.497   1.450 125.592  0.00  0.00    -0.483 OA
ATOM     10  C   LIG A   1      -5.738   0.377 126.551  0.00  0.00    +0.211 C 
ENDROOT
BRANCH  10  11
ATOM     11  C   LIG A   1      -6.824  -0.583 126.051  0.00  0.00    -0.003 A 
ATOM     12  C   LIG A   1      -7.637  -1.280 126.980  0.00  0.00    +0.011 A 
ATOM     13  C   LIG A   1      -8.626  -2.176 126.554  0.00  0.00    +0.050 A 
ATOM     14  C   LIG A   1      -8.777  -2.370 125.199  0.00  0.00    +0.166 A 
ATOM     15  C   LIG A   1      -7.994  -1.708 124.286  0.00  0.00    +0.167 A 
ATOM     16  O   LIG A   1      -8.294  -2.041 123.002  0.00  0.00    -0.453 OA
ATOM     17  C   LIG A   1      -9.344  -3.004 123.212  0.00  0.00    +0.466 C 
ATOM     18  O   LIG A   1      -9.669  -3.208 124.605  0.00  0.00    -0.453 OA
ATOM     19  C   LIG A   1      -7.017  -0.818 124.676  0.00  0.00    +0.056 A 
ENDBRANCH  10  11
BRANCH   1  21
ATOM     20  C   LIG A   1      -6.675   3.169 122.813  0.00  0.00    +0.009 C 
ATOM     21  C   LIG A   1      -6.155   3.714 123.913  0.00  0.00    +0.007 C 
ENDBRANCH   1  21
BRANCH   2  22
ATOM     22  O   LIG A   1      -7.925   5.658 125.266  0.00  0.00    -0.503 OA
ATOM     23  H   LIG A   1      -7.286   6.365 125.447  0.00  0.00    +0.292 HD
ENDBRANCH   2  22
BRANCH   3  24
ATOM     24  O   LIG A   1      -8.786   5.122 128.021  0.00  0.00    -0.491 OA
ATOM     25  C   LIG A   1      -8.662   5.094 129.434  0.00  0.00    +0.277 C 
ENDBRANCH   3  24
TORSDOF 4
ENDMDL
MODEL 6
REMARK VINA RESULT:      -6.7      8.426     11.543
REMARK  Name = NuBBE_2338
REMARK  6 active torsions:
REMARK  status: ('A' for Active; 'I' for Inactive)
REMARK    1  A    between atoms: C_2  and  C_3
REMARK    2  A    between atoms: C_4  and  O_5
REMARK    3  A    between atoms: C_6  and  O_7
REMARK    4  A    between atoms: O_7  and  C_8
REMARK    5  A    between atoms: C_11  and  C_13
REMARK    6  A    between atoms: C_16  and  C_18
REMARK                            x       y       z     vdW  Elec       q    Type
REMARK                         _______ _______ _______ _____ _____    ______ ____
ROOT
ATOM      1  C   LIG A   1      -6.263   5.447 132.771  0.00  0.00    +0.061 A 
ATOM      2  C   LIG A   1      -6.153   5.701 134.160  0.00  0.00    +0.169 A 
ATOM      3  C   LIG A   1      -7.141   5.247 135.070  0.00  0.00    +0.162 A 
ATOM      4  C   LIG A   1      -8.226   4.493 134.601  0.00  0.00    +0.057 A 
ATOM      5  C   LIG A   1      -8.330   4.238 133.248  0.00  0.00    +0.005 A 
ATOM      6  C   LIG A   1      -9.382   3.493 132.502  0.00  0.00    +0.065 C 
ATOM      7  C   LIG A   1      -9.146   1.984 132.561  0.00  0.00    +0.016 C 
ATOM      8  C   LIG A   1      -7.375   4.715 132.362  0.00  0.00    +0.136 A 
ATOM      9  O   LIG A   1      -7.684   4.407 131.051  0.00  0.00    -0.483 OA
ATOM     10  C   LIG A   1      -9.102   4.067 131.091  0.00  0.00    +0.211 C 
ENDROOT
BRANCH  10  11
ATOM     11  C   LIG A   1      -9.974   5.273 130.723  0.00  0.00    -0.003 A 
ATOM     12  C   LIG A   1     -11.050   5.653 131.564  0.00  0.00    +0.011 A 
ATOM     13  C   LIG A   1     -11.875   6.740 131.245  0.00  0.00    +0.050 A 
ATOM     14  C   LIG A   1     -11.615   7.423 130.078  0.00  0.00    +0.166 A 
ATOM     15  C   LIG A   1     -10.581   7.064 129.249  0.00  0.00    +0.167 A 
ATOM     16  O   LIG A   1     -10.495   7.857 128.148  0.00  0.00    -0.453 OA
ATOM     17  C   LIG A   1     -11.607   8.747 128.369  0.00  0.00    +0.466 C 
ATOM     18  O   LIG A   1     -12.315   8.488 129.601  0.00  0.00    -0.453 OA
ATOM     19  C   LIG A   1      -9.752   6.004 129.540  0.00  0.00    +0.056 A 
ENDBRANCH  10  11
BRANCH   1  21
ATOM     20  C   LIG A   1      -5.242   7.006 131.086  0.00  0.00    +0.009 C 
ATOM     21  C   LIG A   1      -5.273   5.849 131.748  0.00  0.00    +0.007 C 
ENDBRANCH   1  21
BRANCH   2  22
ATOM     22  O   LIG A   1      -5.060   6.375 134.650  0.00  0.00    -0.503 OA
ATOM     23  H   LIG A   1      -5.325   7.285 134.856  0.00  0.00    +0.292 HD
ENDBRANCH   2  22
BRANCH   3  24
ATOM     24  O   LIG A   1      -7.198   5.433 136.428  0.00  0.00    -0.491 OA
ATOM     25  C   LIG A   1      -7.842   6.593 136.930  0.00  0.00    +0.277 C 
ENDBRANCH   3  24
TORSDOF 4
ENDMDL
MODEL 7
REMARK VINA RESULT:      -6.7      6.930      9.525
REMARK  Name = NuBBE_2338
REMARK  6 active torsions:
REMARK  status: ('A' for Active; 'I' for Inactive)
REMARK    1  A    between atoms: C_2  and  C_3
REMARK    2  A    between atoms: C_4  and  O_5
REMARK    3  A    between atoms: C_6  and  O_7
REMARK    4  A    between atoms: O_7  and  C_8
REMARK    5  A    between atoms: C_11  and  C_13
REMARK    6  A    between atoms: C_16  and  C_18
REMARK                            x       y       z     vdW  Elec       q    Type
REMARK                         _______ _______ _______ _____ _____    ______ ____
ROOT
ATOM      1  C   LIG A   1      -8.556   4.775 132.596  0.00  0.00    +0.061 A 
ATOM      2  C   LIG A   1      -9.530   5.765 132.319  0.00  0.00    +0.169 A 
ATOM      3  C   LIG A   1      -9.960   6.021 130.992  0.00  0.00    +0.162 A 
ATOM      4  C   LIG A   1      -9.450   5.254 129.935  0.00  0.00    +0.057 A 
ATOM      5  C   LIG A   1      -8.507   4.283 130.205  0.00  0.00    +0.005 A 
ATOM      6  C   LIG A   1      -7.802   3.361 129.272  0.00  0.00    +0.065 C 
ATOM      7  C   LIG A   1      -8.661   2.143 128.934  0.00  0.00    +0.016 C 
ATOM      8  C   LIG A   1      -8.069   4.062 131.503  0.00  0.00    +0.136 A 
ATOM      9  O   LIG A   1      -7.085   3.094 131.562  0.00  0.00    -0.483 OA
ATOM     10  C   LIG A   1      -6.608   2.991 130.187  0.00  0.00    +0.211 C 
ENDROOT
BRANCH  10  11
ATOM     11  C   LIG A   1      -5.359   3.852 129.965  0.00  0.00    -0.003 A 
ATOM     12  C   LIG A   1      -4.260   3.750 130.855  0.00  0.00    +0.011 A 
ATOM     13  C   LIG A   1      -3.112   4.536 130.688  0.00  0.00    +0.050 A 
ATOM     14  C   LIG A   1      -3.089   5.424 129.635  0.00  0.00    +0.166 A 
ATOM     15  C   LIG A   1      -4.147   5.539 128.768  0.00  0.00    +0.167 A 
ATOM     16  O   LIG A   1      -3.931   6.471 127.802  0.00  0.00    -0.453 OA
ATOM     17  C   LIG A   1      -2.622   6.945 128.173  0.00  0.00    +0.466 C 
ATOM     18  O   LIG A   1      -2.072   6.273 129.328  0.00  0.00    -0.453 OA
ATOM     19  C   LIG A   1      -5.286   4.776 128.905  0.00  0.00    +0.056 A 
ENDBRANCH  10  11
BRANCH   1  21
ATOM     20  C   LIG A   1      -7.098   5.021 134.627  0.00  0.00    +0.009 C 
ATOM     21  C   LIG A   1      -8.067   4.412 133.944  0.00  0.00    +0.007 C 
ENDBRANCH   1  21
BRANCH   2  22
ATOM     22  O   LIG A   1     -10.096   6.479 133.348  0.00  0.00    -0.503 OA
ATOM     23  H   LIG A   1     -11.055   6.513 133.210  0.00  0.00    +0.292 HD
ENDBRANCH   2  22
BRANCH   3  24
ATOM     24  O   LIG A   1     -10.863   6.956 130.554  0.00  0.00    -0.491 OA
ATOM     25  C   LIG A   1     -12.045   6.510 129.909  0.00  0.00    +0.277 C 
ENDBRANCH   3  24
TORSDOF 4
ENDMDL
MODEL 8
REMARK VINA RESULT:      -6.6      7.328      9.817
REMARK  Name = NuBBE_2338
REMARK  6 active torsions:
REMARK  status: ('A' for Active; 'I' for Inactive)
REMARK    1  A    between atoms: C_2  and  C_3
REMARK    2  A    between atoms: C_4  and  O_5
REMARK    3  A    between atoms: C_6  and  O_7
REMARK    4  A    between atoms: O_7  and  C_8
REMARK    5  A    between atoms: C_11  and  C_13
REMARK    6  A    between atoms: C_16  and  C_18
REMARK                            x       y       z     vdW  Elec       q    Type
REMARK                         _______ _______ _______ _____ _____    ______ ____
ROOT
ATOM      1  C   LIG A   1      -9.701   4.962 131.193  0.00  0.00    +0.061 A 
ATOM      2  C   LIG A   1     -10.263   3.664 131.118  0.00  0.00    +0.169 A 
ATOM      3  C   LIG A   1      -9.733   2.590 131.876  0.00  0.00    +0.162 A 
ATOM      4  C   LIG A   1      -8.662   2.817 132.752  0.00  0.00    +0.057 A 
ATOM      5  C   LIG A   1      -8.118   4.084 132.832  0.00  0.00    +0.005 A 
ATOM      6  C   LIG A   1      -6.979   4.576 133.654  0.00  0.00    +0.065 C 
ATOM      7  C   LIG A   1      -7.418   4.896 135.084  0.00  0.00    +0.016 C 
ATOM      8  C   LIG A   1      -8.624   5.121 132.062  0.00  0.00    +0.136 A 
ATOM      9  O   LIG A   1      -7.913   6.293 132.238  0.00  0.00    -0.483 OA
ATOM     10  C   LIG A   1      -6.660   5.859 132.847  0.00  0.00    +0.211 C 
ENDROOT
BRANCH  10  11
ATOM     11  C   LIG A   1      -5.563   5.677 131.792  0.00  0.00    -0.003 A 
ATOM     12  C   LIG A   1      -4.646   4.600 131.901  0.00  0.00    +0.011 A 
ATOM     13  C   LIG A   1      -3.622   4.418 130.962  0.00  0.00    +0.050 A 
ATOM     14  C   LIG A   1      -3.525   5.328 129.932  0.00  0.00    +0.166 A 
ATOM     15  C   LIG A   1      -4.400   6.379 129.816  0.00  0.00    +0.167 A 
ATOM     16  O   LIG A   1      -4.133   7.164 128.738  0.00  0.00    -0.453 OA
ATOM     17  C   LIG A   1      -2.975   6.496 128.199  0.00  0.00    +0.466 C 
ATOM     18  O   LIG A   1      -2.591   5.319 128.943  0.00  0.00    -0.453 OA
ATOM     19  C   LIG A   1      -5.419   6.580 130.721  0.00  0.00    +0.056 A 
ENDBRANCH  10  11
BRANCH   1  21
ATOM     20  C   LIG A   1     -11.257   6.895 130.799  0.00  0.00    +0.009 C 
ATOM     21  C   LIG A   1     -10.200   6.152 130.470  0.00  0.00    +0.007 C 
ENDBRANCH   1  21
BRANCH   2  22
ATOM     22  O   LIG A   1     -11.359   3.436 130.321  0.00  0.00    -0.503 OA
ATOM     23  H   LIG A   1     -11.304   2.533 129.972  0.00  0.00    +0.292 HD
ENDBRANCH   2  22
BRANCH   3  24
ATOM     24  O   LIG A   1     -10.137   1.280 131.896  0.00  0.00    -0.491 OA
ATOM     25  C   LIG A   1      -9.161   0.262 131.734  0.00  0.00    +0.277 C 
ENDBRANCH   3  24
TORSDOF 4
ENDMDL
MODEL 9
REMARK VINA RESULT:      -6.4      5.099      8.588
REMARK  Name = NuBBE_2338
REMARK  6 active torsions:
REMARK  status: ('A' for Active; 'I' for Inactive)
REMARK    1  A    between atoms: C_2  and  C_3
REMARK    2  A    between atoms: C_4  and  O_5
REMARK    3  A    between atoms: C_6  and  O_7
REMARK    4  A    between atoms: O_7  and  C_8
REMARK    5  A    between atoms: C_11  and  C_13
REMARK    6  A    between atoms: C_16  and  C_18
REMARK                            x       y       z     vdW  Elec       q    Type
REMARK                         _______ _______ _______ _____ _____    ______ ____
ROOT
ATOM      1  C   LIG A   1      -9.566   5.306 129.693  0.00  0.00    +0.061 A 
ATOM      2  C   LIG A   1      -9.928   4.795 130.963  0.00  0.00    +0.169 A 
ATOM      3  C   LIG A   1      -9.205   3.732 131.560  0.00  0.00    +0.162 A 
ATOM      4  C   LIG A   1      -8.082   3.201 130.910  0.00  0.00    +0.057 A 
ATOM      5  C   LIG A   1      -7.722   3.704 129.675  0.00  0.00    +0.005 A 
ATOM      6  C   LIG A   1      -6.603   3.305 128.779  0.00  0.00    +0.065 C 
ATOM      7  C   LIG A   1      -5.287   3.961 129.201  0.00  0.00    +0.016 C 
ATOM      8  C   LIG A   1      -8.456   4.723 129.085  0.00  0.00    +0.136 A 
ATOM      9  O   LIG A   1      -7.977   5.048 127.830  0.00  0.00    -0.483 OA
ATOM     10  C   LIG A   1      -7.150   3.905 127.460  0.00  0.00    +0.211 C 
ENDROOT
BRANCH  10  11
ATOM     11  C   LIG A   1      -7.933   2.908 126.598  0.00  0.00    -0.003 A 
ATOM     12  C   LIG A   1      -8.292   1.642 127.126  0.00  0.00    +0.011 A 
ATOM     13  C   LIG A   1      -8.993   0.704 126.357  0.00  0.00    +0.050 A 
ATOM     14  C   LIG A   1      -9.313   1.045 125.062  0.00  0.00    +0.166 A 
ATOM     15  C   LIG A   1      -8.967   2.264 124.533  0.00  0.00    +0.167 A 
ATOM     16  O   LIG A   1      -9.368   2.405 123.241  0.00  0.00    -0.453 OA
ATOM     17  C   LIG A   1      -9.990   1.126 123.011  0.00  0.00    +0.466 C 
ATOM     18  O   LIG A   1      -9.973   0.261 124.168  0.00  0.00    -0.453 OA
ATOM     19  C   LIG A   1      -8.283   3.207 125.267  0.00  0.00    +0.056 A 
ENDBRANCH  10  11
BRANCH   1  21
ATOM     20  C   LIG A   1     -10.131   7.724 129.309  0.00  0.00    +0.009 C 
ATOM     21  C   LIG A   1     -10.234   6.430 129.002  0.00  0.00    +0.007 C 
ENDBRANCH   1  21
BRANCH   2  22
ATOM     22  O   LIG A   1     -10.981   5.349 131.651  0.00  0.00    -0.503 OA
ATOM     23  H   LIG A   1     -10.820   6.300 131.750  0.00  0.00    +0.292 HD
ENDBRANCH   2  22
BRANCH   3  24
ATOM     24  O   LIG A   1      -9.441   3.108 132.759  0.00  0.00    -0.491 OA
ATOM     25  C   LIG A   1      -8.907   3.680 133.942  0.00  0.00    +0.277 C 
ENDBRANCH   3  24
TORSDOF 4
ENDMDL
