MODEL 1
REMARK VINA RESULT:      -7.1      0.000      0.000
REMARK  Name = NuBBE_1540
REMARK  3 active torsions:
REMARK  status: ('A' for Active; 'I' for Inactive)
REMARK    1  A    between atoms: C_1  and  C_2
REMARK    2  A    between atoms: C_2  and  C_3
REMARK    3  A    between atoms: C_10  and  C_20
REMARK                            x       y       z     vdW  Elec       q    Type
REMARK                         _______ _______ _______ _____ _____    ______ ____
ROOT
ATOM      1  C   LIG A   1      -7.410  -3.885 124.518  0.00  0.00    +0.011 C 
ATOM      2  C   LIG A   1      -8.721  -3.158 124.726  0.00  0.00    -0.028 C 
ATOM      3  C   LIG A   1      -9.604  -3.320 123.504  0.00  0.00    +0.011 C 
ATOM      4  C   LIG A   1      -8.771  -1.809 125.436  0.00  0.00    +0.006 C 
ATOM      5  C   LIG A   1      -9.449  -3.009 126.090  0.00  0.00    -0.001 C 
ATOM      6  C   LIG A   1      -9.048  -3.869 127.264  0.00  0.00    +0.004 C 
ATOM      7  C   LIG A   1      -8.367  -3.285 128.521  0.00  0.00    +0.004 C 
ATOM      8  C   LIG A   1      -7.694  -1.904 128.437  0.00  0.00    -0.010 C 
ATOM      9  C   LIG A   1      -6.879  -1.828 127.135  0.00  0.00    -0.000 C 
ATOM     10  C   LIG A   1      -7.690  -1.029 126.119  0.00  0.00    +0.022 C 
ATOM     11  C   LIG A   1      -6.687  -0.275 125.305  0.00  0.00    -0.073 C 
ATOM     12  C   LIG A   1      -6.987   0.522 124.255  0.00  0.00    +0.008 C 
ATOM     13  C   LIG A   1      -5.324  -0.352 125.910  0.00  0.00    +0.031 C 
ATOM     14  C   LIG A   1      -5.437  -1.320 127.084  0.00  0.00    +0.009 C 
ATOM     15  C   LIG A   1      -6.909  -1.571 129.702  0.00  0.00    +0.008 C 
ENDROOT
TORSDOF 0
ENDMDL
MODEL 2
REMARK VINA RESULT:      -6.8      2.283      4.100
REMARK  Name = NuBBE_1540
REMARK  3 active torsions:
REMARK  status: ('A' for Active; 'I' for Inactive)
REMARK    1  A    between atoms: C_1  and  C_2
REMARK    2  A    between atoms: C_2  and  C_3
REMARK    3  A    between atoms: C_10  and  C_20
REMARK                            x       y       z     vdW  Elec       q    Type
REMARK                         _______ _______ _______ _____ _____    ______ ____
ROOT
ATOM      1  C   LIG A   1      -9.286  -2.049 125.299  0.00  0.00    +0.011 C 
ATOM      2  C   LIG A   1      -9.115  -2.213 123.805  0.00  0.00    -0.028 C 
ATOM      3  C   LIG A   1      -9.691  -3.542 123.359  0.00  0.00    +0.011 C 
ATOM      4  C   LIG A   1      -7.845  -1.744 123.102  0.00  0.00    +0.006 C 
ATOM      5  C   LIG A   1      -9.166  -1.055 122.772  0.00  0.00    -0.001 C 
ATOM      6  C   LIG A   1      -9.718   0.293 123.167  0.00  0.00    +0.004 C 
ATOM      7  C   LIG A   1      -8.830   1.553 123.269  0.00  0.00    +0.004 C 
ATOM      8  C   LIG A   1      -7.305   1.387 123.393  0.00  0.00    -0.010 C 
ATOM      9  C   LIG A   1      -7.008   0.271 124.409  0.00  0.00    -0.000 C 
ATOM     10  C   LIG A   1      -6.660  -0.994 123.629  0.00  0.00    +0.022 C 
ATOM     11  C   LIG A   1      -5.634  -1.706 124.452  0.00  0.00    -0.073 C 
ATOM     12  C   LIG A   1      -5.092  -2.905 124.141  0.00  0.00    +0.008 C 
ATOM     13  C   LIG A   1      -5.133  -0.845 125.564  0.00  0.00    +0.031 C 
ATOM     14  C   LIG A   1      -5.984   0.420 125.535  0.00  0.00    +0.009 C 
ATOM     15  C   LIG A   1      -6.606   2.712 123.679  0.00  0.00    +0.008 C 
ENDROOT
TORSDOF 0
ENDMDL
MODEL 3
REMARK VINA RESULT:      -6.5      1.506      5.066
REMARK  Name = NuBBE_1540
REMARK  3 active torsions:
REMARK  status: ('A' for Active; 'I' for Inactive)
REMARK    1  A    between atoms: C_1  and  C_2
REMARK    2  A    between atoms: C_2  and  C_3
REMARK    3  A    between atoms: C_10  and  C_20
REMARK                            x       y       z     vdW  Elec       q    Type
REMARK                         _______ _______ _______ _____ _____    ______ ____
ROOT
ATOM      1  C   LIG A   1      -5.525  -1.514 124.985  0.00  0.00    +0.011 C 
ATOM      2  C   LIG A   1      -6.207  -0.679 126.047  0.00  0.00    -0.028 C 
ATOM      3  C   LIG A   1      -5.406  -0.719 127.333  0.00  0.00    +0.011 C 
ATOM      4  C   LIG A   1      -7.726  -0.664 126.184  0.00  0.00    +0.006 C 
ATOM      5  C   LIG A   1      -7.013   0.621 125.775  0.00  0.00    -0.001 C 
ATOM      6  C   LIG A   1      -6.898   1.322 124.443  0.00  0.00    +0.004 C 
ATOM      7  C   LIG A   1      -8.071   1.391 123.441  0.00  0.00    +0.004 C 
ATOM      8  C   LIG A   1      -9.234   0.392 123.579  0.00  0.00    -0.010 C 
ATOM      9  C   LIG A   1      -8.656  -1.009 123.843  0.00  0.00    -0.000 C 
ATOM     10  C   LIG A   1      -8.786  -1.297 125.335  0.00  0.00    +0.022 C 
ATOM     11  C   LIG A   1      -9.047  -2.766 125.442  0.00  0.00    -0.073 C 
ATOM     12  C   LIG A   1      -9.175  -3.445 126.604  0.00  0.00    +0.008 C 
ATOM     13  C   LIG A   1      -9.342  -3.366 124.107  0.00  0.00    +0.031 C 
ATOM     14  C   LIG A   1      -9.116  -2.256 123.085  0.00  0.00    +0.009 C 
ATOM     15  C   LIG A   1     -10.201   0.472 122.401  0.00  0.00    +0.008 C 
ENDROOT
TORSDOF 0
ENDMDL
MODEL 4
REMARK VINA RESULT:      -6.3      1.812      4.367
REMARK  Name = NuBBE_1540
REMARK  3 active torsions:
REMARK  status: ('A' for Active; 'I' for Inactive)
REMARK    1  A    between atoms: C_1  and  C_2
REMARK    2  A    between atoms: C_2  and  C_3
REMARK    3  A    between atoms: C_10  and  C_20
REMARK                            x       y       z     vdW  Elec       q    Type
REMARK                         _______ _______ _______ _____ _____    ______ ____
ROOT
ATOM      1  C   LIG A   1      -5.186  -0.526 126.412  0.00  0.00    +0.011 C 
ATOM      2  C   LIG A   1      -5.918  -1.723 126.978  0.00  0.00    -0.028 C 
ATOM      3  C   LIG A   1      -5.204  -2.230 128.216  0.00  0.00    +0.011 C 
ATOM      4  C   LIG A   1      -6.537  -2.774 126.062  0.00  0.00    +0.006 C 
ATOM      5  C   LIG A   1      -7.457  -1.926 126.935  0.00  0.00    -0.001 C 
ATOM      6  C   LIG A   1      -8.368  -0.770 126.602  0.00  0.00    +0.004 C 
ATOM      7  C   LIG A   1      -9.188  -0.714 125.295  0.00  0.00    +0.004 C 
ATOM      8  C   LIG A   1      -8.778  -1.610 124.113  0.00  0.00    -0.010 C 
ATOM      9  C   LIG A   1      -7.250  -1.549 123.951  0.00  0.00    -0.000 C 
ATOM     10  C   LIG A   1      -6.660  -2.813 124.570  0.00  0.00    +0.022 C 
ATOM     11  C   LIG A   1      -5.469  -3.155 123.732  0.00  0.00    -0.073 C 
ATOM     12  C   LIG A   1      -4.628  -4.186 123.971  0.00  0.00    +0.008 C 
ATOM     13  C   LIG A   1      -5.426  -2.337 122.484  0.00  0.00    +0.031 C 
ATOM     14  C   LIG A   1      -6.563  -1.326 122.602  0.00  0.00    +0.009 C 
ATOM     15  C   LIG A   1      -9.567  -1.287 122.848  0.00  0.00    +0.008 C 
ENDROOT
TORSDOF 0
ENDMDL
MODEL 5
REMARK VINA RESULT:      -6.3      1.247      3.816
REMARK  Name = NuBBE_1540
REMARK  3 active torsions:
REMARK  status: ('A' for Active; 'I' for Inactive)
REMARK    1  A    between atoms: C_1  and  C_2
REMARK    2  A    between atoms: C_2  and  C_3
REMARK    3  A    between atoms: C_10  and  C_20
REMARK                            x       y       z     vdW  Elec       q    Type
REMARK                         _______ _______ _______ _____ _____    ______ ____
ROOT
ATOM      1  C   LIG A   1      -7.333   0.806 125.937  0.00  0.00    +0.011 C 
ATOM      2  C   LIG A   1      -6.061   0.192 126.479  0.00  0.00    -0.028 C 
ATOM      3  C   LIG A   1      -4.888   1.117 126.222  0.00  0.00    +0.011 C 
ATOM      4  C   LIG A   1      -5.795  -1.305 126.358  0.00  0.00    +0.006 C 
ATOM      5  C   LIG A   1      -5.973  -0.700 127.747  0.00  0.00    -0.001 C 
ATOM      6  C   LIG A   1      -7.125  -0.752 128.721  0.00  0.00    +0.004 C 
ATOM      7  C   LIG A   1      -7.984  -2.021 128.919  0.00  0.00    +0.004 C 
ATOM      8  C   LIG A   1      -7.968  -3.113 127.836  0.00  0.00    -0.010 C 
ATOM      9  C   LIG A   1      -8.066  -2.444 126.455  0.00  0.00    -0.000 C 
ATOM     10  C   LIG A   1      -6.667  -2.411 125.848  0.00  0.00    +0.022 C 
ATOM     11  C   LIG A   1      -6.861  -2.587 124.375  0.00  0.00    -0.073 C 
ATOM     12  C   LIG A   1      -5.868  -2.567 123.458  0.00  0.00    +0.008 C 
ATOM     13  C   LIG A   1      -8.264  -2.983 124.053  0.00  0.00    +0.031 C 
ATOM     14  C   LIG A   1      -9.035  -2.914 125.368  0.00  0.00    +0.009 C 
ATOM     15  C   LIG A   1      -9.013  -4.194 128.097  0.00  0.00    +0.008 C 
ENDROOT
TORSDOF 0
ENDMDL
MODEL 6
REMARK VINA RESULT:      -6.3      1.442      2.225
REMARK  Name = NuBBE_1540
REMARK  3 active torsions:
REMARK  status: ('A' for Active; 'I' for Inactive)
REMARK    1  A    between atoms: C_1  and  C_2
REMARK    2  A    between atoms: C_2  and  C_3
REMARK    3  A    between atoms: C_10  and  C_20
REMARK                            x       y       z     vdW  Elec       q    Type
REMARK                         _______ _______ _______ _____ _____    ______ ____
ROOT
ATOM      1  C   LIG A   1      -5.250  -3.182 124.240  0.00  0.00    +0.011 C 
ATOM      2  C   LIG A   1      -6.425  -2.311 123.852  0.00  0.00    -0.028 C 
ATOM      3  C   LIG A   1      -6.241  -1.790 122.441  0.00  0.00    +0.011 C 
ATOM      4  C   LIG A   1      -7.067  -1.361 124.858  0.00  0.00    +0.006 C 
ATOM      5  C   LIG A   1      -7.888  -2.530 124.324  0.00  0.00    -0.001 C 
ATOM      6  C   LIG A   1      -8.295  -3.838 124.956  0.00  0.00    +0.004 C 
ATOM      7  C   LIG A   1      -8.692  -3.949 126.445  0.00  0.00    +0.004 C 
ATOM      8  C   LIG A   1      -8.273  -2.832 127.418  0.00  0.00    -0.010 C 
ATOM      9  C   LIG A   1      -6.809  -2.455 127.139  0.00  0.00    -0.000 C 
ATOM     10  C   LIG A   1      -6.803  -1.167 126.320  0.00  0.00    +0.022 C 
ATOM     11  C   LIG A   1      -5.592  -0.411 126.765  0.00  0.00    -0.073 C 
ATOM     12  C   LIG A   1      -5.187   0.772 126.248  0.00  0.00    +0.008 C 
ATOM     13  C   LIG A   1      -4.986  -1.021 127.985  0.00  0.00    +0.031 C 
ATOM     14  C   LIG A   1      -5.761  -2.309 128.243  0.00  0.00    +0.009 C 
ATOM     15  C   LIG A   1      -8.574  -3.194 128.869  0.00  0.00    +0.008 C 
ENDROOT
TORSDOF 0
ENDMDL
MODEL 7
REMARK VINA RESULT:      -6.2      1.417      3.996
REMARK  Name = NuBBE_1540
REMARK  3 active torsions:
REMARK  status: ('A' for Active; 'I' for Inactive)
REMARK    1  A    between atoms: C_1  and  C_2
REMARK    2  A    between atoms: C_2  and  C_3
REMARK    3  A    between atoms: C_10  and  C_20
REMARK                            x       y       z     vdW  Elec       q    Type
REMARK                         _______ _______ _______ _____ _____    ______ ____
ROOT
ATOM      1  C   LIG A   1      -9.651   0.876 125.278  0.00  0.00    +0.011 C 
ATOM      2  C   LIG A   1      -8.680   0.767 124.123  0.00  0.00    -0.028 C 
ATOM      3  C   LIG A   1      -9.244   1.467 122.902  0.00  0.00    +0.011 C 
ATOM      4  C   LIG A   1      -7.889  -0.514 123.876  0.00  0.00    +0.006 C 
ATOM      5  C   LIG A   1      -7.133   0.754 124.260  0.00  0.00    -0.001 C 
ATOM      6  C   LIG A   1      -6.481   1.179 125.553  0.00  0.00    +0.004 C 
ATOM      7  C   LIG A   1      -5.724   0.186 126.462  0.00  0.00    +0.004 C 
ATOM      8  C   LIG A   1      -5.980  -1.323 126.300  0.00  0.00    -0.010 C 
ATOM      9  C   LIG A   1      -7.493  -1.558 126.161  0.00  0.00    -0.000 C 
ATOM     10  C   LIG A   1      -7.801  -1.774 124.682  0.00  0.00    +0.022 C 
ATOM     11  C   LIG A   1      -8.923  -2.763 124.643  0.00  0.00    -0.073 C 
ATOM     12  C   LIG A   1      -9.534  -3.193 123.516  0.00  0.00    +0.008 C 
ATOM     13  C   LIG A   1      -9.162  -3.370 125.986  0.00  0.00    +0.031 C 
ATOM     14  C   LIG A   1      -8.247  -2.627 126.955  0.00  0.00    +0.009 C 
ATOM     15  C   LIG A   1      -5.305  -2.139 127.398  0.00  0.00    +0.008 C 
ENDROOT
TORSDOF 0
ENDMDL
MODEL 8
REMARK VINA RESULT:      -6.1      2.390      5.049
REMARK  Name = NuBBE_1540
REMARK  3 active torsions:
REMARK  status: ('A' for Active; 'I' for Inactive)
REMARK    1  A    between atoms: C_1  and  C_2
REMARK    2  A    between atoms: C_2  and  C_3
REMARK    3  A    between atoms: C_10  and  C_20
REMARK                            x       y       z     vdW  Elec       q    Type
REMARK                         _______ _______ _______ _____ _____    ______ ____
ROOT
ATOM      1  C   LIG A   1      -4.875  -3.294 129.490  0.00  0.00    +0.011 C 
ATOM      2  C   LIG A   1      -5.879  -3.760 130.522  0.00  0.00    -0.028 C 
ATOM      3  C   LIG A   1      -5.567  -5.182 130.945  0.00  0.00    +0.011 C 
ATOM      4  C   LIG A   1      -7.353  -3.383 130.414  0.00  0.00    +0.006 C 
ATOM      5  C   LIG A   1      -6.542  -2.849 131.591  0.00  0.00    -0.001 C 
ATOM      6  C   LIG A   1      -5.978  -1.480 131.880  0.00  0.00    +0.004 C 
ATOM      7  C   LIG A   1      -6.737  -0.182 131.526  0.00  0.00    +0.004 C 
ATOM      8  C   LIG A   1      -7.877  -0.237 130.493  0.00  0.00    -0.010 C 
ATOM      9  C   LIG A   1      -7.425  -1.097 129.301  0.00  0.00    -0.000 C 
ATOM     10  C   LIG A   1      -8.058  -2.478 129.451  0.00  0.00    +0.022 C 
ATOM     11  C   LIG A   1      -8.340  -2.945 128.058  0.00  0.00    -0.073 C 
ATOM     12  C   LIG A   1      -8.859  -4.153 127.740  0.00  0.00    +0.008 C 
ATOM     13  C   LIG A   1      -8.160  -1.845 127.066  0.00  0.00    +0.031 C 
ATOM     14  C   LIG A   1      -7.598  -0.661 127.845  0.00  0.00    +0.009 C 
ATOM     15  C   LIG A   1      -8.381   1.154 130.122  0.00  0.00    +0.008 C 
ENDROOT
TORSDOF 0
ENDMDL
MODEL 9
REMARK VINA RESULT:      -6.1      2.192      3.507
REMARK  Name = NuBBE_1540
REMARK  3 active torsions:
REMARK  status: ('A' for Active; 'I' for Inactive)
REMARK    1  A    between atoms: C_1  and  C_2
REMARK    2  A    between atoms: C_2  and  C_3
REMARK    3  A    between atoms: C_10  and  C_20
REMARK                            x       y       z     vdW  Elec       q    Type
REMARK                         _______ _______ _______ _____ _____    ______ ____
ROOT
ATOM      1  C   LIG A   1      -7.728  -1.879 122.514  0.00  0.00    +0.011 C 
ATOM      2  C   LIG A   1      -8.351  -2.192 123.856  0.00  0.00    -0.028 C 
ATOM      3  C   LIG A   1      -9.399  -3.277 123.702  0.00  0.00    +0.011 C 
ATOM      4  C   LIG A   1      -8.649  -1.087 124.864  0.00  0.00    +0.006 C 
ATOM      5  C   LIG A   1      -7.604  -2.141 125.217  0.00  0.00    -0.001 C 
ATOM      6  C   LIG A   1      -6.096  -2.083 125.255  0.00  0.00    +0.004 C 
ATOM      7  C   LIG A   1      -5.330  -0.836 125.748  0.00  0.00    +0.004 C 
ATOM      8  C   LIG A   1      -6.058   0.519 125.804  0.00  0.00    -0.010 C 
ATOM      9  C   LIG A   1      -6.872   0.698 124.512  0.00  0.00    -0.000 C 
ATOM     10  C   LIG A   1      -8.330   0.376 124.827  0.00  0.00    +0.022 C 
ATOM     11  C   LIG A   1      -9.141   1.294 123.967  0.00  0.00    -0.073 C 
ATOM     12  C   LIG A   1     -10.492   1.299 123.904  0.00  0.00    +0.008 C 
ATOM     13  C   LIG A   1      -8.288   2.339 123.329  0.00  0.00    +0.031 C 
ATOM     14  C   LIG A   1      -6.848   1.983 123.682  0.00  0.00    +0.009 C 
ATOM     15  C   LIG A   1      -5.106   1.668 126.123  0.00  0.00    +0.008 C 
ENDROOT
TORSDOF 0
ENDMDL
