MODEL 1
REMARK VINA RESULT:      -8.0      0.000      0.000
REMARK  Name = NuBBE_2496
REMARK  7 active torsions:
REMARK  status: ('A' for Active; 'I' for Inactive)
REMARK    1  A    between atoms: C_1  and  C_2
REMARK    2  A    between atoms: C_2  and  C_3
REMARK    3  A    between atoms: C_4  and  C_5
REMARK    4  A    between atoms: C_14  and  C_15
REMARK    5  A    between atoms: C_14  and  C_16
REMARK    6  A    between atoms: C_17  and  O_19
REMARK    7  A    between atoms: C_22  and  C_23
REMARK                            x       y       z     vdW  Elec       q    Type
REMARK                         _______ _______ _______ _____ _____    ______ ____
ROOT
ATOM      1  C   LIG A   1      -7.140  -2.548 125.170  0.00  0.00    -0.041 A 
ATOM      2  C   LIG A   1      -8.447  -3.034 124.933  0.00  0.00    -0.047 A 
ATOM      3  C   LIG A   1      -8.978  -3.296 123.547  0.00  0.00    +0.044 C 
ATOM      4  C   LIG A   1      -9.288  -3.294 126.018  0.00  0.00    +0.004 A 
ATOM      5  C   LIG A   1      -8.868  -3.052 127.324  0.00  0.00    +0.005 A 
ATOM      6  C   LIG A   1      -7.584  -2.560 127.607  0.00  0.00    -0.038 A 
ATOM      7  C   LIG A   1      -6.716  -2.311 126.513  0.00  0.00    -0.040 A 
ATOM      8  C   LIG A   1      -5.352  -1.747 126.823  0.00  0.00    +0.036 C 
ATOM      9  C   LIG A   1      -4.790  -2.449 128.045  0.00  0.00    +0.009 C 
ATOM     10  C   LIG A   1      -5.609  -2.116 129.306  0.00  0.00    +0.008 C 
ATOM     11  C   LIG A   1      -5.055  -2.878 130.573  0.00  0.00    -0.005 C 
ATOM     12  C   LIG A   1      -3.641  -2.338 130.928  0.00  0.00    +0.014 C 
ATOM     13  C   LIG A   1      -4.884  -4.399 130.343  0.00  0.00    +0.014 C 
ATOM     14  C   LIG A   1      -5.979  -2.644 131.794  0.00  0.00    +0.121 C 
ATOM     15  C   LIG A   1      -7.456  -2.933 131.551  0.00  0.00    +0.033 C 
ATOM     16  C   LIG A   1      -7.859  -3.131 130.092  0.00  0.00    +0.014 C 
ATOM     17  C   LIG A   1      -7.181  -2.189 129.063  0.00  0.00    -0.003 C 
ATOM     18  C   LIG A   1      -7.777  -0.763 129.273  0.00  0.00    +0.016 C 
ENDROOT
BRANCH   1  20
ATOM     19  C   LIG A   1      -5.247  -3.393 123.724  0.00  0.00    +0.009 C 
ATOM     20  C   LIG A   1      -6.226  -2.257 123.990  0.00  0.00    +0.032 C 
ENDBRANCH   1  20
BRANCH  14  21
ATOM     21  O   LIG A   1      -5.858  -1.307 132.294  0.00  0.00    -0.391 OA
ATOM     22  H   LIG A   1      -6.490  -0.738 131.827  0.00  0.00    +0.210 HD
ENDBRANCH  14  21
TORSDOF 2
ENDMDL
MODEL 2
REMARK VINA RESULT:      -7.4      2.741      6.336
REMARK  Name = NuBBE_2496
REMARK  7 active torsions:
REMARK  status: ('A' for Active; 'I' for Inactive)
REMARK    1  A    between atoms: C_1  and  C_2
REMARK    2  A    between atoms: C_2  and  C_3
REMARK    3  A    between atoms: C_4  and  C_5
REMARK    4  A    between atoms: C_14  and  C_15
REMARK    5  A    between atoms: C_14  and  C_16
REMARK    6  A    between atoms: C_17  and  O_19
REMARK    7  A    between atoms: C_22  and  C_23
REMARK                            x       y       z     vdW  Elec       q    Type
REMARK                         _______ _______ _______ _____ _____    ______ ____
ROOT
ATOM      1  C   LIG A   1      -6.615  -2.127 129.518  0.00  0.00    -0.041 A 
ATOM      2  C   LIG A   1      -5.607  -1.191 129.844  0.00  0.00    -0.047 A 
ATOM      3  C   LIG A   1      -4.844  -1.237 131.143  0.00  0.00    +0.044 C 
ATOM      4  C   LIG A   1      -5.289  -0.181 128.933  0.00  0.00    +0.004 A 
ATOM      5  C   LIG A   1      -5.971  -0.067 127.724  0.00  0.00    +0.005 A 
ATOM      6  C   LIG A   1      -6.987  -0.967 127.362  0.00  0.00    -0.038 A 
ATOM      7  C   LIG A   1      -7.304  -2.007 128.273  0.00  0.00    -0.040 A 
ATOM      8  C   LIG A   1      -8.421  -2.946 127.894  0.00  0.00    +0.036 C 
ATOM      9  C   LIG A   1      -8.303  -3.288 126.420  0.00  0.00    +0.009 C 
ATOM     10  C   LIG A   1      -8.561  -2.052 125.538  0.00  0.00    +0.008 C 
ATOM     11  C   LIG A   1      -8.397  -2.392 124.004  0.00  0.00    -0.005 C 
ATOM     12  C   LIG A   1      -9.524  -3.370 123.565  0.00  0.00    +0.014 C 
ATOM     13  C   LIG A   1      -7.063  -3.107 123.678  0.00  0.00    +0.014 C 
ATOM     14  C   LIG A   1      -8.516  -1.108 123.147  0.00  0.00    +0.121 C 
ATOM     15  C   LIG A   1      -7.612   0.042 123.580  0.00  0.00    +0.033 C 
ATOM     16  C   LIG A   1      -6.941  -0.121 124.941  0.00  0.00    +0.014 C 
ATOM     17  C   LIG A   1      -7.812  -0.748 126.061  0.00  0.00    -0.003 C 
ATOM     18  C   LIG A   1      -8.886   0.308 126.462  0.00  0.00    +0.016 C 
ENDROOT
BRANCH   1  20
ATOM     19  C   LIG A   1      -6.080  -4.449 130.360  0.00  0.00    +0.009 C 
ATOM     20  C   LIG A   1      -6.968  -3.222 130.513  0.00  0.00    +0.032 C 
ENDBRANCH   1  20
BRANCH  14  21
ATOM     21  O   LIG A   1      -9.865  -0.628 123.105  0.00  0.00    -0.391 OA
ATOM     22  H   LIG A   1     -10.466  -1.386 123.026  0.00  0.00    +0.210 HD
ENDBRANCH  14  21
TORSDOF 2
ENDMDL
MODEL 3
REMARK VINA RESULT:      -7.1      1.029      1.265
REMARK  Name = NuBBE_2496
REMARK  7 active torsions:
REMARK  status: ('A' for Active; 'I' for Inactive)
REMARK    1  A    between atoms: C_1  and  C_2
REMARK    2  A    between atoms: C_2  and  C_3
REMARK    3  A    between atoms: C_4  and  C_5
REMARK    4  A    between atoms: C_14  and  C_15
REMARK    5  A    between atoms: C_14  and  C_16
REMARK    6  A    between atoms: C_17  and  O_19
REMARK    7  A    between atoms: C_22  and  C_23
REMARK                            x       y       z     vdW  Elec       q    Type
REMARK                         _______ _______ _______ _____ _____    ______ ____
ROOT
ATOM      1  C   LIG A   1      -7.630  -1.809 125.091  0.00  0.00    -0.041 A 
ATOM      2  C   LIG A   1      -8.728  -2.671 124.864  0.00  0.00    -0.047 A 
ATOM      3  C   LIG A   1      -9.365  -2.836 123.508  0.00  0.00    +0.044 C 
ATOM      4  C   LIG A   1      -9.248  -3.412 125.928  0.00  0.00    +0.004 A 
ATOM      5  C   LIG A   1      -8.721  -3.289 127.211  0.00  0.00    +0.005 A 
ATOM      6  C   LIG A   1      -7.639  -2.437 127.487  0.00  0.00    -0.038 A 
ATOM      7  C   LIG A   1      -7.092  -1.695 126.408  0.00  0.00    -0.040 A 
ATOM      8  C   LIG A   1      -5.954  -0.755 126.719  0.00  0.00    +0.036 C 
ATOM      9  C   LIG A   1      -5.002  -1.432 127.688  0.00  0.00    +0.009 C 
ATOM     10  C   LIG A   1      -5.666  -1.654 129.059  0.00  0.00    +0.008 C 
ATOM     11  C   LIG A   1      -4.693  -2.397 130.059  0.00  0.00    -0.005 C 
ATOM     12  C   LIG A   1      -3.494  -1.469 130.403  0.00  0.00    +0.014 C 
ATOM     13  C   LIG A   1      -4.077  -3.686 129.463  0.00  0.00    +0.014 C 
ATOM     14  C   LIG A   1      -5.429  -2.740 131.378  0.00  0.00    +0.121 C 
ATOM     15  C   LIG A   1      -6.751  -3.481 131.205  0.00  0.00    +0.033 C 
ATOM     16  C   LIG A   1      -7.301  -3.529 129.783  0.00  0.00    +0.014 C 
ATOM     17  C   LIG A   1      -7.146  -2.231 128.947  0.00  0.00    -0.003 C 
ATOM     18  C   LIG A   1      -8.130  -1.176 129.537  0.00  0.00    +0.016 C 
ENDROOT
BRANCH   1  20
ATOM     19  C   LIG A   1      -7.736   0.367 123.809  0.00  0.00    +0.009 C 
ATOM     20  C   LIG A   1      -7.068  -0.996 123.936  0.00  0.00    +0.032 C 
ENDBRANCH   1  20
BRANCH  14  21
ATOM     21  O   LIG A   1      -5.669  -1.568 132.164  0.00  0.00    -0.391 OA
ATOM     22  H   LIG A   1      -5.320  -1.711 133.058  0.00  0.00    +0.210 HD
ENDBRANCH  14  21
TORSDOF 2
ENDMDL
MODEL 4
REMARK VINA RESULT:      -7.0      4.205      6.582
REMARK  Name = NuBBE_2496
REMARK  7 active torsions:
REMARK  status: ('A' for Active; 'I' for Inactive)
REMARK    1  A    between atoms: C_1  and  C_2
REMARK    2  A    between atoms: C_2  and  C_3
REMARK    3  A    between atoms: C_4  and  C_5
REMARK    4  A    between atoms: C_14  and  C_15
REMARK    5  A    between atoms: C_14  and  C_16
REMARK    6  A    between atoms: C_17  and  O_19
REMARK    7  A    between atoms: C_22  and  C_23
REMARK                            x       y       z     vdW  Elec       q    Type
REMARK                         _______ _______ _______ _____ _____    ______ ____
ROOT
ATOM      1  C   LIG A   1      -7.139  -1.756 127.457  0.00  0.00    -0.041 A 
ATOM      2  C   LIG A   1      -8.246  -2.628 127.342  0.00  0.00    -0.047 A 
ATOM      3  C   LIG A   1      -8.512  -3.738 128.326  0.00  0.00    +0.044 C 
ATOM      4  C   LIG A   1      -9.142  -2.461 126.283  0.00  0.00    +0.004 A 
ATOM      5  C   LIG A   1      -8.942  -1.469 125.326  0.00  0.00    +0.005 A 
ATOM      6  C   LIG A   1      -7.852  -0.588 125.392  0.00  0.00    -0.038 A 
ATOM      7  C   LIG A   1      -6.947  -0.737 126.475  0.00  0.00    -0.040 A 
ATOM      8  C   LIG A   1      -5.757   0.190 126.519  0.00  0.00    +0.036 C 
ATOM      9  C   LIG A   1      -6.204   1.589 126.139  0.00  0.00    +0.009 C 
ATOM     10  C   LIG A   1      -6.652   1.652 124.667  0.00  0.00    +0.008 C 
ATOM     11  C   LIG A   1      -7.158   3.097 124.278  0.00  0.00    -0.005 C 
ATOM     12  C   LIG A   1      -5.967   4.094 124.319  0.00  0.00    +0.014 C 
ATOM     13  C   LIG A   1      -8.216   3.656 125.260  0.00  0.00    +0.014 C 
ATOM     14  C   LIG A   1      -7.738   3.100 122.842  0.00  0.00    +0.121 C 
ATOM     15  C   LIG A   1      -8.789   2.030 122.568  0.00  0.00    +0.033 C 
ATOM     16  C   LIG A   1      -8.916   0.941 123.629  0.00  0.00    +0.014 C 
ATOM     17  C   LIG A   1      -7.587   0.434 124.249  0.00  0.00    -0.003 C 
ATOM     18  C   LIG A   1      -6.851  -0.399 123.156  0.00  0.00    +0.016 C 
ENDROOT
BRANCH   1  20
ATOM     19  C   LIG A   1      -4.919  -2.721 128.185  0.00  0.00    +0.009 C 
ATOM     20  C   LIG A   1      -6.158  -1.941 128.604  0.00  0.00    +0.032 C 
ENDBRANCH   1  20
BRANCH  14  21
ATOM     21  O   LIG A   1      -6.704   2.978 121.858  0.00  0.00    -0.391 OA
ATOM     22  H   LIG A   1      -6.812   2.135 121.391  0.00  0.00    +0.210 HD
ENDBRANCH  14  21
TORSDOF 2
ENDMDL
MODEL 5
REMARK VINA RESULT:      -6.8      4.384      5.853
REMARK  Name = NuBBE_2496
REMARK  7 active torsions:
REMARK  status: ('A' for Active; 'I' for Inactive)
REMARK    1  A    between atoms: C_1  and  C_2
REMARK    2  A    between atoms: C_2  and  C_3
REMARK    3  A    between atoms: C_4  and  C_5
REMARK    4  A    between atoms: C_14  and  C_15
REMARK    5  A    between atoms: C_14  and  C_16
REMARK    6  A    between atoms: C_17  and  O_19
REMARK    7  A    between atoms: C_22  and  C_23
REMARK                            x       y       z     vdW  Elec       q    Type
REMARK                         _______ _______ _______ _____ _____    ______ ____
ROOT
ATOM      1  C   LIG A   1      -6.685  -2.094 124.998  0.00  0.00    -0.041 A 
ATOM      2  C   LIG A   1      -7.988  -2.568 124.720  0.00  0.00    -0.047 A 
ATOM      3  C   LIG A   1      -8.326  -4.036 124.675  0.00  0.00    +0.044 C 
ATOM      4  C   LIG A   1      -9.014  -1.651 124.482  0.00  0.00    +0.004 A 
ATOM      5  C   LIG A   1      -8.765  -0.281 124.486  0.00  0.00    +0.005 A 
ATOM      6  C   LIG A   1      -7.486   0.236 124.746  0.00  0.00    -0.038 A 
ATOM      7  C   LIG A   1      -6.441  -0.687 125.006  0.00  0.00    -0.040 A 
ATOM      8  C   LIG A   1      -5.062  -0.126 125.248  0.00  0.00    +0.036 C 
ATOM      9  C   LIG A   1      -5.174   1.105 126.128  0.00  0.00    +0.009 C 
ATOM     10  C   LIG A   1      -5.903   2.249 125.398  0.00  0.00    +0.008 C 
ATOM     11  C   LIG A   1      -6.060   3.519 126.324  0.00  0.00    -0.005 C 
ATOM     12  C   LIG A   1      -4.660   4.130 126.612  0.00  0.00    +0.014 C 
ATOM     13  C   LIG A   1      -6.674   3.191 127.707  0.00  0.00    +0.014 C 
ATOM     14  C   LIG A   1      -6.921   4.599 125.622  0.00  0.00    +0.121 C 
ATOM     15  C   LIG A   1      -8.262   4.108 125.087  0.00  0.00    +0.033 C 
ATOM     16  C   LIG A   1      -8.447   2.594 125.057  0.00  0.00    +0.014 C 
ATOM     17  C   LIG A   1      -7.209   1.763 124.629  0.00  0.00    -0.003 C 
ATOM     18  C   LIG A   1      -6.996   1.997 123.102  0.00  0.00    +0.016 C 
ENDROOT
BRANCH   1  20
ATOM     19  C   LIG A   1      -4.886  -3.533 123.959  0.00  0.00    +0.009 C 
ATOM     20  C   LIG A   1      -5.565  -3.091 125.248  0.00  0.00    +0.032 C 
ENDBRANCH   1  20
BRANCH  14  21
ATOM     21  O   LIG A   1      -6.208   5.221 124.548  0.00  0.00    -0.391 OA
ATOM     22  H   LIG A   1      -6.068   4.569 123.843  0.00  0.00    +0.210 HD
ENDBRANCH  14  21
TORSDOF 2
ENDMDL
MODEL 6
REMARK VINA RESULT:      -6.7      1.476      3.128
REMARK  Name = NuBBE_2496
REMARK  7 active torsions:
REMARK  status: ('A' for Active; 'I' for Inactive)
REMARK    1  A    between atoms: C_1  and  C_2
REMARK    2  A    between atoms: C_2  and  C_3
REMARK    3  A    between atoms: C_4  and  C_5
REMARK    4  A    between atoms: C_14  and  C_15
REMARK    5  A    between atoms: C_14  and  C_16
REMARK    6  A    between atoms: C_17  and  O_19
REMARK    7  A    between atoms: C_22  and  C_23
REMARK                            x       y       z     vdW  Elec       q    Type
REMARK                         _______ _______ _______ _____ _____    ______ ____
ROOT
ATOM      1  C   LIG A   1      -7.773  -1.803 125.893  0.00  0.00    -0.041 A 
ATOM      2  C   LIG A   1      -7.026  -0.894 125.108  0.00  0.00    -0.047 A 
ATOM      3  C   LIG A   1      -7.432  -0.502 123.711  0.00  0.00    +0.044 C 
ATOM      4  C   LIG A   1      -5.868  -0.323 125.639  0.00  0.00    +0.004 A 
ATOM      5  C   LIG A   1      -5.424  -0.659 126.916  0.00  0.00    +0.005 A 
ATOM      6  C   LIG A   1      -6.126  -1.565 127.727  0.00  0.00    -0.038 A 
ATOM      7  C   LIG A   1      -7.314  -2.136 127.204  0.00  0.00    -0.040 A 
ATOM      8  C   LIG A   1      -8.043  -3.136 128.066  0.00  0.00    +0.036 C 
ATOM      9  C   LIG A   1      -8.050  -2.642 129.501  0.00  0.00    +0.009 C 
ATOM     10  C   LIG A   1      -6.629  -2.627 130.094  0.00  0.00    +0.008 C 
ATOM     11  C   LIG A   1      -6.625  -2.074 131.573  0.00  0.00    -0.005 C 
ATOM     12  C   LIG A   1      -7.376  -3.067 132.503  0.00  0.00    +0.014 C 
ATOM     13  C   LIG A   1      -7.359  -0.718 131.717  0.00  0.00    +0.014 C 
ATOM     14  C   LIG A   1      -5.173  -1.931 132.095  0.00  0.00    +0.121 C 
ATOM     15  C   LIG A   1      -4.235  -1.145 131.185  0.00  0.00    +0.033 C 
ATOM     16  C   LIG A   1      -4.760  -0.861 129.781  0.00  0.00    +0.014 C 
ATOM     17  C   LIG A   1      -5.547  -2.012 129.101  0.00  0.00    -0.003 C 
ATOM     18  C   LIG A   1      -4.521  -3.128 128.738  0.00  0.00    +0.016 C 
ENDROOT
BRANCH   1  20
ATOM     19  C   LIG A   1      -8.726  -3.676 124.489  0.00  0.00    +0.009 C 
ATOM     20  C   LIG A   1      -9.030  -2.432 125.314  0.00  0.00    +0.032 C 
ENDBRANCH   1  20
BRANCH  14  21
ATOM     21  O   LIG A   1      -4.582  -3.208 132.357  0.00  0.00    -0.391 OA
ATOM     22  H   LIG A   1      -4.725  -3.785 131.590  0.00  0.00    +0.210 HD
ENDBRANCH  14  21
TORSDOF 2
ENDMDL
MODEL 7
REMARK VINA RESULT:      -6.7      3.388      5.039
REMARK  Name = NuBBE_2496
REMARK  7 active torsions:
REMARK  status: ('A' for Active; 'I' for Inactive)
REMARK    1  A    between atoms: C_1  and  C_2
REMARK    2  A    between atoms: C_2  and  C_3
REMARK    3  A    between atoms: C_4  and  C_5
REMARK    4  A    between atoms: C_14  and  C_15
REMARK    5  A    between atoms: C_14  and  C_16
REMARK    6  A    between atoms: C_17  and  O_19
REMARK    7  A    between atoms: C_22  and  C_23
REMARK                            x       y       z     vdW  Elec       q    Type
REMARK                         _______ _______ _______ _____ _____    ______ ____
ROOT
ATOM      1  C   LIG A   1      -8.539  -2.245 126.749  0.00  0.00    -0.041 A 
ATOM      2  C   LIG A   1      -8.472  -2.983 127.954  0.00  0.00    -0.047 A 
ATOM      3  C   LIG A   1      -8.905  -4.423 128.051  0.00  0.00    +0.044 C 
ATOM      4  C   LIG A   1      -7.980  -2.367 129.107  0.00  0.00    +0.004 A 
ATOM      5  C   LIG A   1      -7.584  -1.032 129.093  0.00  0.00    +0.005 A 
ATOM      6  C   LIG A   1      -7.643  -0.257 127.923  0.00  0.00    -0.038 A 
ATOM      7  C   LIG A   1      -8.124  -0.879 126.742  0.00  0.00    -0.040 A 
ATOM      8  C   LIG A   1      -8.219  -0.030 125.499  0.00  0.00    +0.036 C 
ATOM      9  C   LIG A   1      -6.985   0.848 125.402  0.00  0.00    +0.009 C 
ATOM     10  C   LIG A   1      -6.947   1.885 126.540  0.00  0.00    +0.008 C 
ATOM     11  C   LIG A   1      -5.643   2.774 126.469  0.00  0.00    -0.005 C 
ATOM     12  C   LIG A   1      -5.689   3.662 125.194  0.00  0.00    +0.014 C 
ATOM     13  C   LIG A   1      -4.343   1.940 126.360  0.00  0.00    +0.014 C 
ATOM     14  C   LIG A   1      -5.554   3.706 127.702  0.00  0.00    +0.121 C 
ATOM     15  C   LIG A   1      -5.700   3.009 129.050  0.00  0.00    +0.033 C 
ATOM     16  C   LIG A   1      -6.193   1.566 128.998  0.00  0.00    +0.014 C 
ATOM     17  C   LIG A   1      -7.306   1.262 127.961  0.00  0.00    -0.003 C 
ATOM     18  C   LIG A   1      -8.617   1.931 128.474  0.00  0.00    +0.016 C 
ENDROOT
BRANCH   1  20
ATOM     19  C   LIG A   1      -7.988  -3.590 124.682  0.00  0.00    +0.009 C 
ATOM     20  C   LIG A   1      -9.082  -2.911 125.495  0.00  0.00    +0.032 C 
ENDBRANCH   1  20
BRANCH  14  21
ATOM     21  O   LIG A   1      -6.520   4.761 127.633  0.00  0.00    -0.391 OA
ATOM     22  H   LIG A   1      -7.405   4.386 127.767  0.00  0.00    +0.210 HD
ENDBRANCH  14  21
TORSDOF 2
ENDMDL
MODEL 8
REMARK VINA RESULT:      -6.7      4.036      6.676
REMARK  Name = NuBBE_2496
REMARK  7 active torsions:
REMARK  status: ('A' for Active; 'I' for Inactive)
REMARK    1  A    between atoms: C_1  and  C_2
REMARK    2  A    between atoms: C_2  and  C_3
REMARK    3  A    between atoms: C_4  and  C_5
REMARK    4  A    between atoms: C_14  and  C_15
REMARK    5  A    between atoms: C_14  and  C_16
REMARK    6  A    between atoms: C_17  and  O_19
REMARK    7  A    between atoms: C_22  and  C_23
REMARK                            x       y       z     vdW  Elec       q    Type
REMARK                         _______ _______ _______ _____ _____    ______ ____
ROOT
ATOM      1  C   LIG A   1      -6.473   2.672 126.781  0.00  0.00    -0.041 A 
ATOM      2  C   LIG A   1      -5.902   3.540 125.821  0.00  0.00    -0.047 A 
ATOM      3  C   LIG A   1      -5.190   4.813 126.198  0.00  0.00    +0.044 C 
ATOM      4  C   LIG A   1      -5.986   3.212 124.466  0.00  0.00    +0.004 A 
ATOM      5  C   LIG A   1      -6.651   2.062 124.047  0.00  0.00    +0.005 A 
ATOM      6  C   LIG A   1      -7.243   1.177 124.962  0.00  0.00    -0.038 A 
ATOM      7  C   LIG A   1      -7.145   1.491 126.342  0.00  0.00    -0.040 A 
ATOM      8  C   LIG A   1      -7.816   0.555 127.317  0.00  0.00    +0.036 C 
ATOM      9  C   LIG A   1      -7.564  -0.877 126.883  0.00  0.00    +0.009 C 
ATOM     10  C   LIG A   1      -8.267  -1.187 125.548  0.00  0.00    +0.008 C 
ATOM     11  C   LIG A   1      -7.974  -2.664 125.070  0.00  0.00    -0.005 C 
ATOM     12  C   LIG A   1      -8.638  -3.670 126.052  0.00  0.00    +0.014 C 
ATOM     13  C   LIG A   1      -6.465  -3.012 125.059  0.00  0.00    +0.014 C 
ATOM     14  C   LIG A   1      -8.568  -2.906 123.660  0.00  0.00    +0.121 C 
ATOM     15  C   LIG A   1      -8.175  -1.873 122.609  0.00  0.00    +0.033 C 
ATOM     16  C   LIG A   1      -7.503  -0.611 123.142  0.00  0.00    +0.014 C 
ATOM     17  C   LIG A   1      -8.078  -0.038 124.464  0.00  0.00    -0.003 C 
ATOM     18  C   LIG A   1      -9.477   0.568 124.140  0.00  0.00    +0.016 C 
ENDROOT
BRANCH   1  20
ATOM     19  C   LIG A   1      -5.164   2.426 128.929  0.00  0.00    +0.009 C 
ATOM     20  C   LIG A   1      -6.389   3.031 128.256  0.00  0.00    +0.032 C 
ENDBRANCH   1  20
BRANCH  14  21
ATOM     21  O   LIG A   1      -9.997  -2.988 123.700  0.00  0.00    -0.391 OA
ATOM     22  H   LIG A   1     -10.329  -2.371 124.371  0.00  0.00    +0.210 HD
ENDBRANCH  14  21
TORSDOF 2
ENDMDL
MODEL 9
REMARK VINA RESULT:      -6.6      6.768      9.008
REMARK  Name = NuBBE_2496
REMARK  7 active torsions:
REMARK  status: ('A' for Active; 'I' for Inactive)
REMARK    1  A    between atoms: C_1  and  C_2
REMARK    2  A    between atoms: C_2  and  C_3
REMARK    3  A    between atoms: C_4  and  C_5
REMARK    4  A    between atoms: C_14  and  C_15
REMARK    5  A    between atoms: C_14  and  C_16
REMARK    6  A    between atoms: C_17  and  O_19
REMARK    7  A    between atoms: C_22  and  C_23
REMARK                            x       y       z     vdW  Elec       q    Type
REMARK                         _______ _______ _______ _____ _____    ______ ____
ROOT
ATOM      1  C   LIG A   1      -3.848   5.021 129.388  0.00  0.00    -0.041 A 
ATOM      2  C   LIG A   1      -3.476   6.380 129.276  0.00  0.00    -0.047 A 
ATOM      3  C   LIG A   1      -2.290   6.834 128.466  0.00  0.00    +0.044 C 
ATOM      4  C   LIG A   1      -4.235   7.354 129.931  0.00  0.00    +0.004 A 
ATOM      5  C   LIG A   1      -5.331   7.000 130.715  0.00  0.00    +0.005 A 
ATOM      6  C   LIG A   1      -5.730   5.663 130.865  0.00  0.00    -0.038 A 
ATOM      7  C   LIG A   1      -4.978   4.669 130.188  0.00  0.00    -0.040 A 
ATOM      8  C   LIG A   1      -5.391   3.231 130.383  0.00  0.00    +0.036 C 
ATOM      9  C   LIG A   1      -6.905   3.141 130.346  0.00  0.00    +0.009 C 
ATOM     10  C   LIG A   1      -7.537   3.861 131.552  0.00  0.00    +0.008 C 
ATOM     11  C   LIG A   1      -9.115   3.807 131.496  0.00  0.00    -0.005 C 
ATOM     12  C   LIG A   1      -9.592   2.339 131.682  0.00  0.00    +0.014 C 
ATOM     13  C   LIG A   1      -9.692   4.272 130.136  0.00  0.00    +0.014 C 
ATOM     14  C   LIG A   1      -9.728   4.659 132.634  0.00  0.00    +0.121 C 
ATOM     15  C   LIG A   1      -9.206   6.089 132.722  0.00  0.00    +0.033 C 
ATOM     16  C   LIG A   1      -7.968   6.394 131.883  0.00  0.00    +0.014 C 
ATOM     17  C   LIG A   1      -6.884   5.285 131.837  0.00  0.00    -0.003 C 
ATOM     18  C   LIG A   1      -6.203   5.241 133.239  0.00  0.00    +0.016 C 
ENDROOT
BRANCH   1  20
ATOM     19  C   LIG A   1      -3.521   3.677 127.273  0.00  0.00    +0.009 C 
ATOM     20  C   LIG A   1      -3.019   3.959 128.683  0.00  0.00    +0.032 C 
ENDBRANCH   1  20
BRANCH  14  21
ATOM     21  O   LIG A   1      -9.551   4.035 133.911  0.00  0.00    -0.391 OA
ATOM     22  H   LIG A   1      -9.436   3.080 133.782  0.00  0.00    +0.210 HD
ENDBRANCH  14  21
TORSDOF 2
ENDMDL
