MODEL 1
REMARK VINA RESULT:      -7.8      0.000      0.000
REMARK  Name = NuBBE_1990
REMARK  11 active torsions:
REMARK  status: ('A' for Active; 'I' for Inactive)
REMARK    1  A    between atoms: C_1  and  C_2
REMARK    2  A    between atoms: C_11  and  C_12
REMARK    3  A    between atoms: C_17  and  O_21
REMARK    4  A    between atoms: C_24  and  C_26
REMARK    5  A    between atoms: C_26  and  C_28
REMARK    6  A    between atoms: C_26  and  C_35
REMARK    7  A    between atoms: C_28  and  C_29
REMARK    8  A    between atoms: C_29  and  C_30
REMARK    9  A    between atoms: C_30  and  C_32
REMARK   10  A    between atoms: C_32  and  C_33
REMARK   11  A    between atoms: C_32  and  C_34
REMARK                            x       y       z     vdW  Elec       q    Type
REMARK                         _______ _______ _______ _____ _____    ______ ____
ROOT
ATOM      1  C   LIG A   1      -8.016   0.772 128.656  0.00  0.00    +0.012 C 
ATOM      2  C   LIG A   1      -7.249   0.400 127.348  0.00  0.00    -0.026 C 
ATOM      3  C   LIG A   1      -7.635  -0.976 126.758  0.00  0.00    -0.001 C 
ATOM      4  C   LIG A   1      -7.195  -2.221 127.539  0.00  0.00    +0.000 C 
ATOM      5  C   LIG A   1      -5.676  -2.160 127.882  0.00  0.00    +0.003 C 
ATOM      6  C   LIG A   1      -4.994  -0.849 127.392  0.00  0.00    +0.005 C 
ATOM      7  C   LIG A   1      -5.758   0.429 127.745  0.00  0.00    +0.007 C 
ATOM      8  C   LIG A   1      -5.212  -2.695 129.300  0.00  0.00    -0.008 C 
ATOM      9  C   LIG A   1      -3.892  -3.482 129.040  0.00  0.00    +0.016 C 
ATOM     10  C   LIG A   1      -6.248  -3.600 129.966  0.00  0.00    -0.065 C 
ATOM     11  C   LIG A   1      -7.543  -3.601 129.639  0.00  0.00    -0.027 C 
ATOM     12  C   LIG A   1      -8.147  -2.672 128.641  0.00  0.00    +0.031 C 
ATOM     13  C   LIG A   1      -5.806  -4.278 131.243  0.00  0.00    +0.062 C 
ATOM     14  C   LIG A   1      -5.464  -3.197 132.278  0.00  0.00    +0.119 C 
ATOM     15  C   LIG A   1      -4.516  -2.121 131.730  0.00  0.00    +0.032 C 
ATOM     16  C   LIG A   1      -4.935  -1.583 130.348  0.00  0.00    +0.013 C 
ATOM     17  C   LIG A   1      -9.103  -0.817 126.398  0.00  0.00    +0.004 C 
ATOM     18  C   LIG A   1      -9.182   0.623 125.868  0.00  0.00    +0.004 C 
ATOM     19  C   LIG A   1      -7.824   1.344 126.212  0.00  0.00    -0.002 C 
ENDROOT
BRANCH  14  20
ATOM     20  O   LIG A   1      -4.883  -3.793 133.437  0.00  0.00    -0.392 OA
ATOM     21  H   LIG A   1      -4.143  -3.229 133.723  0.00  0.00    +0.210 HD
ENDBRANCH  14  20
BRANCH  19  22
ATOM     22  C   LIG A   1      -7.035   1.608 124.878  0.00  0.00    -0.010 C 
ATOM     23  C   LIG A   1      -6.869   3.081 124.496  0.00  0.00    +0.008 C 
BRANCH  22  24
ATOM     24  C   LIG A   1      -7.635   0.823 123.655  0.00  0.00    +0.008 C 
BRANCH  24  25
ATOM     25  C   LIG A   1      -6.813  -0.363 123.119  0.00  0.00    +0.030 C 
BRANCH  25  26
ATOM     26  C   LIG A   1      -7.613  -1.665 123.114  0.00  0.00    -0.074 C 
ATOM     27  C   LIG A   1      -8.922  -1.654 122.798  0.00  0.00    +0.008 C 
BRANCH  26  28
ATOM     28  C   LIG A   1      -6.871  -2.936 123.528  0.00  0.00    +0.008 C 
ATOM     29  C   LIG A   1      -5.525  -2.576 124.167  0.00  0.00    +0.012 C 
ATOM     30  C   LIG A   1      -7.653  -3.857 124.479  0.00  0.00    +0.012 C 
ENDBRANCH  26  28
ENDBRANCH  25  26
ENDBRANCH  24  25
ENDBRANCH  22  24
ENDBRANCH  19  22
TORSDOF 6
ENDMDL
MODEL 2
REMARK VINA RESULT:      -7.3      2.988      6.153
REMARK  Name = NuBBE_1990
REMARK  11 active torsions:
REMARK  status: ('A' for Active; 'I' for Inactive)
REMARK    1  A    between atoms: C_1  and  C_2
REMARK    2  A    between atoms: C_11  and  C_12
REMARK    3  A    between atoms: C_17  and  O_21
REMARK    4  A    between atoms: C_24  and  C_26
REMARK    5  A    between atoms: C_26  and  C_28
REMARK    6  A    between atoms: C_26  and  C_35
REMARK    7  A    between atoms: C_28  and  C_29
REMARK    8  A    between atoms: C_29  and  C_30
REMARK    9  A    between atoms: C_30  and  C_32
REMARK   10  A    between atoms: C_32  and  C_33
REMARK   11  A    between atoms: C_32  and  C_34
REMARK                            x       y       z     vdW  Elec       q    Type
REMARK                         _______ _______ _______ _____ _____    ______ ____
ROOT
ATOM      1  C   LIG A   1      -7.605   0.334 128.922  0.00  0.00    +0.012 C 
ATOM      2  C   LIG A   1      -7.831  -0.722 127.795  0.00  0.00    -0.026 C 
ATOM      3  C   LIG A   1      -6.543  -1.131 127.043  0.00  0.00    -0.001 C 
ATOM      4  C   LIG A   1      -5.905  -0.080 126.126  0.00  0.00    +0.000 C 
ATOM      5  C   LIG A   1      -6.958   0.528 125.151  0.00  0.00    +0.003 C 
ATOM      6  C   LIG A   1      -8.390  -0.041 125.372  0.00  0.00    +0.005 C 
ATOM      7  C   LIG A   1      -8.843  -0.062 126.834  0.00  0.00    +0.007 C 
ATOM      8  C   LIG A   1      -6.870   2.078 124.834  0.00  0.00    -0.008 C 
ATOM      9  C   LIG A   1      -7.154   2.210 123.307  0.00  0.00    +0.016 C 
ATOM     10  C   LIG A   1      -5.508   2.682 125.175  0.00  0.00    -0.065 C 
ATOM     11  C   LIG A   1      -4.648   2.122 126.030  0.00  0.00    -0.027 C 
ATOM     12  C   LIG A   1      -4.940   0.884 126.808  0.00  0.00    +0.031 C 
ATOM     13  C   LIG A   1      -5.297   4.116 124.745  0.00  0.00    +0.062 C 
ATOM     14  C   LIG A   1      -6.336   4.997 125.452  0.00  0.00    +0.119 C 
ATOM     15  C   LIG A   1      -7.768   4.461 125.315  0.00  0.00    +0.032 C 
ATOM     16  C   LIG A   1      -7.890   2.954 125.612  0.00  0.00    +0.013 C 
ATOM     17  C   LIG A   1      -5.688  -1.783 128.117  0.00  0.00    +0.004 C 
ATOM     18  C   LIG A   1      -6.713  -2.556 128.962  0.00  0.00    +0.004 C 
ATOM     19  C   LIG A   1      -8.154  -2.091 128.526  0.00  0.00    -0.002 C 
ENDROOT
BRANCH  14  20
ATOM     20  O   LIG A   1      -6.279   6.328 124.945  0.00  0.00    -0.392 OA
ATOM     21  H   LIG A   1      -5.935   6.902 125.651  0.00  0.00    +0.210 HD
ENDBRANCH  14  20
BRANCH  19  22
ATOM     22  C   LIG A   1      -8.870  -3.278 127.785  0.00  0.00    -0.010 C 
ATOM     23  C   LIG A   1      -8.242  -4.657 127.997  0.00  0.00    +0.008 C 
BRANCH  22  24
ATOM     24  C   LIG A   1      -9.033  -3.017 126.243  0.00  0.00    +0.008 C 
BRANCH  24  25
ATOM     25  C   LIG A   1      -8.174  -3.876 125.298  0.00  0.00    +0.030 C 
BRANCH  25  26
ATOM     26  C   LIG A   1      -7.832  -3.142 124.002  0.00  0.00    -0.074 C 
ATOM     27  C   LIG A   1      -8.786  -2.913 123.081  0.00  0.00    +0.008 C 
BRANCH  26  28
ATOM     28  C   LIG A   1      -6.371  -2.740 123.799  0.00  0.00    +0.008 C 
ATOM     29  C   LIG A   1      -5.459  -3.960 123.976  0.00  0.00    +0.012 C 
ATOM     30  C   LIG A   1      -6.068  -2.072 122.448  0.00  0.00    +0.012 C 
ENDBRANCH  26  28
ENDBRANCH  25  26
ENDBRANCH  24  25
ENDBRANCH  22  24
ENDBRANCH  19  22
TORSDOF 6
ENDMDL
MODEL 3
REMARK VINA RESULT:      -7.3      7.660      9.629
REMARK  Name = NuBBE_1990
REMARK  11 active torsions:
REMARK  status: ('A' for Active; 'I' for Inactive)
REMARK    1  A    between atoms: C_1  and  C_2
REMARK    2  A    between atoms: C_11  and  C_12
REMARK    3  A    between atoms: C_17  and  O_21
REMARK    4  A    between atoms: C_24  and  C_26
REMARK    5  A    between atoms: C_26  and  C_28
REMARK    6  A    between atoms: C_26  and  C_35
REMARK    7  A    between atoms: C_28  and  C_29
REMARK    8  A    between atoms: C_29  and  C_30
REMARK    9  A    between atoms: C_30  and  C_32
REMARK   10  A    between atoms: C_32  and  C_33
REMARK   11  A    between atoms: C_32  and  C_34
REMARK                            x       y       z     vdW  Elec       q    Type
REMARK                         _______ _______ _______ _____ _____    ______ ____
ROOT
ATOM      1  C   LIG A   1      -6.915   5.643 134.282  0.00  0.00    +0.012 C 
ATOM      2  C   LIG A   1      -7.406   5.281 132.845  0.00  0.00    -0.026 C 
ATOM      3  C   LIG A   1      -6.923   3.902 132.339  0.00  0.00    -0.001 C 
ATOM      4  C   LIG A   1      -5.430   3.759 132.019  0.00  0.00    +0.000 C 
ATOM      5  C   LIG A   1      -4.944   4.905 131.082  0.00  0.00    +0.003 C 
ATOM      6  C   LIG A   1      -6.067   5.926 130.738  0.00  0.00    +0.005 C 
ATOM      7  C   LIG A   1      -6.866   6.416 131.948  0.00  0.00    +0.007 C 
ATOM      8  C   LIG A   1      -3.505   5.518 131.341  0.00  0.00    -0.008 C 
ATOM      9  C   LIG A   1      -2.878   5.727 129.929  0.00  0.00    +0.016 C 
ATOM     10  C   LIG A   1      -2.613   4.611 132.189  0.00  0.00    -0.065 C 
ATOM     11  C   LIG A   1      -3.087   3.650 132.986  0.00  0.00    -0.027 C 
ATOM     12  C   LIG A   1      -4.539   3.392 133.202  0.00  0.00    +0.031 C 
ATOM     13  C   LIG A   1      -1.175   5.054 132.337  0.00  0.00    +0.062 C 
ATOM     14  C   LIG A   1      -1.154   6.427 133.023  0.00  0.00    +0.119 C 
ATOM     15  C   LIG A   1      -2.102   7.440 132.366  0.00  0.00    +0.032 C 
ATOM     16  C   LIG A   1      -3.509   6.875 132.094  0.00  0.00    +0.013 C 
ATOM     17  C   LIG A   1      -7.565   2.918 133.303  0.00  0.00    +0.004 C 
ATOM     18  C   LIG A   1      -8.952   3.527 133.557  0.00  0.00    +0.004 C 
ATOM     19  C   LIG A   1      -8.959   4.988 132.966  0.00  0.00    -0.002 C 
ENDROOT
BRANCH  14  20
ATOM     20  O   LIG A   1       0.171   6.954 133.028  0.00  0.00    -0.392 OA
ATOM     21  H   LIG A   1       0.376   7.239 133.935  0.00  0.00    +0.210 HD
ENDBRANCH  14  20
BRANCH  19  22
ATOM     22  C   LIG A   1      -9.909   5.027 131.714  0.00  0.00    -0.010 C 
ATOM     23  C   LIG A   1      -9.352   4.371 130.448  0.00  0.00    +0.008 C 
BRANCH  22  24
ATOM     24  C   LIG A   1     -10.396   6.481 131.370  0.00  0.00    +0.008 C 
BRANCH  24  25
ATOM     25  C   LIG A   1      -9.790   7.139 130.117  0.00  0.00    +0.030 C 
BRANCH  25  26
ATOM     26  C   LIG A   1     -10.858   7.764 129.220  0.00  0.00    -0.074 C 
ATOM     27  C   LIG A   1     -10.506   8.384 128.078  0.00  0.00    +0.008 C 
BRANCH  26  28
ATOM     28  C   LIG A   1     -12.305   7.688 129.710  0.00  0.00    +0.008 C 
ATOM     29  C   LIG A   1     -12.871   9.101 129.901  0.00  0.00    +0.012 C 
ATOM     30  C   LIG A   1     -13.250   6.882 128.805  0.00  0.00    +0.012 C 
ENDBRANCH  26  28
ENDBRANCH  25  26
ENDBRANCH  24  25
ENDBRANCH  22  24
ENDBRANCH  19  22
TORSDOF 6
ENDMDL
MODEL 4
REMARK VINA RESULT:      -7.3      3.111      7.519
REMARK  Name = NuBBE_1990
REMARK  11 active torsions:
REMARK  status: ('A' for Active; 'I' for Inactive)
REMARK    1  A    between atoms: C_1  and  C_2
REMARK    2  A    between atoms: C_11  and  C_12
REMARK    3  A    between atoms: C_17  and  O_21
REMARK    4  A    between atoms: C_24  and  C_26
REMARK    5  A    between atoms: C_26  and  C_28
REMARK    6  A    between atoms: C_26  and  C_35
REMARK    7  A    between atoms: C_28  and  C_29
REMARK    8  A    between atoms: C_29  and  C_30
REMARK    9  A    between atoms: C_30  and  C_32
REMARK   10  A    between atoms: C_32  and  C_33
REMARK   11  A    between atoms: C_32  and  C_34
REMARK                            x       y       z     vdW  Elec       q    Type
REMARK                         _______ _______ _______ _____ _____    ______ ____
ROOT
ATOM      1  C   LIG A   1      -6.471  -1.580 125.304  0.00  0.00    +0.012 C 
ATOM      2  C   LIG A   1      -7.330  -1.090 126.513  0.00  0.00    -0.026 C 
ATOM      3  C   LIG A   1      -8.833  -0.922 126.194  0.00  0.00    -0.001 C 
ATOM      4  C   LIG A   1      -9.225   0.234 125.265  0.00  0.00    +0.000 C 
ATOM      5  C   LIG A   1      -8.596   1.577 125.743  0.00  0.00    +0.003 C 
ATOM      6  C   LIG A   1      -7.700   1.413 127.005  0.00  0.00    +0.005 C 
ATOM      7  C   LIG A   1      -6.699   0.258 126.922  0.00  0.00    +0.007 C 
ATOM      8  C   LIG A   1      -8.062   2.582 124.639  0.00  0.00    -0.008 C 
ATOM      9  C   LIG A   1      -8.490   4.001 125.123  0.00  0.00    +0.016 C 
ATOM     10  C   LIG A   1      -8.632   2.301 123.249  0.00  0.00    -0.065 C 
ATOM     11  C   LIG A   1      -9.150   1.123 122.890  0.00  0.00    -0.027 C 
ATOM     12  C   LIG A   1      -9.169  -0.078 123.774  0.00  0.00    +0.031 C 
ATOM     13  C   LIG A   1      -8.297   3.319 122.182  0.00  0.00    +0.062 C 
ATOM     14  C   LIG A   1      -6.772   3.365 122.011  0.00  0.00    +0.119 C 
ATOM     15  C   LIG A   1      -6.024   3.521 123.342  0.00  0.00    +0.032 C 
ATOM     16  C   LIG A   1      -6.523   2.562 124.441  0.00  0.00    +0.013 C 
ATOM     17  C   LIG A   1      -9.291  -2.329 125.849  0.00  0.00    +0.004 C 
ATOM     18  C   LIG A   1      -8.509  -3.207 126.838  0.00  0.00    +0.004 C 
ATOM     19  C   LIG A   1      -7.410  -2.309 127.524  0.00  0.00    -0.002 C 
ENDROOT
BRANCH  14  20
ATOM     20  O   LIG A   1      -6.408   4.431 121.136  0.00  0.00    -0.392 OA
ATOM     21  H   LIG A   1      -5.439   4.510 121.150  0.00  0.00    +0.210 HD
ENDBRANCH  14  20
BRANCH  19  22
ATOM     22  C   LIG A   1      -7.788  -2.107 129.036  0.00  0.00    -0.010 C 
ATOM     23  C   LIG A   1      -7.053  -0.968 129.748  0.00  0.00    +0.008 C 
BRANCH  22  24
ATOM     24  C   LIG A   1      -7.636  -3.425 129.879  0.00  0.00    +0.008 C 
BRANCH  24  25
ATOM     25  C   LIG A   1      -6.636  -3.392 131.049  0.00  0.00    +0.030 C 
BRANCH  25  26
ATOM     26  C   LIG A   1      -5.410  -4.265 130.784  0.00  0.00    -0.074 C 
ATOM     27  C   LIG A   1      -5.490  -5.602 130.912  0.00  0.00    +0.008 C 
BRANCH  26  28
ATOM     28  C   LIG A   1      -4.111  -3.543 130.424  0.00  0.00    +0.008 C 
ATOM     29  C   LIG A   1      -4.070  -3.250 128.920  0.00  0.00    +0.012 C 
ATOM     30  C   LIG A   1      -3.861  -2.240 131.201  0.00  0.00    +0.012 C 
ENDBRANCH  26  28
ENDBRANCH  25  26
ENDBRANCH  24  25
ENDBRANCH  22  24
ENDBRANCH  19  22
TORSDOF 6
ENDMDL
MODEL 5
REMARK VINA RESULT:      -7.1      3.454      7.764
REMARK  Name = NuBBE_1990
REMARK  11 active torsions:
REMARK  status: ('A' for Active; 'I' for Inactive)
REMARK    1  A    between atoms: C_1  and  C_2
REMARK    2  A    between atoms: C_11  and  C_12
REMARK    3  A    between atoms: C_17  and  O_21
REMARK    4  A    between atoms: C_24  and  C_26
REMARK    5  A    between atoms: C_26  and  C_28
REMARK    6  A    between atoms: C_26  and  C_35
REMARK    7  A    between atoms: C_28  and  C_29
REMARK    8  A    between atoms: C_29  and  C_30
REMARK    9  A    between atoms: C_30  and  C_32
REMARK   10  A    between atoms: C_32  and  C_33
REMARK   11  A    between atoms: C_32  and  C_34
REMARK                            x       y       z     vdW  Elec       q    Type
REMARK                         _______ _______ _______ _____ _____    ______ ____
ROOT
ATOM      1  C   LIG A   1      -6.374  -1.729 124.042  0.00  0.00    +0.012 C 
ATOM      2  C   LIG A   1      -6.674  -1.200 125.480  0.00  0.00    -0.026 C 
ATOM      3  C   LIG A   1      -8.164  -0.875 125.737  0.00  0.00    -0.001 C 
ATOM      4  C   LIG A   1      -8.748   0.344 125.012  0.00  0.00    +0.000 C 
ATOM      5  C   LIG A   1      -7.853   1.603 125.219  0.00  0.00    +0.003 C 
ATOM      6  C   LIG A   1      -6.579   1.309 126.064  0.00  0.00    +0.005 C 
ATOM      7  C   LIG A   1      -5.802   0.066 125.624  0.00  0.00    +0.007 C 
ATOM      8  C   LIG A   1      -7.660   2.588 123.993  0.00  0.00    -0.008 C 
ATOM      9  C   LIG A   1      -7.732   4.024 124.594  0.00  0.00    +0.016 C 
ATOM     10  C   LIG A   1      -8.725   2.411 122.911  0.00  0.00    -0.065 C 
ATOM     11  C   LIG A   1      -9.457   1.302 122.772  0.00  0.00    -0.027 C 
ATOM     12  C   LIG A   1      -9.275   0.080 123.606  0.00  0.00    +0.031 C 
ATOM     13  C   LIG A   1      -8.702   3.428 121.792  0.00  0.00    +0.062 C 
ATOM     14  C   LIG A   1      -7.349   3.331 121.071  0.00  0.00    +0.119 C 
ATOM     15  C   LIG A   1      -6.154   3.368 122.033  0.00  0.00    +0.032 C 
ATOM     16  C   LIG A   1      -6.311   2.425 123.242  0.00  0.00    +0.013 C 
ATOM     17  C   LIG A   1      -8.858  -2.218 125.589  0.00  0.00    +0.004 C 
ATOM     18  C   LIG A   1      -7.864  -3.202 126.225  0.00  0.00    +0.004 C 
ATOM     19  C   LIG A   1      -6.504  -2.439 126.455  0.00  0.00    -0.002 C 
ENDROOT
BRANCH  14  20
ATOM     20  O   LIG A   1      -7.224   4.386 120.120  0.00  0.00    -0.392 OA
ATOM     21  H   LIG A   1      -6.760   5.124 120.552  0.00  0.00    +0.210 HD
ENDBRANCH  14  20
BRANCH  19  22
ATOM     22  C   LIG A   1      -6.278  -2.253 127.999  0.00  0.00    -0.010 C 
ATOM     23  C   LIG A   1      -4.843  -2.478 128.483  0.00  0.00    +0.008 C 
BRANCH  22  24
ATOM     24  C   LIG A   1      -7.257  -3.128 128.863  0.00  0.00    +0.008 C 
BRANCH  24  25
ATOM     25  C   LIG A   1      -8.299  -2.375 129.711  0.00  0.00    +0.030 C 
BRANCH  25  26
ATOM     26  C   LIG A   1      -7.654  -1.586 130.850  0.00  0.00    -0.074 C 
ATOM     27  C   LIG A   1      -6.943  -2.223 131.798  0.00  0.00    +0.008 C 
BRANCH  26  28
ATOM     28  C   LIG A   1      -7.900  -0.077 130.873  0.00  0.00    +0.008 C 
ATOM     29  C   LIG A   1      -8.022   0.460 129.441  0.00  0.00    +0.012 C 
ATOM     30  C   LIG A   1      -9.130   0.363 131.684  0.00  0.00    +0.012 C 
ENDBRANCH  26  28
ENDBRANCH  25  26
ENDBRANCH  24  25
ENDBRANCH  22  24
ENDBRANCH  19  22
TORSDOF 6
ENDMDL
MODEL 6
REMARK VINA RESULT:      -7.1      2.004      4.552
REMARK  Name = NuBBE_1990
REMARK  11 active torsions:
REMARK  status: ('A' for Active; 'I' for Inactive)
REMARK    1  A    between atoms: C_1  and  C_2
REMARK    2  A    between atoms: C_11  and  C_12
REMARK    3  A    between atoms: C_17  and  O_21
REMARK    4  A    between atoms: C_24  and  C_26
REMARK    5  A    between atoms: C_26  and  C_28
REMARK    6  A    between atoms: C_26  and  C_35
REMARK    7  A    between atoms: C_28  and  C_29
REMARK    8  A    between atoms: C_29  and  C_30
REMARK    9  A    between atoms: C_30  and  C_32
REMARK   10  A    between atoms: C_32  and  C_33
REMARK   11  A    between atoms: C_32  and  C_34
REMARK                            x       y       z     vdW  Elec       q    Type
REMARK                         _______ _______ _______ _____ _____    ______ ____
ROOT
ATOM      1  C   LIG A   1      -4.151  -3.317 128.932  0.00  0.00    +0.012 C 
ATOM      2  C   LIG A   1      -5.595  -2.898 129.352  0.00  0.00    -0.026 C 
ATOM      3  C   LIG A   1      -5.671  -1.542 130.092  0.00  0.00    -0.001 C 
ATOM      4  C   LIG A   1      -5.089  -1.487 131.510  0.00  0.00    +0.000 C 
ATOM      5  C   LIG A   1      -5.649  -2.643 132.392  0.00  0.00    +0.003 C 
ATOM      6  C   LIG A   1      -6.616  -3.585 131.618  0.00  0.00    +0.005 C 
ATOM      7  C   LIG A   1      -6.091  -4.047 130.256  0.00  0.00    +0.007 C 
ATOM      8  C   LIG A   1      -4.659  -3.350 133.408  0.00  0.00    -0.008 C 
ATOM      9  C   LIG A   1      -5.483  -3.571 134.712  0.00  0.00    +0.016 C 
ATOM     10  C   LIG A   1      -3.411  -2.517 133.703  0.00  0.00    -0.065 C 
ATOM     11  C   LIG A   1      -2.969  -1.543 132.902  0.00  0.00    -0.027 C 
ATOM     12  C   LIG A   1      -3.594  -1.199 131.593  0.00  0.00    +0.031 C 
ATOM     13  C   LIG A   1      -2.504  -3.053 134.788  0.00  0.00    +0.062 C 
ATOM     14  C   LIG A   1      -1.995  -4.437 134.362  0.00  0.00    +0.119 C 
ATOM     15  C   LIG A   1      -3.122  -5.376 133.908  0.00  0.00    +0.032 C 
ATOM     16  C   LIG A   1      -4.108  -4.718 132.924  0.00  0.00    +0.013 C 
ATOM     17  C   LIG A   1      -5.186  -0.539 129.060  0.00  0.00    +0.004 C 
ATOM     18  C   LIG A   1      -5.786  -1.064 127.747  0.00  0.00    +0.004 C 
ATOM     19  C   LIG A   1      -6.353  -2.510 128.015  0.00  0.00    -0.002 C 
ENDROOT
BRANCH  14  20
ATOM     20  O   LIG A   1      -1.274  -5.046 135.431  0.00  0.00    -0.392 OA
ATOM     21  H   LIG A   1      -0.326  -4.884 135.282  0.00  0.00    +0.210 HD
ENDBRANCH  14  20
BRANCH  19  22
ATOM     22  C   LIG A   1      -7.922  -2.465 127.934  0.00  0.00    -0.010 C 
ATOM     23  C   LIG A   1      -8.622  -3.823 128.041  0.00  0.00    +0.008 C 
BRANCH  22  24
ATOM     24  C   LIG A   1      -8.442  -1.717 126.654  0.00  0.00    +0.008 C 
BRANCH  24  25
ATOM     25  C   LIG A   1      -9.321  -2.526 125.683  0.00  0.00    +0.030 C 
BRANCH  25  26
ATOM     26  C   LIG A   1      -8.668  -2.686 124.311  0.00  0.00    -0.074 C 
ATOM     27  C   LIG A   1      -9.379  -3.168 123.274  0.00  0.00    +0.008 C 
BRANCH  26  28
ATOM     28  C   LIG A   1      -7.186  -2.324 124.202  0.00  0.00    +0.008 C 
ATOM     29  C   LIG A   1      -6.326  -3.589 124.305  0.00  0.00    +0.012 C 
ATOM     30  C   LIG A   1      -6.803  -1.553 122.929  0.00  0.00    +0.012 C 
ENDBRANCH  26  28
ENDBRANCH  25  26
ENDBRANCH  24  25
ENDBRANCH  22  24
ENDBRANCH  19  22
TORSDOF 6
ENDMDL
MODEL 7
REMARK VINA RESULT:      -7.0      4.207      7.497
REMARK  Name = NuBBE_1990
REMARK  11 active torsions:
REMARK  status: ('A' for Active; 'I' for Inactive)
REMARK    1  A    between atoms: C_1  and  C_2
REMARK    2  A    between atoms: C_11  and  C_12
REMARK    3  A    between atoms: C_17  and  O_21
REMARK    4  A    between atoms: C_24  and  C_26
REMARK    5  A    between atoms: C_26  and  C_28
REMARK    6  A    between atoms: C_26  and  C_35
REMARK    7  A    between atoms: C_28  and  C_29
REMARK    8  A    between atoms: C_29  and  C_30
REMARK    9  A    between atoms: C_30  and  C_32
REMARK   10  A    between atoms: C_32  and  C_33
REMARK   11  A    between atoms: C_32  and  C_34
REMARK                            x       y       z     vdW  Elec       q    Type
REMARK                         _______ _______ _______ _____ _____    ______ ____
ROOT
ATOM      1  C   LIG A   1      -7.894   1.939 127.601  0.00  0.00    +0.012 C 
ATOM      2  C   LIG A   1      -6.365   1.637 127.696  0.00  0.00    -0.026 C 
ATOM      3  C   LIG A   1      -5.582   1.912 126.391  0.00  0.00    -0.001 C 
ATOM      4  C   LIG A   1      -5.840   0.969 125.210  0.00  0.00    +0.000 C 
ATOM      5  C   LIG A   1      -5.708  -0.522 125.642  0.00  0.00    +0.003 C 
ATOM      6  C   LIG A   1      -5.394  -0.690 127.157  0.00  0.00    +0.005 C 
ATOM      7  C   LIG A   1      -6.283   0.145 128.082  0.00  0.00    +0.007 C 
ATOM      8  C   LIG A   1      -6.727  -1.568 125.026  0.00  0.00    -0.008 C 
ATOM      9  C   LIG A   1      -5.883  -2.838 124.707  0.00  0.00    +0.016 C 
ATOM     10  C   LIG A   1      -7.417  -1.057 123.761  0.00  0.00    -0.065 C 
ATOM     11  C   LIG A   1      -7.511   0.238 123.446  0.00  0.00    -0.027 C 
ATOM     12  C   LIG A   1      -7.022   1.341 124.321  0.00  0.00    +0.031 C 
ATOM     13  C   LIG A   1      -8.276  -2.063 123.027  0.00  0.00    +0.062 C 
ATOM     14  C   LIG A   1      -9.402  -2.520 123.965  0.00  0.00    +0.119 C 
ATOM     15  C   LIG A   1      -8.892  -2.957 125.345  0.00  0.00    +0.032 C 
ATOM     16  C   LIG A   1      -7.894  -1.965 125.972  0.00  0.00    +0.013 C 
ATOM     17  C   LIG A   1      -5.740   3.409 126.183  0.00  0.00    +0.004 C 
ATOM     18  C   LIG A   1      -5.655   3.974 127.610  0.00  0.00    +0.004 C 
ATOM     19  C   LIG A   1      -5.744   2.767 128.618  0.00  0.00    -0.002 C 
ENDROOT
BRANCH  14  20
ATOM     20  O   LIG A   1     -10.132  -3.591 123.369  0.00  0.00    -0.392 OA
ATOM     21  H   LIG A   1      -9.630  -4.411 123.515  0.00  0.00    +0.210 HD
ENDBRANCH  14  20
BRANCH  19  22
ATOM     22  C   LIG A   1      -4.351   2.588 129.324  0.00  0.00    -0.010 C 
ATOM     23  C   LIG A   1      -4.404   2.421 130.845  0.00  0.00    +0.008 C 
BRANCH  22  24
ATOM     24  C   LIG A   1      -3.339   3.736 128.966  0.00  0.00    +0.008 C 
BRANCH  24  25
ATOM     25  C   LIG A   1      -2.975   4.719 130.094  0.00  0.00    +0.030 C 
BRANCH  25  26
ATOM     26  C   LIG A   1      -3.063   6.176 129.640  0.00  0.00    -0.074 C 
ATOM     27  C   LIG A   1      -2.356   6.596 128.574  0.00  0.00    +0.008 C 
BRANCH  26  28
ATOM     28  C   LIG A   1      -3.937   7.111 130.476  0.00  0.00    +0.008 C 
ATOM     29  C   LIG A   1      -4.000   8.497 129.824  0.00  0.00    +0.012 C 
ATOM     30  C   LIG A   1      -5.366   6.603 130.727  0.00  0.00    +0.012 C 
ENDBRANCH  26  28
ENDBRANCH  25  26
ENDBRANCH  24  25
ENDBRANCH  22  24
ENDBRANCH  19  22
TORSDOF 6
ENDMDL
MODEL 8
REMARK VINA RESULT:      -7.0      3.651      6.690
REMARK  Name = NuBBE_1990
REMARK  11 active torsions:
REMARK  status: ('A' for Active; 'I' for Inactive)
REMARK    1  A    between atoms: C_1  and  C_2
REMARK    2  A    between atoms: C_11  and  C_12
REMARK    3  A    between atoms: C_17  and  O_21
REMARK    4  A    between atoms: C_24  and  C_26
REMARK    5  A    between atoms: C_26  and  C_28
REMARK    6  A    between atoms: C_26  and  C_35
REMARK    7  A    between atoms: C_28  and  C_29
REMARK    8  A    between atoms: C_29  and  C_30
REMARK    9  A    between atoms: C_30  and  C_32
REMARK   10  A    between atoms: C_32  and  C_33
REMARK   11  A    between atoms: C_32  and  C_34
REMARK                            x       y       z     vdW  Elec       q    Type
REMARK                         _______ _______ _______ _____ _____    ______ ____
ROOT
ATOM      1  C   LIG A   1      -5.539   0.002 132.775  0.00  0.00    +0.012 C 
ATOM      2  C   LIG A   1      -6.513  -0.724 131.794  0.00  0.00    -0.026 C 
ATOM      3  C   LIG A   1      -6.525  -0.138 130.364  0.00  0.00    -0.001 C 
ATOM      4  C   LIG A   1      -7.152   1.251 130.183  0.00  0.00    +0.000 C 
ATOM      5  C   LIG A   1      -8.567   1.318 130.832  0.00  0.00    +0.003 C 
ATOM      6  C   LIG A   1      -8.977  -0.010 131.533  0.00  0.00    +0.005 C 
ATOM      7  C   LIG A   1      -7.903  -0.595 132.454  0.00  0.00    +0.007 C 
ATOM      8  C   LIG A   1      -8.980   2.653 131.579  0.00  0.00    -0.008 C 
ATOM      9  C   LIG A   1     -10.466   2.909 131.188  0.00  0.00    +0.016 C 
ATOM     10  C   LIG A   1      -8.113   3.850 131.187  0.00  0.00    -0.065 C 
ATOM     11  C   LIG A   1      -6.899   3.733 130.644  0.00  0.00    -0.027 C 
ATOM     12  C   LIG A   1      -6.212   2.428 130.421  0.00  0.00    +0.031 C 
ATOM     13  C   LIG A   1      -8.555   5.189 131.734  0.00  0.00    +0.062 C 
ATOM     14  C   LIG A   1      -8.518   5.127 133.268  0.00  0.00    +0.119 C 
ATOM     15  C   LIG A   1      -9.246   3.901 133.835  0.00  0.00    +0.032 C 
ATOM     16  C   LIG A   1      -8.872   2.584 133.127  0.00  0.00    +0.013 C 
ATOM     17  C   LIG A   1      -5.111  -0.376 129.863  0.00  0.00    +0.004 C 
ATOM     18  C   LIG A   1      -4.760  -1.756 130.439  0.00  0.00    +0.004 C 
ATOM     19  C   LIG A   1      -5.867  -2.140 131.492  0.00  0.00    -0.002 C 
ENDROOT
BRANCH  14  20
ATOM     20  O   LIG A   1      -9.088   6.313 133.820  0.00  0.00    -0.392 OA
ATOM     21  H   LIG A   1      -9.254   6.151 134.765  0.00  0.00    +0.210 HD
ENDBRANCH  14  20
BRANCH  19  22
ATOM     22  C   LIG A   1      -6.718  -3.334 130.926  0.00  0.00    -0.010 C 
ATOM     23  C   LIG A   1      -5.911  -4.466 130.285  0.00  0.00    +0.008 C 
BRANCH  22  24
ATOM     24  C   LIG A   1      -7.831  -2.862 129.923  0.00  0.00    +0.008 C 
BRANCH  24  25
ATOM     25  C   LIG A   1      -8.063  -3.738 128.678  0.00  0.00    +0.030 C 
BRANCH  25  26
ATOM     26  C   LIG A   1      -8.295  -2.903 127.420  0.00  0.00    -0.074 C 
ATOM     27  C   LIG A   1      -9.191  -3.302 126.497  0.00  0.00    +0.008 C 
BRANCH  26  28
ATOM     28  C   LIG A   1      -7.437  -1.648 127.253  0.00  0.00    +0.008 C 
ATOM     29  C   LIG A   1      -6.079  -2.016 126.644  0.00  0.00    +0.012 C 
ATOM     30  C   LIG A   1      -8.083  -0.532 126.416  0.00  0.00    +0.012 C 
ENDBRANCH  26  28
ENDBRANCH  25  26
ENDBRANCH  24  25
ENDBRANCH  22  24
ENDBRANCH  19  22
TORSDOF 6
ENDMDL
MODEL 9
REMARK VINA RESULT:      -7.0      2.893      6.986
REMARK  Name = NuBBE_1990
REMARK  11 active torsions:
REMARK  status: ('A' for Active; 'I' for Inactive)
REMARK    1  A    between atoms: C_1  and  C_2
REMARK    2  A    between atoms: C_11  and  C_12
REMARK    3  A    between atoms: C_17  and  O_21
REMARK    4  A    between atoms: C_24  and  C_26
REMARK    5  A    between atoms: C_26  and  C_28
REMARK    6  A    between atoms: C_26  and  C_35
REMARK    7  A    between atoms: C_28  and  C_29
REMARK    8  A    between atoms: C_29  and  C_30
REMARK    9  A    between atoms: C_30  and  C_32
REMARK   10  A    between atoms: C_32  and  C_33
REMARK   11  A    between atoms: C_32  and  C_34
REMARK                            x       y       z     vdW  Elec       q    Type
REMARK                         _______ _______ _______ _____ _____    ______ ____
ROOT
ATOM      1  C   LIG A   1      -4.796  -3.122 129.161  0.00  0.00    +0.012 C 
ATOM      2  C   LIG A   1      -5.456  -1.894 129.865  0.00  0.00    -0.026 C 
ATOM      3  C   LIG A   1      -6.918  -2.130 130.309  0.00  0.00    -0.001 C 
ATOM      4  C   LIG A   1      -7.975  -2.243 129.202  0.00  0.00    +0.000 C 
ATOM      5  C   LIG A   1      -7.873  -1.050 128.205  0.00  0.00    +0.003 C 
ATOM      6  C   LIG A   1      -6.713  -0.071 128.544  0.00  0.00    +0.005 C 
ATOM      7  C   LIG A   1      -5.372  -0.755 128.827  0.00  0.00    +0.007 C 
ATOM      8  C   LIG A   1      -8.101  -1.348 126.664  0.00  0.00    -0.008 C 
ATOM      9  C   LIG A   1      -8.952  -0.159 126.129  0.00  0.00    +0.016 C 
ATOM     10  C   LIG A   1      -8.820  -2.673 126.412  0.00  0.00    -0.065 C 
ATOM     11  C   LIG A   1      -8.865  -3.668 127.301  0.00  0.00    -0.027 C 
ATOM     12  C   LIG A   1      -8.160  -3.638 128.615  0.00  0.00    +0.031 C 
ATOM     13  C   LIG A   1      -9.218  -2.943 124.977  0.00  0.00    +0.062 C 
ATOM     14  C   LIG A   1      -7.947  -2.983 124.117  0.00  0.00    +0.119 C 
ATOM     15  C   LIG A   1      -7.033  -1.771 124.340  0.00  0.00    +0.032 C 
ATOM     16  C   LIG A   1      -6.796  -1.449 125.829  0.00  0.00    +0.013 C 
ATOM     17  C   LIG A   1      -6.810  -3.243 131.337  0.00  0.00    +0.004 C 
ATOM     18  C   LIG A   1      -5.516  -2.902 132.091  0.00  0.00    +0.004 C 
ATOM     19  C   LIG A   1      -4.766  -1.773 131.287  0.00  0.00    -0.002 C 
ENDROOT
BRANCH  14  20
ATOM     20  O   LIG A   1      -8.292  -3.068 122.736  0.00  0.00    -0.392 OA
ATOM     21  H   LIG A   1      -9.067  -2.500 122.587  0.00  0.00    +0.210 HD
ENDBRANCH  14  20
BRANCH  19  22
ATOM     22  C   LIG A   1      -4.810  -0.440 132.118  0.00  0.00    -0.010 C 
ATOM     23  C   LIG A   1      -3.504  -0.061 132.820  0.00  0.00    +0.008 C 
BRANCH  22  24
ATOM     24  C   LIG A   1      -5.983  -0.418 133.165  0.00  0.00    +0.008 C 
BRANCH  24  25
ATOM     25  C   LIG A   1      -6.761   0.902 133.311  0.00  0.00    +0.030 C 
BRANCH  25  26
ATOM     26  C   LIG A   1      -7.857   1.045 132.256  0.00  0.00    -0.074 C 
ATOM     27  C   LIG A   1      -8.733   0.044 132.049  0.00  0.00    +0.008 C 
BRANCH  26  28
ATOM     28  C   LIG A   1      -7.867   2.337 131.438  0.00  0.00    +0.008 C 
ATOM     29  C   LIG A   1      -6.440   2.705 131.016  0.00  0.00    +0.012 C 
ATOM     30  C   LIG A   1      -8.771   2.306 130.195  0.00  0.00    +0.012 C 
ENDBRANCH  26  28
ENDBRANCH  25  26
ENDBRANCH  24  25
ENDBRANCH  22  24
ENDBRANCH  19  22
TORSDOF 6
ENDMDL
