MODEL 1
REMARK VINA RESULT:      -7.4      0.000      0.000
REMARK  Name = NuBBE_1865
REMARK  9 active torsions:
REMARK  status: ('A' for Active; 'I' for Inactive)
REMARK    1  A    between atoms: O_1  and  C_2
REMARK    2  A    between atoms: O_1  and  C_3
REMARK    3  A    between atoms: C_4  and  C_17
REMARK    4  A    between atoms: C_10  and  O_11
REMARK    5  A    between atoms: C_13  and  O_15
REMARK    6  A    between atoms: O_15  and  C_16
REMARK    7  A    between atoms: C_19  and  O_20
REMARK    8  A    between atoms: C_21  and  O_24
REMARK    9  A    between atoms: O_24  and  C_25
REMARK                            x       y       z     vdW  Elec       q    Type
REMARK                         _______ _______ _______ _____ _____    ______ ____
ROOT
ATOM      1  C   LIG A   1      -7.751   3.101 124.825  0.00  0.00    +0.211 A 
ATOM      2  C   LIG A   1      -7.566   2.359 123.709  0.00  0.00    +0.181 A 
ATOM      3  O   LIG A   1      -7.534   0.976 123.662  0.00  0.00    -0.451 OA
ATOM      4  C   LIG A   1      -7.690   0.275 124.828  0.00  0.00    +0.146 A 
ATOM      5  C   LIG A   1      -7.884   0.894 126.056  0.00  0.00    +0.109 A 
ATOM      6  C   LIG A   1      -7.939   2.356 126.103  0.00  0.00    +0.238 A 
ATOM      7  O   LIG A   1      -8.148   2.902 127.193  0.00  0.00    -0.283 OA
ATOM      8  C   LIG A   1      -8.022   0.112 127.210  0.00  0.00    +0.135 A 
ATOM      9  C   LIG A   1      -7.976  -1.278 127.135  0.00  0.00    +0.092 A 
ATOM     10  C   LIG A   1      -7.803  -1.899 125.899  0.00  0.00    +0.127 A 
ATOM     11  C   LIG A   1      -7.646  -1.118 124.748  0.00  0.00    +0.092 A 
ENDROOT
BRANCH   2  12
ATOM     12  C   LIG A   1      -7.426   2.978 122.378  0.00  0.00    +0.025 A 
ATOM     13  C   LIG A   1      -8.566   3.193 121.596  0.00  0.00    +0.060 A 
ATOM     14  C   LIG A   1      -8.466   3.807 120.344  0.00  0.00    +0.159 A 
ATOM     15  C   LIG A   1      -7.225   4.215 119.843  0.00  0.00    +0.161 A 
ATOM     16  C   LIG A   1      -6.083   3.989 120.622  0.00  0.00    +0.050 A 
ATOM     17  C   LIG A   1      -6.178   3.367 121.875  0.00  0.00    +0.015 A 
BRANCH  14  18
ATOM     18  O   LIG A   1      -9.620   4.017 119.642  0.00  0.00    -0.503 OA
ATOM     19  H   LIG A   1     -10.113   3.185 119.577  0.00  0.00    +0.292 HD
ENDBRANCH  14  18
BRANCH  15  20
ATOM     20  O   LIG A   1      -6.995   4.864 118.656  0.00  0.00    -0.491 OA
ATOM     21  C   LIG A   1      -5.888   5.761 118.640  0.00  0.00    +0.277 C 
ENDBRANCH  15  20
ENDBRANCH   2  12
BRANCH   1  22
ATOM     22  O   LIG A   1      -7.822   4.485 124.748  0.00  0.00    -0.488 OA
ATOM     23  C   LIG A   1      -6.657   5.203 125.149  0.00  0.00    +0.277 C 
ENDBRANCH   1  22
BRANCH   8  24
ATOM     24  O   LIG A   1      -8.202   0.648 128.459  0.00  0.00    -0.506 OA
ATOM     25  H   LIG A   1      -8.227   1.627 128.371  0.00  0.00    +0.292 HD
ENDBRANCH   8  24
BRANCH  10  26
ATOM     26  O   LIG A   1      -7.718  -3.251 125.708  0.00  0.00    -0.495 OA
ATOM     27  C   LIG A   1      -8.318  -3.742 124.512  0.00  0.00    +0.277 C 
ENDBRANCH  10  26
TORSDOF 6
ENDMDL
MODEL 2
REMARK VINA RESULT:      -6.8      7.661      9.732
REMARK  Name = NuBBE_1865
REMARK  9 active torsions:
REMARK  status: ('A' for Active; 'I' for Inactive)
REMARK    1  A    between atoms: O_1  and  C_2
REMARK    2  A    between atoms: O_1  and  C_3
REMARK    3  A    between atoms: C_4  and  C_17
REMARK    4  A    between atoms: C_10  and  O_11
REMARK    5  A    between atoms: C_13  and  O_15
REMARK    6  A    between atoms: O_15  and  C_16
REMARK    7  A    between atoms: C_19  and  O_20
REMARK    8  A    between atoms: C_21  and  O_24
REMARK    9  A    between atoms: O_24  and  C_25
REMARK                            x       y       z     vdW  Elec       q    Type
REMARK                         _______ _______ _______ _____ _____    ______ ____
ROOT
ATOM      1  C   LIG A   1      -8.890   4.836 130.010  0.00  0.00    +0.211 A 
ATOM      2  C   LIG A   1      -8.902   6.177 130.195  0.00  0.00    +0.181 A 
ATOM      3  O   LIG A   1      -7.816   6.944 130.578  0.00  0.00    -0.451 OA
ATOM      4  C   LIG A   1      -6.619   6.320 130.806  0.00  0.00    +0.146 A 
ATOM      5  C   LIG A   1      -6.447   4.949 130.664  0.00  0.00    +0.109 A 
ATOM      6  C   LIG A   1      -7.591   4.140 130.238  0.00  0.00    +0.238 A 
ATOM      7  O   LIG A   1      -7.425   2.925 130.077  0.00  0.00    -0.283 OA
ATOM      8  C   LIG A   1      -5.196   4.377 130.927  0.00  0.00    +0.135 A 
ATOM      9  C   LIG A   1      -4.122   5.172 131.322  0.00  0.00    +0.092 A 
ATOM     10  C   LIG A   1      -4.289   6.551 131.444  0.00  0.00    +0.127 A 
ATOM     11  C   LIG A   1      -5.544   7.120 131.199  0.00  0.00    +0.092 A 
ENDROOT
BRANCH   2  12
ATOM     12  C   LIG A   1     -10.111   6.984 129.946  0.00  0.00    +0.025 A 
ATOM     13  C   LIG A   1     -11.186   6.906 130.838  0.00  0.00    +0.060 A 
ATOM     14  C   LIG A   1     -12.332   7.684 130.645  0.00  0.00    +0.159 A 
ATOM     15  C   LIG A   1     -12.431   8.553 129.553  0.00  0.00    +0.161 A 
ATOM     16  C   LIG A   1     -11.359   8.622 128.653  0.00  0.00    +0.050 A 
ATOM     17  C   LIG A   1     -10.211   7.838 128.841  0.00  0.00    +0.015 A 
BRANCH  14  18
ATOM     18  O   LIG A   1     -13.334   7.585 131.569  0.00  0.00    -0.503 OA
ATOM     19  H   LIG A   1     -12.983   7.198 132.385  0.00  0.00    +0.292 HD
ENDBRANCH  14  18
BRANCH  15  20
ATOM     20  O   LIG A   1     -13.475   9.399 129.272  0.00  0.00    -0.491 OA
ATOM     21  C   LIG A   1     -13.419  10.683 129.886  0.00  0.00    +0.277 C 
ENDBRANCH  15  20
ENDBRANCH   2  12
BRANCH   1  22
ATOM     22  O   LIG A   1     -10.027   4.174 129.569  0.00  0.00    -0.488 OA
ATOM     23  C   LIG A   1     -10.687   3.343 130.521  0.00  0.00    +0.277 C 
ENDBRANCH   1  22
BRANCH   8  24
ATOM     24  O   LIG A   1      -4.952   3.032 130.824  0.00  0.00    -0.506 OA
ATOM     25  H   LIG A   1      -3.977   2.899 130.810  0.00  0.00    +0.292 HD
ENDBRANCH   8  24
BRANCH  10  26
ATOM     26  O   LIG A   1      -3.316   7.424 131.846  0.00  0.00    -0.495 OA
ATOM     27  C   LIG A   1      -2.923   7.320 133.212  0.00  0.00    +0.277 C 
ENDBRANCH  10  26
TORSDOF 6
ENDMDL
MODEL 3
REMARK VINA RESULT:      -6.8      7.611     10.297
REMARK  Name = NuBBE_1865
REMARK  9 active torsions:
REMARK  status: ('A' for Active; 'I' for Inactive)
REMARK    1  A    between atoms: O_1  and  C_2
REMARK    2  A    between atoms: O_1  and  C_3
REMARK    3  A    between atoms: C_4  and  C_17
REMARK    4  A    between atoms: C_10  and  O_11
REMARK    5  A    between atoms: C_13  and  O_15
REMARK    6  A    between atoms: O_15  and  C_16
REMARK    7  A    between atoms: C_19  and  O_20
REMARK    8  A    between atoms: C_21  and  O_24
REMARK    9  A    between atoms: O_24  and  C_25
REMARK                            x       y       z     vdW  Elec       q    Type
REMARK                         _______ _______ _______ _____ _____    ______ ____
ROOT
ATOM      1  C   LIG A   1      -8.910   4.434 131.327  0.00  0.00    +0.211 A 
ATOM      2  C   LIG A   1      -9.410   5.592 131.817  0.00  0.00    +0.181 A 
ATOM      3  O   LIG A   1      -9.083   6.154 133.039  0.00  0.00    -0.451 OA
ATOM      4  C   LIG A   1      -8.191   5.499 133.846  0.00  0.00    +0.146 A 
ATOM      5  C   LIG A   1      -7.594   4.298 133.486  0.00  0.00    +0.109 A 
ATOM      6  C   LIG A   1      -7.924   3.714 132.183  0.00  0.00    +0.238 A 
ATOM      7  O   LIG A   1      -7.364   2.662 131.851  0.00  0.00    -0.283 OA
ATOM      8  C   LIG A   1      -6.701   3.677 134.367  0.00  0.00    +0.135 A 
ATOM      9  C   LIG A   1      -6.397   4.260 135.596  0.00  0.00    +0.092 A 
ATOM     10  C   LIG A   1      -6.979   5.477 135.948  0.00  0.00    +0.127 A 
ATOM     11  C   LIG A   1      -7.888   6.088 135.075  0.00  0.00    +0.092 A 
ENDROOT
BRANCH   2  12
ATOM     12  C   LIG A   1     -10.348   6.424 131.041  0.00  0.00    +0.025 A 
ATOM     13  C   LIG A   1      -9.868   7.190 129.974  0.00  0.00    +0.060 A 
ATOM     14  C   LIG A   1     -10.740   7.963 129.200  0.00  0.00    +0.159 A 
ATOM     15  C   LIG A   1     -12.111   7.991 129.480  0.00  0.00    +0.161 A 
ATOM     16  C   LIG A   1     -12.589   7.233 130.556  0.00  0.00    +0.050 A 
ATOM     17  C   LIG A   1     -11.717   6.462 131.338  0.00  0.00    +0.015 A 
BRANCH  14  18
ATOM     18  O   LIG A   1     -10.213   8.663 128.152  0.00  0.00    -0.503 OA
ATOM     19  H   LIG A   1     -10.386   8.187 127.326  0.00  0.00    +0.292 HD
ENDBRANCH  14  18
BRANCH  15  20
ATOM     20  O   LIG A   1     -13.075   8.668 128.777  0.00  0.00    -0.491 OA
ATOM     21  C   LIG A   1     -13.729   7.933 127.747  0.00  0.00    +0.277 C 
ENDBRANCH  15  20
ENDBRANCH   2  12
BRANCH   1  22
ATOM     22  O   LIG A   1      -9.266   3.992 130.061  0.00  0.00    -0.488 OA
ATOM     23  C   LIG A   1      -8.268   4.097 129.049  0.00  0.00    +0.277 C 
ENDBRANCH   1  22
BRANCH   8  24
ATOM     24  O   LIG A   1      -6.084   2.485 134.091  0.00  0.00    -0.506 OA
ATOM     25  H   LIG A   1      -5.126   2.582 134.291  0.00  0.00    +0.292 HD
ENDBRANCH   8  24
BRANCH  10  26
ATOM     26  O   LIG A   1      -6.776   6.127 137.134  0.00  0.00    -0.495 OA
ATOM     27  C   LIG A   1      -7.933   6.726 137.713  0.00  0.00    +0.277 C 
ENDBRANCH  10  26
TORSDOF 6
ENDMDL
MODEL 4
REMARK VINA RESULT:      -6.8      3.111      8.634
REMARK  Name = NuBBE_1865
REMARK  9 active torsions:
REMARK  status: ('A' for Active; 'I' for Inactive)
REMARK    1  A    between atoms: O_1  and  C_2
REMARK    2  A    between atoms: O_1  and  C_3
REMARK    3  A    between atoms: C_4  and  C_17
REMARK    4  A    between atoms: C_10  and  O_11
REMARK    5  A    between atoms: C_13  and  O_15
REMARK    6  A    between atoms: O_15  and  C_16
REMARK    7  A    between atoms: C_19  and  O_20
REMARK    8  A    between atoms: C_21  and  O_24
REMARK    9  A    between atoms: O_24  and  C_25
REMARK                            x       y       z     vdW  Elec       q    Type
REMARK                         _______ _______ _______ _____ _____    ______ ____
ROOT
ATOM      1  C   LIG A   1      -8.446  -2.302 125.646  0.00  0.00    +0.211 A 
ATOM      2  C   LIG A   1      -7.807  -1.559 126.579  0.00  0.00    +0.181 A 
ATOM      3  O   LIG A   1      -7.726  -0.177 126.588  0.00  0.00    -0.451 OA
ATOM      4  C   LIG A   1      -8.325   0.522 125.573  0.00  0.00    +0.146 A 
ATOM      5  C   LIG A   1      -9.014  -0.097 124.539  0.00  0.00    +0.109 A 
ATOM      6  C   LIG A   1      -9.117  -1.558 124.541  0.00  0.00    +0.238 A 
ATOM      7  O   LIG A   1      -9.763  -2.103 123.638  0.00  0.00    -0.283 OA
ATOM      8  C   LIG A   1      -9.589   0.682 123.527  0.00  0.00    +0.135 A 
ATOM      9  C   LIG A   1      -9.484   2.071 123.555  0.00  0.00    +0.092 A 
ATOM     10  C   LIG A   1      -8.810   2.693 124.605  0.00  0.00    +0.127 A 
ATOM     11  C   LIG A   1      -8.219   1.914 125.606  0.00  0.00    +0.092 A 
ENDROOT
BRANCH   2  12
ATOM     12  C   LIG A   1      -7.155  -2.175 127.749  0.00  0.00    +0.025 A 
ATOM     13  C   LIG A   1      -5.758  -2.192 127.828  0.00  0.00    +0.060 A 
ATOM     14  C   LIG A   1      -5.113  -2.741 128.941  0.00  0.00    +0.159 A 
ATOM     15  C   LIG A   1      -5.849  -3.291 129.997  0.00  0.00    +0.161 A 
ATOM     16  C   LIG A   1      -7.247  -3.285 129.911  0.00  0.00    +0.050 A 
ATOM     17  C   LIG A   1      -7.898  -2.741 128.793  0.00  0.00    +0.015 A 
BRANCH  14  18
ATOM     18  O   LIG A   1      -3.747  -2.698 128.973  0.00  0.00    -0.503 OA
ATOM     19  H   LIG A   1      -3.394  -3.589 128.833  0.00  0.00    +0.292 HD
ENDBRANCH  14  18
BRANCH  15  20
ATOM     20  O   LIG A   1      -5.344  -3.819 131.158  0.00  0.00    -0.491 OA
ATOM     21  C   LIG A   1      -5.387  -5.238 131.268  0.00  0.00    +0.277 C 
ENDBRANCH  15  20
ENDBRANCH   2  12
BRANCH   1  22
ATOM     22  O   LIG A   1      -8.512  -3.682 125.767  0.00  0.00    -0.488 OA
ATOM     23  C   LIG A   1      -7.758  -4.439 124.823  0.00  0.00    +0.277 C 
ENDBRANCH   1  22
BRANCH   8  24
ATOM     24  O   LIG A   1     -10.271   0.145 122.466  0.00  0.00    -0.506 OA
ATOM     25  H   LIG A   1      -9.703   0.219 121.667  0.00  0.00    +0.292 HD
ENDBRANCH   8  24
BRANCH  10  26
ATOM     26  O   LIG A   1      -8.623   4.043 124.724  0.00  0.00    -0.495 OA
ATOM     27  C   LIG A   1      -7.849   4.460 125.845  0.00  0.00    +0.277 C 
ENDBRANCH  10  26
TORSDOF 6
ENDMDL
MODEL 5
REMARK VINA RESULT:      -6.7      3.525      7.283
REMARK  Name = NuBBE_1865
REMARK  9 active torsions:
REMARK  status: ('A' for Active; 'I' for Inactive)
REMARK    1  A    between atoms: O_1  and  C_2
REMARK    2  A    between atoms: O_1  and  C_3
REMARK    3  A    between atoms: C_4  and  C_17
REMARK    4  A    between atoms: C_10  and  O_11
REMARK    5  A    between atoms: C_13  and  O_15
REMARK    6  A    between atoms: O_15  and  C_16
REMARK    7  A    between atoms: C_19  and  O_20
REMARK    8  A    between atoms: C_21  and  O_24
REMARK    9  A    between atoms: O_24  and  C_25
REMARK                            x       y       z     vdW  Elec       q    Type
REMARK                         _______ _______ _______ _____ _____    ______ ____
ROOT
ATOM      1  C   LIG A   1      -6.668   3.610 126.367  0.00  0.00    +0.211 A 
ATOM      2  C   LIG A   1      -5.529   4.191 125.924  0.00  0.00    +0.181 A 
ATOM      3  O   LIG A   1      -5.193   4.391 124.597  0.00  0.00    -0.451 OA
ATOM      4  C   LIG A   1      -6.063   3.965 123.628  0.00  0.00    +0.146 A 
ATOM      5  C   LIG A   1      -7.271   3.346 123.923  0.00  0.00    +0.109 A 
ATOM      6  C   LIG A   1      -7.635   3.153 125.329  0.00  0.00    +0.238 A 
ATOM      7  O   LIG A   1      -8.728   2.634 125.587  0.00  0.00    -0.283 OA
ATOM      8  C   LIG A   1      -8.105   2.924 122.880  0.00  0.00    +0.135 A 
ATOM      9  C   LIG A   1      -7.738   3.128 121.552  0.00  0.00    +0.092 A 
ATOM     10  C   LIG A   1      -6.536   3.769 121.256  0.00  0.00    +0.127 A 
ATOM     11  C   LIG A   1      -5.693   4.174 122.298  0.00  0.00    +0.092 A 
ENDROOT
BRANCH   2  12
ATOM     12  C   LIG A   1      -4.521   4.734 126.854  0.00  0.00    +0.025 A 
ATOM     13  C   LIG A   1      -4.630   6.059 127.289  0.00  0.00    +0.060 A 
ATOM     14  C   LIG A   1      -3.707   6.590 128.195  0.00  0.00    +0.159 A 
ATOM     15  C   LIG A   1      -2.651   5.811 128.683  0.00  0.00    +0.161 A 
ATOM     16  C   LIG A   1      -2.537   4.488 128.237  0.00  0.00    +0.050 A 
ATOM     17  C   LIG A   1      -3.457   3.954 127.323  0.00  0.00    +0.015 A 
BRANCH  14  18
ATOM     18  O   LIG A   1      -3.886   7.881 128.606  0.00  0.00    -0.503 OA
ATOM     19  H   LIG A   1      -4.828   8.039 128.772  0.00  0.00    +0.292 HD
ENDBRANCH  14  18
BRANCH  15  20
ATOM     20  O   LIG A   1      -1.709   6.194 129.603  0.00  0.00    -0.491 OA
ATOM     21  C   LIG A   1      -2.063   6.016 130.971  0.00  0.00    +0.277 C 
ENDBRANCH  15  20
ENDBRANCH   2  12
BRANCH   1  22
ATOM     22  O   LIG A   1      -6.927   3.511 127.727  0.00  0.00    -0.488 OA
ATOM     23  C   LIG A   1      -7.917   4.394 128.249  0.00  0.00    +0.277 C 
ENDBRANCH   1  22
BRANCH   8  24
ATOM     24  O   LIG A   1      -9.304   2.293 123.089  0.00  0.00    -0.506 OA
ATOM     25  H   LIG A   1      -9.756   2.737 123.841  0.00  0.00    +0.292 HD
ENDBRANCH   8  24
BRANCH  10  26
ATOM     26  O   LIG A   1      -6.062   4.001 119.994  0.00  0.00    -0.495 OA
ATOM     27  C   LIG A   1      -5.361   5.229 119.817  0.00  0.00    +0.277 C 
ENDBRANCH  10  26
TORSDOF 6
ENDMDL
MODEL 6
REMARK VINA RESULT:      -6.6      3.025      7.466
REMARK  Name = NuBBE_1865
REMARK  9 active torsions:
REMARK  status: ('A' for Active; 'I' for Inactive)
REMARK    1  A    between atoms: O_1  and  C_2
REMARK    2  A    between atoms: O_1  and  C_3
REMARK    3  A    between atoms: C_4  and  C_17
REMARK    4  A    between atoms: C_10  and  O_11
REMARK    5  A    between atoms: C_13  and  O_15
REMARK    6  A    between atoms: O_15  and  C_16
REMARK    7  A    between atoms: C_19  and  O_20
REMARK    8  A    between atoms: C_21  and  O_24
REMARK    9  A    between atoms: O_24  and  C_25
REMARK                            x       y       z     vdW  Elec       q    Type
REMARK                         _______ _______ _______ _____ _____    ______ ____
ROOT
ATOM      1  C   LIG A   1      -7.264   2.962 125.038  0.00  0.00    +0.211 A 
ATOM      2  C   LIG A   1      -6.017   3.487 125.024  0.00  0.00    +0.181 A 
ATOM      3  O   LIG A   1      -5.377   4.003 123.911  0.00  0.00    -0.451 OA
ATOM      4  C   LIG A   1      -6.032   3.985 122.709  0.00  0.00    +0.146 A 
ATOM      5  C   LIG A   1      -7.315   3.474 122.560  0.00  0.00    +0.109 A 
ATOM      6  C   LIG A   1      -8.001   2.947 123.742  0.00  0.00    +0.238 A 
ATOM      7  O   LIG A   1      -9.157   2.526 123.612  0.00  0.00    -0.283 OA
ATOM      8  C   LIG A   1      -7.918   3.476 121.296  0.00  0.00    +0.135 A 
ATOM      9  C   LIG A   1      -7.247   3.993 120.190  0.00  0.00    +0.092 A 
ATOM     10  C   LIG A   1      -5.967   4.524 120.344  0.00  0.00    +0.127 A 
ATOM     11  C   LIG A   1      -5.357   4.506 121.603  0.00  0.00    +0.092 A 
ENDROOT
BRANCH   2  12
ATOM     12  C   LIG A   1      -5.211   3.609 126.253  0.00  0.00    +0.025 A 
ATOM     13  C   LIG A   1      -3.944   3.018 126.306  0.00  0.00    +0.060 A 
ATOM     14  C   LIG A   1      -3.145   3.145 127.446  0.00  0.00    +0.159 A 
ATOM     15  C   LIG A   1      -3.597   3.860 128.562  0.00  0.00    +0.161 A 
ATOM     16  C   LIG A   1      -4.871   4.440 128.512  0.00  0.00    +0.050 A 
ATOM     17  C   LIG A   1      -5.678   4.309 127.373  0.00  0.00    +0.015 A 
BRANCH  14  18
ATOM     18  O   LIG A   1      -1.905   2.573 127.424  0.00  0.00    -0.503 OA
ATOM     19  H   LIG A   1      -1.995   1.607 127.426  0.00  0.00    +0.292 HD
ENDBRANCH  14  18
BRANCH  15  20
ATOM     20  O   LIG A   1      -2.900   4.095 129.720  0.00  0.00    -0.491 OA
ATOM     21  C   LIG A   1      -2.742   5.462 130.086  0.00  0.00    +0.277 C 
ENDBRANCH  15  20
ENDBRANCH   2  12
BRANCH   1  22
ATOM     22  O   LIG A   1      -7.831   2.523 126.226  0.00  0.00    -0.488 OA
ATOM     23  C   LIG A   1      -7.832   1.114 126.446  0.00  0.00    +0.277 C 
ENDBRANCH   1  22
BRANCH   8  24
ATOM     24  O   LIG A   1      -9.174   2.977 121.066  0.00  0.00    -0.506 OA
ATOM     25  H   LIG A   1      -9.140   2.000 121.173  0.00  0.00    +0.292 HD
ENDBRANCH   8  24
BRANCH  10  26
ATOM     26  O   LIG A   1      -5.205   5.035 119.329  0.00  0.00    -0.495 OA
ATOM     27  C   LIG A   1      -5.895   5.872 118.404  0.00  0.00    +0.277 C 
ENDBRANCH  10  26
TORSDOF 6
ENDMDL
MODEL 7
REMARK VINA RESULT:      -6.5      2.893      5.481
REMARK  Name = NuBBE_1865
REMARK  9 active torsions:
REMARK  status: ('A' for Active; 'I' for Inactive)
REMARK    1  A    between atoms: O_1  and  C_2
REMARK    2  A    between atoms: O_1  and  C_3
REMARK    3  A    between atoms: C_4  and  C_17
REMARK    4  A    between atoms: C_10  and  O_11
REMARK    5  A    between atoms: C_13  and  O_15
REMARK    6  A    between atoms: O_15  and  C_16
REMARK    7  A    between atoms: C_19  and  O_20
REMARK    8  A    between atoms: C_21  and  O_24
REMARK    9  A    between atoms: O_24  and  C_25
REMARK                            x       y       z     vdW  Elec       q    Type
REMARK                         _______ _______ _______ _____ _____    ______ ____
ROOT
ATOM      1  C   LIG A   1      -7.071   1.143 124.554  0.00  0.00    +0.211 A 
ATOM      2  C   LIG A   1      -6.550   1.145 125.803  0.00  0.00    +0.181 A 
ATOM      3  O   LIG A   1      -6.758   0.167 126.761  0.00  0.00    -0.451 OA
ATOM      4  C   LIG A   1      -7.563  -0.896 126.449  0.00  0.00    +0.146 A 
ATOM      5  C   LIG A   1      -8.175  -1.038 125.211  0.00  0.00    +0.109 A 
ATOM      6  C   LIG A   1      -7.937  -0.014 124.190  0.00  0.00    +0.238 A 
ATOM      7  O   LIG A   1      -8.455  -0.163 123.077  0.00  0.00    -0.283 OA
ATOM      8  C   LIG A   1      -8.996  -2.145 124.968  0.00  0.00    +0.135 A 
ATOM      9  C   LIG A   1      -9.197  -3.109 125.953  0.00  0.00    +0.092 A 
ATOM     10  C   LIG A   1      -8.566  -2.978 127.189  0.00  0.00    +0.127 A 
ATOM     11  C   LIG A   1      -7.760  -1.862 127.439  0.00  0.00    +0.092 A 
ENDROOT
BRANCH   2  12
ATOM     12  C   LIG A   1      -5.633   2.205 126.262  0.00  0.00    +0.025 A 
ATOM     13  C   LIG A   1      -4.260   1.945 126.329  0.00  0.00    +0.060 A 
ATOM     14  C   LIG A   1      -3.364   2.942 126.730  0.00  0.00    +0.159 A 
ATOM     15  C   LIG A   1      -3.821   4.218 127.077  0.00  0.00    +0.161 A 
ATOM     16  C   LIG A   1      -5.198   4.473 127.021  0.00  0.00    +0.050 A 
ATOM     17  C   LIG A   1      -6.099   3.474 126.626  0.00  0.00    +0.015 A 
BRANCH  14  18
ATOM     18  O   LIG A   1      -2.033   2.635 126.744  0.00  0.00    -0.503 OA
ATOM     19  H   LIG A   1      -1.544   3.296 126.230  0.00  0.00    +0.292 HD
ENDBRANCH  14  18
BRANCH  15  20
ATOM     20  O   LIG A   1      -3.050   5.292 127.443  0.00  0.00    -0.491 OA
ATOM     21  C   LIG A   1      -2.761   5.408 128.833  0.00  0.00    +0.277 C 
ENDBRANCH  15  20
ENDBRANCH   2  12
BRANCH   1  22
ATOM     22  O   LIG A   1      -6.749   2.149 123.655  0.00  0.00    -0.488 OA
ATOM     23  C   LIG A   1      -7.773   3.100 123.373  0.00  0.00    +0.277 C 
ENDBRANCH   1  22
BRANCH   8  24
ATOM     24  O   LIG A   1      -9.646  -2.348 123.778  0.00  0.00    -0.506 OA
ATOM     25  H   LIG A   1     -10.393  -1.710 123.724  0.00  0.00    +0.292 HD
ENDBRANCH   8  24
BRANCH  10  26
ATOM     26  O   LIG A   1      -8.708  -3.846 128.236  0.00  0.00    -0.495 OA
ATOM     27  C   LIG A   1      -8.147  -3.414 129.473  0.00  0.00    +0.277 C 
ENDBRANCH  10  26
TORSDOF 6
ENDMDL
MODEL 8
REMARK VINA RESULT:      -6.5      5.690      8.127
REMARK  Name = NuBBE_1865
REMARK  9 active torsions:
REMARK  status: ('A' for Active; 'I' for Inactive)
REMARK    1  A    between atoms: O_1  and  C_2
REMARK    2  A    between atoms: O_1  and  C_3
REMARK    3  A    between atoms: C_4  and  C_17
REMARK    4  A    between atoms: C_10  and  O_11
REMARK    5  A    between atoms: C_13  and  O_15
REMARK    6  A    between atoms: O_15  and  C_16
REMARK    7  A    between atoms: C_19  and  O_20
REMARK    8  A    between atoms: C_21  and  O_24
REMARK    9  A    between atoms: O_24  and  C_25
REMARK                            x       y       z     vdW  Elec       q    Type
REMARK                         _______ _______ _______ _____ _____    ______ ____
ROOT
ATOM      1  C   LIG A   1      -9.272   4.047 131.792  0.00  0.00    +0.211 A 
ATOM      2  C   LIG A   1      -9.663   4.404 130.546  0.00  0.00    +0.181 A 
ATOM      3  O   LIG A   1      -9.460   3.660 129.398  0.00  0.00    -0.451 OA
ATOM      4  C   LIG A   1      -8.801   2.463 129.498  0.00  0.00    +0.146 A 
ATOM      5  C   LIG A   1      -8.333   1.962 130.706  0.00  0.00    +0.109 A 
ATOM      6  C   LIG A   1      -8.567   2.740 131.925  0.00  0.00    +0.238 A 
ATOM      7  O   LIG A   1      -8.180   2.274 133.003  0.00  0.00    -0.283 OA
ATOM      8  C   LIG A   1      -7.655   0.737 130.731  0.00  0.00    +0.135 A 
ATOM      9  C   LIG A   1      -7.455   0.013 129.558  0.00  0.00    +0.092 A 
ATOM     10  C   LIG A   1      -7.944   0.505 128.348  0.00  0.00    +0.127 A 
ATOM     11  C   LIG A   1      -8.605   1.739 128.320  0.00  0.00    +0.092 A 
ENDROOT
BRANCH   2  12
ATOM     12  C   LIG A   1     -10.418   5.645 130.295  0.00  0.00    +0.025 A 
ATOM     13  C   LIG A   1     -11.605   5.882 130.996  0.00  0.00    +0.060 A 
ATOM     14  C   LIG A   1     -12.325   7.065 130.801  0.00  0.00    +0.159 A 
ATOM     15  C   LIG A   1     -11.877   8.035 129.897  0.00  0.00    +0.161 A 
ATOM     16  C   LIG A   1     -10.695   7.791 129.186  0.00  0.00    +0.050 A 
ATOM     17  C   LIG A   1      -9.974   6.603 129.374  0.00  0.00    +0.015 A 
BRANCH  14  18
ATOM     18  O   LIG A   1     -13.460   7.251 131.539  0.00  0.00    -0.503 OA
ATOM     19  H   LIG A   1     -13.504   8.173 131.836  0.00  0.00    +0.292 HD
ENDBRANCH  14  18
BRANCH  15  20
ATOM     20  O   LIG A   1     -12.462   9.250 129.645  0.00  0.00    -0.491 OA
ATOM     21  C   LIG A   1     -13.365   9.292 128.544  0.00  0.00    +0.277 C 
ENDBRANCH  15  20
ENDBRANCH   2  12
BRANCH   1  22
ATOM     22  O   LIG A   1      -9.579   4.846 132.884  0.00  0.00    -0.488 OA
ATOM     23  C   LIG A   1      -8.540   5.701 133.356  0.00  0.00    +0.277 C 
ENDBRANCH   1  22
BRANCH   8  24
ATOM     24  O   LIG A   1      -7.151   0.184 131.880  0.00  0.00    -0.506 OA
ATOM     25  H   LIG A   1      -6.182   0.065 131.762  0.00  0.00    +0.292 HD
ENDBRANCH   8  24
BRANCH  10  26
ATOM     26  O   LIG A   1      -7.786  -0.104 127.134  0.00  0.00    -0.495 OA
ATOM     27  C   LIG A   1      -7.842  -1.528 127.150  0.00  0.00    +0.277 C 
ENDBRANCH  10  26
TORSDOF 6
ENDMDL
MODEL 9
REMARK VINA RESULT:      -6.4      5.242      8.304
REMARK  Name = NuBBE_1865
REMARK  9 active torsions:
REMARK  status: ('A' for Active; 'I' for Inactive)
REMARK    1  A    between atoms: O_1  and  C_2
REMARK    2  A    between atoms: O_1  and  C_3
REMARK    3  A    between atoms: C_4  and  C_17
REMARK    4  A    between atoms: C_10  and  O_11
REMARK    5  A    between atoms: C_13  and  O_15
REMARK    6  A    between atoms: O_15  and  C_16
REMARK    7  A    between atoms: C_19  and  O_20
REMARK    8  A    between atoms: C_21  and  O_24
REMARK    9  A    between atoms: O_24  and  C_25
REMARK                            x       y       z     vdW  Elec       q    Type
REMARK                         _______ _______ _______ _____ _____    ______ ____
ROOT
ATOM      1  C   LIG A   1      -8.313   4.122 130.540  0.00  0.00    +0.211 A 
ATOM      2  C   LIG A   1      -7.983   4.602 129.319  0.00  0.00    +0.181 A 
ATOM      3  O   LIG A   1      -8.659   5.600 128.639  0.00  0.00    -0.451 OA
ATOM      4  C   LIG A   1      -9.763   6.162 129.224  0.00  0.00    +0.146 A 
ATOM      5  C   LIG A   1     -10.230   5.774 130.473  0.00  0.00    +0.109 A 
ATOM      6  C   LIG A   1      -9.503   4.731 131.201  0.00  0.00    +0.238 A 
ATOM      7  O   LIG A   1      -9.902   4.414 132.328  0.00  0.00    -0.283 OA
ATOM      8  C   LIG A   1     -11.375   6.383 131.003  0.00  0.00    +0.135 A 
ATOM      9  C   LIG A   1     -12.041   7.379 130.293  0.00  0.00    +0.092 A 
ATOM     10  C   LIG A   1     -11.560   7.783 129.049  0.00  0.00    +0.127 A 
ATOM     11  C   LIG A   1     -10.427   7.162 128.510  0.00  0.00    +0.092 A 
ENDROOT
BRANCH   2  12
ATOM     12  C   LIG A   1      -6.795   4.120 128.590  0.00  0.00    +0.025 A 
ATOM     13  C   LIG A   1      -6.946   3.147 127.596  0.00  0.00    +0.060 A 
ATOM     14  C   LIG A   1      -5.842   2.695 126.867  0.00  0.00    +0.159 A 
ATOM     15  C   LIG A   1      -4.561   3.200 127.118  0.00  0.00    +0.161 A 
ATOM     16  C   LIG A   1      -4.410   4.165 128.123  0.00  0.00    +0.050 A 
ATOM     17  C   LIG A   1      -5.514   4.616 128.861  0.00  0.00    +0.015 A 
BRANCH  14  18
ATOM     18  O   LIG A   1      -6.060   1.767 125.887  0.00  0.00    -0.503 OA
ATOM     19  H   LIG A   1      -5.519   0.981 126.062  0.00  0.00    +0.292 HD
ENDBRANCH  14  18
BRANCH  15  20
ATOM     20  O   LIG A   1      -3.408   2.876 126.451  0.00  0.00    -0.491 OA
ATOM     21  C   LIG A   1      -2.218   3.503 126.920  0.00  0.00    +0.277 C 
ENDBRANCH  15  20
ENDBRANCH   2  12
BRANCH   1  22
ATOM     22  O   LIG A   1      -7.530   3.155 131.154  0.00  0.00    -0.488 OA
ATOM     23  C   LIG A   1      -8.002   1.812 131.074  0.00  0.00    +0.277 C 
ENDBRANCH   1  22
BRANCH   8  24
ATOM     24  O   LIG A   1     -11.906   6.045 132.221  0.00  0.00    -0.506 OA
ATOM     25  H   LIG A   1     -11.172   5.742 132.801  0.00  0.00    +0.292 HD
ENDBRANCH   8  24
BRANCH  10  26
ATOM     26  O   LIG A   1     -12.143   8.730 128.254  0.00  0.00    -0.495 OA
ATOM     27  C   LIG A   1     -13.152   9.520 128.878  0.00  0.00    +0.277 C 
ENDBRANCH  10  26
TORSDOF 6
ENDMDL
