MODEL 1
REMARK VINA RESULT:      -5.9      0.000      0.000
REMARK  Name = NuBBE_275
REMARK  8 active torsions:
REMARK  status: ('A' for Active; 'I' for Inactive)
REMARK    1  A    between atoms: C_1  and  C_2
REMARK    2  A    between atoms: C_3  and  O_4
REMARK    3  A    between atoms: C_6  and  O_7
REMARK    4  A    between atoms: C_8  and  C_9
REMARK    5  A    between atoms: C_9  and  O_10
REMARK    6  A    between atoms: O_10  and  C_11
REMARK    7  A    between atoms: C_11  and  C_12
REMARK    8  A    between atoms: C_14  and  C_15
REMARK                            x       y       z     vdW  Elec       q    Type
REMARK                         _______ _______ _______ _____ _____    ______ ____
ROOT
ATOM      1  C   LIG A   1     -13.061   8.421 131.219  0.00  0.00    +0.048 C 
ATOM      2  C   LIG A   1     -12.160   7.991 130.087  0.00  0.00    -0.005 A 
ATOM      3  C   LIG A   1     -12.197   8.602 128.823  0.00  0.00    +0.123 A 
ATOM      4  C   LIG A   1     -11.392   8.157 127.775  0.00  0.00    +0.091 A 
ATOM      5  C   LIG A   1     -10.529   7.087 127.968  0.00  0.00    +0.135 A 
ATOM      6  C   LIG A   1     -10.431   6.477 129.224  0.00  0.00    +0.104 A 
ATOM      7  C   LIG A   1     -11.234   6.930 130.303  0.00  0.00    -0.027 A 
ATOM      8  C   LIG A   1     -11.144   6.286 131.671  0.00  0.00    +0.045 C 
ENDROOT
BRANCH   3   9
ATOM      9  O   LIG A   1     -13.003   9.657 128.500  0.00  0.00    -0.506 OA
ATOM     10  H   LIG A   1     -12.561  10.246 127.873  0.00  0.00    +0.292 HD
ENDBRANCH   3   9
BRANCH   5  11
ATOM     11  O   LIG A   1      -9.791   6.629 126.909  0.00  0.00    -0.506 OA
ATOM     12  H   LIG A   1      -9.044   6.105 127.241  0.00  0.00    +0.292 HD
ENDBRANCH   5  11
BRANCH   6  13
ATOM     13  C   LIG A   1      -9.465   5.369 129.418  0.00  0.00    +0.343 C 
ATOM     14  O   LIG A   1      -9.775   4.210 129.615  0.00  0.00    -0.245 OA
BRANCH  13  15
ATOM     15  O   LIG A   1      -8.219   5.907 129.512  0.00  0.00    -0.461 OA
BRANCH  15  16
ATOM     16  C   LIG A   1      -7.416   5.414 130.588  0.00  0.00    +0.229 C 
ATOM     17  C   LIG A   1      -7.329   6.480 131.664  0.00  0.00    +0.048 C 
ENDBRANCH  15  16
ENDBRANCH  13  15
ENDBRANCH   6  13
TORSDOF 5
ENDMDL
MODEL 2
REMARK VINA RESULT:      -5.7      7.872      9.530
REMARK  Name = NuBBE_275
REMARK  8 active torsions:
REMARK  status: ('A' for Active; 'I' for Inactive)
REMARK    1  A    between atoms: C_1  and  C_2
REMARK    2  A    between atoms: C_3  and  O_4
REMARK    3  A    between atoms: C_6  and  O_7
REMARK    4  A    between atoms: C_8  and  C_9
REMARK    5  A    between atoms: C_9  and  O_10
REMARK    6  A    between atoms: O_10  and  C_11
REMARK    7  A    between atoms: C_11  and  C_12
REMARK    8  A    between atoms: C_14  and  C_15
REMARK                            x       y       z     vdW  Elec       q    Type
REMARK                         _______ _______ _______ _____ _____    ______ ____
ROOT
ATOM      1  C   LIG A   1      -6.075   2.236 125.150  0.00  0.00    +0.048 C 
ATOM      2  C   LIG A   1      -7.274   1.735 124.382  0.00  0.00    -0.005 A 
ATOM      3  C   LIG A   1      -8.281   2.594 123.912  0.00  0.00    +0.123 A 
ATOM      4  C   LIG A   1      -9.406   2.106 123.250  0.00  0.00    +0.091 A 
ATOM      5  C   LIG A   1      -9.551   0.741 123.040  0.00  0.00    +0.135 A 
ATOM      6  C   LIG A   1      -8.551  -0.146 123.454  0.00  0.00    +0.104 A 
ATOM      7  C   LIG A   1      -7.394   0.340 124.118  0.00  0.00    -0.027 A 
ATOM      8  C   LIG A   1      -6.300  -0.603 124.574  0.00  0.00    +0.045 C 
ENDROOT
BRANCH   3   9
ATOM      9  O   LIG A   1      -8.263   3.953 124.058  0.00  0.00    -0.506 OA
ATOM     10  H   LIG A   1      -8.336   4.390 123.198  0.00  0.00    +0.292 HD
ENDBRANCH   3   9
BRANCH   5  11
ATOM     11  O   LIG A   1     -10.691   0.279 122.439  0.00  0.00    -0.506 OA
ATOM     12  H   LIG A   1     -10.719  -0.690 122.505  0.00  0.00    +0.292 HD
ENDBRANCH   5  11
BRANCH   6  13
ATOM     13  C   LIG A   1      -8.706  -1.594 123.174  0.00  0.00    +0.343 C 
ATOM     14  O   LIG A   1      -8.186  -2.176 122.241  0.00  0.00    -0.245 OA
BRANCH  13  15
ATOM     15  O   LIG A   1      -9.648  -2.090 124.020  0.00  0.00    -0.461 OA
BRANCH  15  16
ATOM     16  C   LIG A   1      -9.216  -3.162 124.863  0.00  0.00    +0.229 C 
ATOM     17  C   LIG A   1      -9.011  -2.632 126.269  0.00  0.00    +0.048 C 
ENDBRANCH  15  16
ENDBRANCH  13  15
ENDBRANCH   6  13
TORSDOF 5
ENDMDL
MODEL 3
REMARK VINA RESULT:      -5.5      8.021      9.977
REMARK  Name = NuBBE_275
REMARK  8 active torsions:
REMARK  status: ('A' for Active; 'I' for Inactive)
REMARK    1  A    between atoms: C_1  and  C_2
REMARK    2  A    between atoms: C_3  and  O_4
REMARK    3  A    between atoms: C_6  and  O_7
REMARK    4  A    between atoms: C_8  and  C_9
REMARK    5  A    between atoms: C_9  and  O_10
REMARK    6  A    between atoms: O_10  and  C_11
REMARK    7  A    between atoms: C_11  and  C_12
REMARK    8  A    between atoms: C_14  and  C_15
REMARK                            x       y       z     vdW  Elec       q    Type
REMARK                         _______ _______ _______ _____ _____    ______ ____
ROOT
ATOM      1  C   LIG A   1      -7.444   4.536 118.519  0.00  0.00    +0.048 C 
ATOM      2  C   LIG A   1      -6.915   4.349 119.919  0.00  0.00    -0.005 A 
ATOM      3  C   LIG A   1      -5.612   4.722 120.288  0.00  0.00    +0.123 A 
ATOM      4  C   LIG A   1      -5.125   4.495 121.574  0.00  0.00    +0.091 A 
ATOM      5  C   LIG A   1      -5.933   3.887 122.526  0.00  0.00    +0.135 A 
ATOM      6  C   LIG A   1      -7.252   3.539 122.213  0.00  0.00    +0.104 A 
ATOM      7  C   LIG A   1      -7.765   3.778 120.910  0.00  0.00    -0.027 A 
ATOM      8  C   LIG A   1      -9.188   3.410 120.550  0.00  0.00    +0.045 C 
ENDROOT
BRANCH   3   9
ATOM      9  O   LIG A   1      -4.716   5.321 119.448  0.00  0.00    -0.506 OA
ATOM     10  H   LIG A   1      -3.808   5.119 119.715  0.00  0.00    +0.292 HD
ENDBRANCH   3   9
BRANCH   5  11
ATOM     11  O   LIG A   1      -5.415   3.621 123.765  0.00  0.00    -0.506 OA
ATOM     12  H   LIG A   1      -5.738   4.284 124.397  0.00  0.00    +0.292 HD
ENDBRANCH   5  11
BRANCH   6  13
ATOM     13  C   LIG A   1      -8.111   2.938 123.261  0.00  0.00    +0.343 C 
ATOM     14  O   LIG A   1      -8.587   3.550 124.199  0.00  0.00    -0.245 OA
BRANCH  13  15
ATOM     15  O   LIG A   1      -8.116   1.590 123.081  0.00  0.00    -0.461 OA
BRANCH  15  16
ATOM     16  C   LIG A   1      -9.236   0.898 123.641  0.00  0.00    +0.229 C 
ATOM     17  C   LIG A   1     -10.176   0.497 122.520  0.00  0.00    +0.048 C 
ENDBRANCH  15  16
ENDBRANCH  13  15
ENDBRANCH   6  13
TORSDOF 5
ENDMDL
MODEL 4
REMARK VINA RESULT:      -5.4      8.065      9.745
REMARK  Name = NuBBE_275
REMARK  8 active torsions:
REMARK  status: ('A' for Active; 'I' for Inactive)
REMARK    1  A    between atoms: C_1  and  C_2
REMARK    2  A    between atoms: C_3  and  O_4
REMARK    3  A    between atoms: C_6  and  O_7
REMARK    4  A    between atoms: C_8  and  C_9
REMARK    5  A    between atoms: C_9  and  O_10
REMARK    6  A    between atoms: O_10  and  C_11
REMARK    7  A    between atoms: C_11  and  C_12
REMARK    8  A    between atoms: C_14  and  C_15
REMARK                            x       y       z     vdW  Elec       q    Type
REMARK                         _______ _______ _______ _____ _____    ______ ____
ROOT
ATOM      1  C   LIG A   1      -4.080   4.942 121.725  0.00  0.00    +0.048 C 
ATOM      2  C   LIG A   1      -5.463   4.471 121.350  0.00  0.00    -0.005 A 
ATOM      3  C   LIG A   1      -5.996   4.645 120.062  0.00  0.00    +0.123 A 
ATOM      4  C   LIG A   1      -7.295   4.249 119.750  0.00  0.00    +0.091 A 
ATOM      5  C   LIG A   1      -8.096   3.665 120.722  0.00  0.00    +0.135 A 
ATOM      6  C   LIG A   1      -7.590   3.434 122.007  0.00  0.00    +0.104 A 
ATOM      7  C   LIG A   1      -6.264   3.821 122.334  0.00  0.00    -0.027 A 
ATOM      8  C   LIG A   1      -5.697   3.580 123.717  0.00  0.00    +0.045 C 
ENDROOT
BRANCH   3   9
ATOM      9  O   LIG A   1      -5.317   5.209 119.018  0.00  0.00    -0.506 OA
ATOM     10  H   LIG A   1      -4.473   4.759 118.876  0.00  0.00    +0.292 HD
ENDBRANCH   3   9
BRANCH   5  11
ATOM     11  O   LIG A   1      -9.388   3.337 120.410  0.00  0.00    -0.506 OA
ATOM     12  H   LIG A   1      -9.595   3.662 119.518  0.00  0.00    +0.292 HD
ENDBRANCH   5  11
BRANCH   6  13
ATOM     13  C   LIG A   1      -8.448   2.764 123.014  0.00  0.00    +0.343 C 
ATOM     14  O   LIG A   1      -8.910   3.308 123.999  0.00  0.00    -0.245 OA
BRANCH  13  15
ATOM     15  O   LIG A   1      -8.469   1.434 122.733  0.00  0.00    -0.461 OA
BRANCH  15  16
ATOM     16  C   LIG A   1      -8.383   0.564 123.865  0.00  0.00    +0.229 C 
ATOM     17  C   LIG A   1      -7.004  -0.068 123.896  0.00  0.00    +0.048 C 
ENDBRANCH  15  16
ENDBRANCH  13  15
ENDBRANCH   6  13
TORSDOF 5
ENDMDL
MODEL 5
REMARK VINA RESULT:      -5.3      8.214      9.859
REMARK  Name = NuBBE_275
REMARK  8 active torsions:
REMARK  status: ('A' for Active; 'I' for Inactive)
REMARK    1  A    between atoms: C_1  and  C_2
REMARK    2  A    between atoms: C_3  and  O_4
REMARK    3  A    between atoms: C_6  and  O_7
REMARK    4  A    between atoms: C_8  and  C_9
REMARK    5  A    between atoms: C_9  and  O_10
REMARK    6  A    between atoms: O_10  and  C_11
REMARK    7  A    between atoms: C_11  and  C_12
REMARK    8  A    between atoms: C_14  and  C_15
REMARK                            x       y       z     vdW  Elec       q    Type
REMARK                         _______ _______ _______ _____ _____    ______ ____
ROOT
ATOM      1  C   LIG A   1      -8.468   4.330 118.601  0.00  0.00    +0.048 C 
ATOM      2  C   LIG A   1      -7.293   4.450 119.540  0.00  0.00    -0.005 A 
ATOM      3  C   LIG A   1      -6.103   5.104 119.179  0.00  0.00    +0.123 A 
ATOM      4  C   LIG A   1      -5.011   5.160 120.043  0.00  0.00    +0.091 A 
ATOM      5  C   LIG A   1      -5.083   4.562 121.294  0.00  0.00    +0.135 A 
ATOM      6  C   LIG A   1      -6.265   3.937 121.710  0.00  0.00    +0.104 A 
ATOM      7  C   LIG A   1      -7.389   3.886 120.845  0.00  0.00    -0.027 A 
ATOM      8  C   LIG A   1      -8.677   3.215 121.274  0.00  0.00    +0.045 C 
ENDROOT
BRANCH   3   9
ATOM      9  O   LIG A   1      -5.900   5.727 117.980  0.00  0.00    -0.506 OA
ATOM     10  H   LIG A   1      -6.739   5.860 117.517  0.00  0.00    +0.292 HD
ENDBRANCH   3   9
BRANCH   5  11
ATOM     11  O   LIG A   1      -3.979   4.579 122.103  0.00  0.00    -0.506 OA
ATOM     12  H   LIG A   1      -3.504   5.418 121.981  0.00  0.00    +0.292 HD
ENDBRANCH   5  11
BRANCH   6  13
ATOM     13  C   LIG A   1      -6.334   3.350 123.070  0.00  0.00    +0.343 C 
ATOM     14  O   LIG A   1      -6.610   2.189 123.307  0.00  0.00    -0.245 OA
BRANCH  13  15
ATOM     15  O   LIG A   1      -6.212   4.359 123.973  0.00  0.00    -0.461 OA
BRANCH  15  16
ATOM     16  C   LIG A   1      -6.071   3.952 125.337  0.00  0.00    +0.229 C 
ATOM     17  C   LIG A   1      -4.599   3.956 125.702  0.00  0.00    +0.048 C 
ENDBRANCH  15  16
ENDBRANCH  13  15
ENDBRANCH   6  13
TORSDOF 5
ENDMDL
MODEL 6
REMARK VINA RESULT:      -5.2      6.293      8.070
REMARK  Name = NuBBE_275
REMARK  8 active torsions:
REMARK  status: ('A' for Active; 'I' for Inactive)
REMARK    1  A    between atoms: C_1  and  C_2
REMARK    2  A    between atoms: C_3  and  O_4
REMARK    3  A    between atoms: C_6  and  O_7
REMARK    4  A    between atoms: C_8  and  C_9
REMARK    5  A    between atoms: C_9  and  O_10
REMARK    6  A    between atoms: O_10  and  C_11
REMARK    7  A    between atoms: C_11  and  C_12
REMARK    8  A    between atoms: C_14  and  C_15
REMARK                            x       y       z     vdW  Elec       q    Type
REMARK                         _______ _______ _______ _____ _____    ______ ____
ROOT
ATOM      1  C   LIG A   1      -9.139  -1.131 125.752  0.00  0.00    +0.048 C 
ATOM      2  C   LIG A   1      -9.077   0.119 124.910  0.00  0.00    -0.005 A 
ATOM      3  C   LIG A   1      -9.412   0.126 123.546  0.00  0.00    +0.123 A 
ATOM      4  C   LIG A   1      -9.299   1.281 122.773  0.00  0.00    +0.091 A 
ATOM      5  C   LIG A   1      -8.846   2.460 123.348  0.00  0.00    +0.135 A 
ATOM      6  C   LIG A   1      -8.542   2.508 124.714  0.00  0.00    +0.104 A 
ATOM      7  C   LIG A   1      -8.666   1.342 125.515  0.00  0.00    -0.027 A 
ATOM      8  C   LIG A   1      -8.342   1.371 126.994  0.00  0.00    +0.045 C 
ENDROOT
BRANCH   3   9
ATOM      9  O   LIG A   1      -9.864  -0.965 122.859  0.00  0.00    -0.506 OA
ATOM     10  H   LIG A   1     -10.829  -1.021 122.901  0.00  0.00    +0.292 HD
ENDBRANCH   3   9
BRANCH   5  11
ATOM     11  O   LIG A   1      -8.687   3.567 122.558  0.00  0.00    -0.506 OA
ATOM     12  H   LIG A   1      -8.290   3.302 121.711  0.00  0.00    +0.292 HD
ENDBRANCH   5  11
BRANCH   6  13
ATOM     13  C   LIG A   1      -8.108   3.792 125.315  0.00  0.00    +0.343 C 
ATOM     14  O   LIG A   1      -8.845   4.732 125.541  0.00  0.00    -0.245 OA
BRANCH  13  15
ATOM     15  O   LIG A   1      -6.750   3.784 125.395  0.00  0.00    -0.461 OA
BRANCH  15  16
ATOM     16  C   LIG A   1      -6.089   4.871 124.741  0.00  0.00    +0.229 C 
ATOM     17  C   LIG A   1      -5.446   4.361 123.465  0.00  0.00    +0.048 C 
ENDBRANCH  15  16
ENDBRANCH  13  15
ENDBRANCH   6  13
TORSDOF 5
ENDMDL
MODEL 7
REMARK VINA RESULT:      -5.2      9.688     11.179
REMARK  Name = NuBBE_275
REMARK  8 active torsions:
REMARK  status: ('A' for Active; 'I' for Inactive)
REMARK    1  A    between atoms: C_1  and  C_2
REMARK    2  A    between atoms: C_3  and  O_4
REMARK    3  A    between atoms: C_6  and  O_7
REMARK    4  A    between atoms: C_8  and  C_9
REMARK    5  A    between atoms: C_9  and  O_10
REMARK    6  A    between atoms: O_10  and  C_11
REMARK    7  A    between atoms: C_11  and  C_12
REMARK    8  A    between atoms: C_14  and  C_15
REMARK                            x       y       z     vdW  Elec       q    Type
REMARK                         _______ _______ _______ _____ _____    ______ ____
ROOT
ATOM      1  C   LIG A   1      -9.158  -3.980 127.848  0.00  0.00    +0.048 C 
ATOM      2  C   LIG A   1      -8.021  -3.020 127.592  0.00  0.00    -0.005 A 
ATOM      3  C   LIG A   1      -7.365  -2.335 128.628  0.00  0.00    +0.123 A 
ATOM      4  C   LIG A   1      -6.352  -1.415 128.367  0.00  0.00    +0.091 A 
ATOM      5  C   LIG A   1      -5.968  -1.157 127.058  0.00  0.00    +0.135 A 
ATOM      6  C   LIG A   1      -6.566  -1.850 125.998  0.00  0.00    +0.104 A 
ATOM      7  C   LIG A   1      -7.590  -2.800 126.252  0.00  0.00    -0.027 A 
ATOM      8  C   LIG A   1      -8.250  -3.560 125.121  0.00  0.00    +0.045 C 
ENDROOT
BRANCH   3   9
ATOM      9  O   LIG A   1      -7.650  -2.492 129.955  0.00  0.00    -0.506 OA
ATOM     10  H   LIG A   1      -7.861  -3.415 130.153  0.00  0.00    +0.292 HD
ENDBRANCH   3   9
BRANCH   5  11
ATOM     11  O   LIG A   1      -5.011  -0.207 126.821  0.00  0.00    -0.506 OA
ATOM     12  H   LIG A   1      -4.183  -0.470 127.257  0.00  0.00    +0.292 HD
ENDBRANCH   5  11
BRANCH   6  13
ATOM     13  C   LIG A   1      -6.103  -1.594 124.612  0.00  0.00    +0.343 C 
ATOM     14  O   LIG A   1      -6.732  -0.970 123.779  0.00  0.00    -0.245 OA
BRANCH  13  15
ATOM     15  O   LIG A   1      -4.969  -2.316 124.406  0.00  0.00    -0.461 OA
BRANCH  15  16
ATOM     16  C   LIG A   1      -4.998  -3.197 123.279  0.00  0.00    +0.229 C 
ATOM     17  C   LIG A   1      -4.374  -4.521 123.673  0.00  0.00    +0.048 C 
ENDBRANCH  15  16
ENDBRANCH  13  15
ENDBRANCH   6  13
TORSDOF 5
ENDMDL
MODEL 8
REMARK VINA RESULT:      -5.1      8.161      9.242
REMARK  Name = NuBBE_275
REMARK  8 active torsions:
REMARK  status: ('A' for Active; 'I' for Inactive)
REMARK    1  A    between atoms: C_1  and  C_2
REMARK    2  A    between atoms: C_3  and  O_4
REMARK    3  A    between atoms: C_6  and  O_7
REMARK    4  A    between atoms: C_8  and  C_9
REMARK    5  A    between atoms: C_9  and  O_10
REMARK    6  A    between atoms: O_10  and  C_11
REMARK    7  A    between atoms: C_11  and  C_12
REMARK    8  A    between atoms: C_14  and  C_15
REMARK                            x       y       z     vdW  Elec       q    Type
REMARK                         _______ _______ _______ _____ _____    ______ ____
ROOT
ATOM      1  C   LIG A   1      -8.703   3.368 121.368  0.00  0.00    +0.048 C 
ATOM      2  C   LIG A   1      -8.164   2.730 122.625  0.00  0.00    -0.005 A 
ATOM      3  C   LIG A   1      -7.029   3.220 123.291  0.00  0.00    +0.123 A 
ATOM      4  C   LIG A   1      -6.517   2.586 124.422  0.00  0.00    +0.091 A 
ATOM      5  C   LIG A   1      -7.131   1.443 124.916  0.00  0.00    +0.135 A 
ATOM      6  C   LIG A   1      -8.289   0.945 124.307  0.00  0.00    +0.104 A 
ATOM      7  C   LIG A   1      -8.829   1.590 123.163  0.00  0.00    -0.027 A 
ATOM      8  C   LIG A   1     -10.081   1.070 122.489  0.00  0.00    +0.045 C 
ENDROOT
BRANCH   3   9
ATOM      9  O   LIG A   1      -6.330   4.330 122.907  0.00  0.00    -0.506 OA
ATOM     10  H   LIG A   1      -6.542   4.570 121.995  0.00  0.00    +0.292 HD
ENDBRANCH   3   9
BRANCH   5  11
ATOM     11  O   LIG A   1      -6.577   0.804 125.992  0.00  0.00    -0.506 OA
ATOM     12  H   LIG A   1      -7.276   0.345 126.488  0.00  0.00    +0.292 HD
ENDBRANCH   5  11
BRANCH   6  13
ATOM     13  C   LIG A   1      -8.955  -0.248 124.882  0.00  0.00    +0.343 C 
ATOM     14  O   LIG A   1      -9.919  -0.210 125.623  0.00  0.00    -0.245 OA
BRANCH  13  15
ATOM     15  O   LIG A   1      -8.201  -1.339 124.581  0.00  0.00    -0.461 OA
BRANCH  15  16
ATOM     16  C   LIG A   1      -8.852  -2.602 124.747  0.00  0.00    +0.229 C 
ATOM     17  C   LIG A   1      -9.373  -3.067 123.400  0.00  0.00    +0.048 C 
ENDBRANCH  15  16
ENDBRANCH  13  15
ENDBRANCH   6  13
TORSDOF 5
ENDMDL
MODEL 9
REMARK VINA RESULT:      -4.9      9.911     10.936
REMARK  Name = NuBBE_275
REMARK  8 active torsions:
REMARK  status: ('A' for Active; 'I' for Inactive)
REMARK    1  A    between atoms: C_1  and  C_2
REMARK    2  A    between atoms: C_3  and  O_4
REMARK    3  A    between atoms: C_6  and  O_7
REMARK    4  A    between atoms: C_8  and  C_9
REMARK    5  A    between atoms: C_9  and  O_10
REMARK    6  A    between atoms: O_10  and  C_11
REMARK    7  A    between atoms: C_11  and  C_12
REMARK    8  A    between atoms: C_14  and  C_15
REMARK                            x       y       z     vdW  Elec       q    Type
REMARK                         _______ _______ _______ _____ _____    ______ ____
ROOT
ATOM      1  C   LIG A   1      -8.791  -3.648 124.291  0.00  0.00    +0.048 C 
ATOM      2  C   LIG A   1      -7.791  -2.881 125.121  0.00  0.00    -0.005 A 
ATOM      3  C   LIG A   1      -6.738  -2.150 124.546  0.00  0.00    +0.123 A 
ATOM      4  C   LIG A   1      -5.794  -1.490 125.331  0.00  0.00    +0.091 A 
ATOM      5  C   LIG A   1      -5.882  -1.545 126.716  0.00  0.00    +0.135 A 
ATOM      6  C   LIG A   1      -6.940  -2.227 127.329  0.00  0.00    +0.104 A 
ATOM      7  C   LIG A   1      -7.915  -2.892 126.540  0.00  0.00    -0.027 A 
ATOM      8  C   LIG A   1      -9.067  -3.635 127.182  0.00  0.00    +0.045 C 
ENDROOT
BRANCH   3   9
ATOM      9  O   LIG A   1      -6.535  -2.021 123.200  0.00  0.00    -0.506 OA
ATOM     10  H   LIG A   1      -7.339  -1.712 122.761  0.00  0.00    +0.292 HD
ENDBRANCH   3   9
BRANCH   5  11
ATOM     11  O   LIG A   1      -4.911  -0.939 127.467  0.00  0.00    -0.506 OA
ATOM     12  H   LIG A   1      -4.072  -0.950 126.977  0.00  0.00    +0.292 HD
ENDBRANCH   5  11
BRANCH   6  13
ATOM     13  C   LIG A   1      -7.039  -2.229 128.808  0.00  0.00    +0.343 C 
ATOM     14  O   LIG A   1      -7.732  -1.467 129.455  0.00  0.00    -0.245 OA
BRANCH  13  15
ATOM     15  O   LIG A   1      -6.106  -3.092 129.293  0.00  0.00    -0.461 OA
BRANCH  15  16
ATOM     16  C   LIG A   1      -6.425  -3.701 130.548  0.00  0.00    +0.229 C 
ATOM     17  C   LIG A   1      -5.569  -4.941 130.724  0.00  0.00    +0.048 C 
ENDBRANCH  15  16
ENDBRANCH  13  15
ENDBRANCH   6  13
TORSDOF 5
ENDMDL
