MODEL 1
REMARK VINA RESULT:      -7.2      0.000      0.000
REMARK  Name = NuBBE_1474
REMARK  8 active torsions:
REMARK  status: ('A' for Active; 'I' for Inactive)
REMARK    1  A    between atoms: O_1  and  C_2
REMARK    2  A    between atoms: C_3  and  O_4
REMARK    3  A    between atoms: O_4  and  C_5
REMARK    4  A    between atoms: C_6  and  O_7
REMARK    5  A    between atoms: O_7  and  C_8
REMARK    6  A    between atoms: C_9  and  O_22
REMARK    7  A    between atoms: C_17  and  O_18
REMARK    8  A    between atoms: O_22  and  C_23
REMARK                            x       y       z     vdW  Elec       q    Type
REMARK                         _______ _______ _______ _____ _____    ______ ____
ROOT
ATOM      1  C   LIG A   1      -6.090   3.237 124.651  0.00  0.00    +0.175 A 
ATOM      2  C   LIG A   1      -6.914   2.603 125.604  0.00  0.00    +0.208 A 
ATOM      3  C   LIG A   1      -8.225   2.217 125.248  0.00  0.00    +0.209 A 
ATOM      4  C   LIG A   1      -8.676   2.426 123.928  0.00  0.00    +0.190 A 
ATOM      5  C   LIG A   1      -7.854   3.088 122.993  0.00  0.00    +0.100 A 
ATOM      6  C   LIG A   1      -6.548   3.460 123.346  0.00  0.00    +0.094 A 
ATOM      7  C   LIG A   1      -5.679   4.091 122.311  0.00  0.00    +0.201 A 
ATOM      8  C   LIG A   1      -6.233   4.347 120.956  0.00  0.00    +0.049 A 
ATOM      9  C   LIG A   1      -5.458   4.963 119.964  0.00  0.00    +0.014 A 
ATOM     10  C   LIG A   1      -6.012   5.208 118.706  0.00  0.00    +0.004 A 
ATOM     11  C   LIG A   1      -7.331   4.835 118.435  0.00  0.00    +0.047 A 
ATOM     12  C   LIG A   1      -8.088   4.212 119.427  0.00  0.00    +0.141 A 
ATOM     13  C   LIG A   1      -7.555   3.972 120.698  0.00  0.00    +0.093 A 
ATOM     14  N   LIG A   1      -8.297   3.295 121.674  0.00  0.00    -0.348 N 
ATOM     15  O   LIG A   1      -4.526   4.396 122.583  0.00  0.00    -0.286 OA
ATOM     16  H   LIG A   1      -9.294   3.205 121.502  0.00  0.00    +0.166 HD
ENDROOT
BRANCH   1  17
ATOM     17  O   LIG A   1      -4.823   3.614 125.034  0.00  0.00    -0.503 OA
ATOM     18  H   LIG A   1      -4.893   4.417 125.598  0.00  0.00    +0.292 HD
ENDBRANCH   1  17
BRANCH   2  19
ATOM     19  O   LIG A   1      -6.347   2.485 126.850  0.00  0.00    -0.488 OA
ATOM     20  C   LIG A   1      -6.711   3.432 127.841  0.00  0.00    +0.277 C 
ENDBRANCH   2  19
BRANCH   3  21
ATOM     21  O   LIG A   1      -9.013   1.573 126.169  0.00  0.00    -0.488 OA
ATOM     22  C   LIG A   1      -8.798   0.163 126.223  0.00  0.00    +0.277 C 
ENDBRANCH   3  21
BRANCH  12  23
ATOM     23  O   LIG A   1      -9.380   3.825 119.185  0.00  0.00    -0.505 OA
ATOM     24  H   LIG A   1      -9.914   4.019 119.972  0.00  0.00    +0.292 HD
ENDBRANCH  12  23
BRANCH   4  25
ATOM     25  O   LIG A   1      -9.936   2.108 123.465  0.00  0.00    -0.489 OA
ATOM     26  C   LIG A   1     -10.064   0.821 122.864  0.00  0.00    +0.277 C 
ENDBRANCH   4  25
TORSDOF 5
ENDMDL
MODEL 2
REMARK VINA RESULT:      -6.8      6.424      8.606
REMARK  Name = NuBBE_1474
REMARK  8 active torsions:
REMARK  status: ('A' for Active; 'I' for Inactive)
REMARK    1  A    between atoms: O_1  and  C_2
REMARK    2  A    between atoms: C_3  and  O_4
REMARK    3  A    between atoms: O_4  and  C_5
REMARK    4  A    between atoms: C_6  and  O_7
REMARK    5  A    between atoms: O_7  and  C_8
REMARK    6  A    between atoms: C_9  and  O_22
REMARK    7  A    between atoms: C_17  and  O_18
REMARK    8  A    between atoms: O_22  and  C_23
REMARK                            x       y       z     vdW  Elec       q    Type
REMARK                         _______ _______ _______ _____ _____    ______ ____
ROOT
ATOM      1  C   LIG A   1      -9.318   4.331 132.386  0.00  0.00    +0.175 A 
ATOM      2  C   LIG A   1      -8.416   3.247 132.332  0.00  0.00    +0.208 A 
ATOM      3  C   LIG A   1      -7.835   2.883 131.098  0.00  0.00    +0.209 A 
ATOM      4  C   LIG A   1      -8.127   3.637 129.943  0.00  0.00    +0.190 A 
ATOM      5  C   LIG A   1      -9.053   4.699 130.003  0.00  0.00    +0.100 A 
ATOM      6  C   LIG A   1      -9.619   5.068 131.233  0.00  0.00    +0.094 A 
ATOM      7  C   LIG A   1     -10.538   6.241 131.275  0.00  0.00    +0.201 A 
ATOM      8  C   LIG A   1     -10.860   6.957 130.012  0.00  0.00    +0.049 A 
ATOM      9  C   LIG A   1     -11.739   8.048 130.006  0.00  0.00    +0.014 A 
ATOM     10  C   LIG A   1     -12.037   8.688 128.800  0.00  0.00    +0.004 A 
ATOM     11  C   LIG A   1     -11.456   8.247 127.609  0.00  0.00    +0.047 A 
ATOM     12  C   LIG A   1     -10.574   7.168 127.631  0.00  0.00    +0.141 A 
ATOM     13  C   LIG A   1     -10.274   6.505 128.826  0.00  0.00    +0.093 A 
ATOM     14  N   LIG A   1      -9.344   5.458 128.856  0.00  0.00    -0.348 N 
ATOM     15  O   LIG A   1     -11.020   6.604 132.340  0.00  0.00    -0.286 OA
ATOM     16  H   LIG A   1      -9.087   5.057 127.958  0.00  0.00    +0.166 HD
ENDROOT
BRANCH   1  17
ATOM     17  O   LIG A   1      -9.878   4.653 133.601  0.00  0.00    -0.503 OA
ATOM     18  H   LIG A   1     -10.298   3.845 133.975  0.00  0.00    +0.292 HD
ENDBRANCH   1  17
BRANCH   2  19
ATOM     19  O   LIG A   1      -8.245   2.596 133.530  0.00  0.00    -0.488 OA
ATOM     20  C   LIG A   1      -7.019   2.780 134.220  0.00  0.00    +0.277 C 
ENDBRANCH   2  19
BRANCH   3  21
ATOM     21  O   LIG A   1      -6.936   1.847 131.055  0.00  0.00    -0.488 OA
ATOM     22  C   LIG A   1      -7.531   0.581 130.771  0.00  0.00    +0.277 C 
ENDBRANCH   3  21
BRANCH  12  23
ATOM     23  O   LIG A   1      -9.980   6.723 126.479  0.00  0.00    -0.505 OA
ATOM     24  H   LIG A   1      -9.224   7.298 126.278  0.00  0.00    +0.292 HD
ENDBRANCH  12  23
BRANCH   4  25
ATOM     25  O   LIG A   1      -7.636   3.371 128.681  0.00  0.00    -0.489 OA
ATOM     26  C   LIG A   1      -6.306   3.819 128.431  0.00  0.00    +0.277 C 
ENDBRANCH   4  25
TORSDOF 5
ENDMDL
MODEL 3
REMARK VINA RESULT:      -6.7      1.272      3.585
REMARK  Name = NuBBE_1474
REMARK  8 active torsions:
REMARK  status: ('A' for Active; 'I' for Inactive)
REMARK    1  A    between atoms: O_1  and  C_2
REMARK    2  A    between atoms: C_3  and  O_4
REMARK    3  A    between atoms: O_4  and  C_5
REMARK    4  A    between atoms: C_6  and  O_7
REMARK    5  A    between atoms: O_7  and  C_8
REMARK    6  A    between atoms: C_9  and  O_22
REMARK    7  A    between atoms: C_17  and  O_18
REMARK    8  A    between atoms: O_22  and  C_23
REMARK                            x       y       z     vdW  Elec       q    Type
REMARK                         _______ _______ _______ _____ _____    ______ ____
ROOT
ATOM      1  C   LIG A   1      -8.697   1.953 123.867  0.00  0.00    +0.175 A 
ATOM      2  C   LIG A   1      -8.363   1.622 125.197  0.00  0.00    +0.208 A 
ATOM      3  C   LIG A   1      -7.131   2.056 125.735  0.00  0.00    +0.209 A 
ATOM      4  C   LIG A   1      -6.273   2.855 124.952  0.00  0.00    +0.190 A 
ATOM      5  C   LIG A   1      -6.605   3.154 123.614  0.00  0.00    +0.100 A 
ATOM      6  C   LIG A   1      -7.835   2.733 123.085  0.00  0.00    +0.094 A 
ATOM      7  C   LIG A   1      -8.188   3.128 121.691  0.00  0.00    +0.201 A 
ATOM      8  C   LIG A   1      -7.214   3.916 120.891  0.00  0.00    +0.049 A 
ATOM      9  C   LIG A   1      -7.496   4.284 119.569  0.00  0.00    +0.014 A 
ATOM     10  C   LIG A   1      -6.553   5.007 118.836  0.00  0.00    +0.004 A 
ATOM     11  C   LIG A   1      -5.336   5.368 119.421  0.00  0.00    +0.047 A 
ATOM     12  C   LIG A   1      -5.072   5.005 120.741  0.00  0.00    +0.141 A 
ATOM     13  C   LIG A   1      -5.998   4.268 121.486  0.00  0.00    +0.093 A 
ATOM     14  N   LIG A   1      -5.756   3.955 122.830  0.00  0.00    -0.348 N 
ATOM     15  O   LIG A   1      -9.267   2.801 121.217  0.00  0.00    -0.286 OA
ATOM     16  H   LIG A   1      -4.802   4.074 123.157  0.00  0.00    +0.166 HD
ENDROOT
BRANCH   1  17
ATOM     17  O   LIG A   1      -9.899   1.503 123.366  0.00  0.00    -0.503 OA
ATOM     18  H   LIG A   1     -10.249   2.178 122.742  0.00  0.00    +0.292 HD
ENDBRANCH   1  17
BRANCH   2  19
ATOM     19  O   LIG A   1      -9.285   0.823 125.829  0.00  0.00    -0.488 OA
ATOM     20  C   LIG A   1      -9.074  -0.579 125.814  0.00  0.00    +0.277 C 
ENDBRANCH   2  19
BRANCH   3  21
ATOM     21  O   LIG A   1      -6.822   1.757 127.038  0.00  0.00    -0.488 OA
ATOM     22  C   LIG A   1      -5.913   0.665 127.178  0.00  0.00    +0.277 C 
ENDBRANCH   3  21
BRANCH  12  23
ATOM     23  O   LIG A   1      -3.892   5.357 121.343  0.00  0.00    -0.505 OA
ATOM     24  H   LIG A   1      -3.456   4.551 121.665  0.00  0.00    +0.292 HD
ENDBRANCH  12  23
BRANCH   4  25
ATOM     25  O   LIG A   1      -5.042   3.325 125.359  0.00  0.00    -0.489 OA
ATOM     26  C   LIG A   1      -5.067   4.501 126.163  0.00  0.00    +0.277 C 
ENDBRANCH   4  25
TORSDOF 5
ENDMDL
MODEL 4
REMARK VINA RESULT:      -6.4      2.761      5.810
REMARK  Name = NuBBE_1474
REMARK  8 active torsions:
REMARK  status: ('A' for Active; 'I' for Inactive)
REMARK    1  A    between atoms: O_1  and  C_2
REMARK    2  A    between atoms: C_3  and  O_4
REMARK    3  A    between atoms: O_4  and  C_5
REMARK    4  A    between atoms: C_6  and  O_7
REMARK    5  A    between atoms: O_7  and  C_8
REMARK    6  A    between atoms: C_9  and  O_22
REMARK    7  A    between atoms: C_17  and  O_18
REMARK    8  A    between atoms: O_22  and  C_23
REMARK                            x       y       z     vdW  Elec       q    Type
REMARK                         _______ _______ _______ _____ _____    ______ ____
ROOT
ATOM      1  C   LIG A   1      -5.245   1.177 126.466  0.00  0.00    +0.175 A 
ATOM      2  C   LIG A   1      -4.955   2.519 126.141  0.00  0.00    +0.208 A 
ATOM      3  C   LIG A   1      -5.598   3.124 125.038  0.00  0.00    +0.209 A 
ATOM      4  C   LIG A   1      -6.557   2.395 124.306  0.00  0.00    +0.190 A 
ATOM      5  C   LIG A   1      -6.815   1.044 124.622  0.00  0.00    +0.100 A 
ATOM      6  C   LIG A   1      -6.185   0.449 125.726  0.00  0.00    +0.094 A 
ATOM      7  C   LIG A   1      -6.536  -0.957 126.077  0.00  0.00    +0.201 A 
ATOM      8  C   LIG A   1      -7.505  -1.698 125.227  0.00  0.00    +0.049 A 
ATOM      9  C   LIG A   1      -7.840  -3.029 125.508  0.00  0.00    +0.014 A 
ATOM     10  C   LIG A   1      -8.740  -3.705 124.681  0.00  0.00    +0.004 A 
ATOM     11  C   LIG A   1      -9.307  -3.055 123.581  0.00  0.00    +0.047 A 
ATOM     12  C   LIG A   1      -8.974  -1.727 123.319  0.00  0.00    +0.141 A 
ATOM     13  C   LIG A   1      -8.064  -1.037 124.128  0.00  0.00    +0.093 A 
ATOM     14  N   LIG A   1      -7.774   0.314 123.899  0.00  0.00    -0.348 N 
ATOM     15  O   LIG A   1      -6.025  -1.490 127.053  0.00  0.00    -0.286 OA
ATOM     16  H   LIG A   1      -8.061   0.690 123.000  0.00  0.00    +0.166 HD
ENDROOT
BRANCH   1  17
ATOM     17  O   LIG A   1      -4.591   0.611 127.537  0.00  0.00    -0.503 OA
ATOM     18  H   LIG A   1      -3.625   0.762 127.429  0.00  0.00    +0.292 HD
ENDBRANCH   1  17
BRANCH   2  19
ATOM     19  O   LIG A   1      -3.988   3.094 126.929  0.00  0.00    -0.488 OA
ATOM     20  C   LIG A   1      -2.667   3.168 126.417  0.00  0.00    +0.277 C 
ENDBRANCH   2  19
BRANCH   3  21
ATOM     21  O   LIG A   1      -5.336   4.439 124.744  0.00  0.00    -0.488 OA
ATOM     22  C   LIG A   1      -6.299   5.350 125.276  0.00  0.00    +0.277 C 
ENDBRANCH   3  21
BRANCH  12  23
ATOM     23  O   LIG A   1      -9.525  -1.061 122.256  0.00  0.00    -0.505 OA
ATOM     24  H   LIG A   1     -10.490  -1.166 122.291  0.00  0.00    +0.292 HD
ENDBRANCH  12  23
BRANCH   4  25
ATOM     25  O   LIG A   1      -7.237   2.869 123.204  0.00  0.00    -0.489 OA
ATOM     26  C   LIG A   1      -6.461   3.015 122.018  0.00  0.00    +0.277 C 
ENDBRANCH   4  25
TORSDOF 5
ENDMDL
MODEL 5
REMARK VINA RESULT:      -6.4      2.800      7.556
REMARK  Name = NuBBE_1474
REMARK  8 active torsions:
REMARK  status: ('A' for Active; 'I' for Inactive)
REMARK    1  A    between atoms: O_1  and  C_2
REMARK    2  A    between atoms: C_3  and  O_4
REMARK    3  A    between atoms: O_4  and  C_5
REMARK    4  A    between atoms: C_6  and  O_7
REMARK    5  A    between atoms: O_7  and  C_8
REMARK    6  A    between atoms: C_9  and  O_22
REMARK    7  A    between atoms: C_17  and  O_18
REMARK    8  A    between atoms: O_22  and  C_23
REMARK                            x       y       z     vdW  Elec       q    Type
REMARK                         _______ _______ _______ _____ _____    ______ ____
ROOT
ATOM      1  C   LIG A   1      -8.951   1.083 124.112  0.00  0.00    +0.175 A 
ATOM      2  C   LIG A   1      -8.586   2.445 124.060  0.00  0.00    +0.208 A 
ATOM      3  C   LIG A   1      -7.923   3.032 125.160  0.00  0.00    +0.209 A 
ATOM      4  C   LIG A   1      -7.592   2.237 126.277  0.00  0.00    +0.190 A 
ATOM      5  C   LIG A   1      -7.990   0.885 126.330  0.00  0.00    +0.100 A 
ATOM      6  C   LIG A   1      -8.637   0.300 125.230  0.00  0.00    +0.094 A 
ATOM      7  C   LIG A   1      -8.978  -1.150 125.289  0.00  0.00    +0.201 A 
ATOM      8  C   LIG A   1      -8.664  -1.921 126.520  0.00  0.00    +0.049 A 
ATOM      9  C   LIG A   1      -8.992  -3.279 126.625  0.00  0.00    +0.014 A 
ATOM     10  C   LIG A   1      -8.702  -3.972 127.802  0.00  0.00    +0.004 A 
ATOM     11  C   LIG A   1      -8.081  -3.316 128.868  0.00  0.00    +0.047 A 
ATOM     12  C   LIG A   1      -7.748  -1.967 128.747  0.00  0.00    +0.141 A 
ATOM     13  C   LIG A   1      -8.044  -1.252 127.581  0.00  0.00    +0.093 A 
ATOM     14  N   LIG A   1      -7.658   0.087 127.438  0.00  0.00    -0.348 N 
ATOM     15  O   LIG A   1      -9.514  -1.692 124.331  0.00  0.00    -0.286 OA
ATOM     16  H   LIG A   1      -7.378   0.568 128.288  0.00  0.00    +0.166 HD
ENDROOT
BRANCH   1  17
ATOM     17  O   LIG A   1      -9.609   0.544 123.029  0.00  0.00    -0.503 OA
ATOM     18  H   LIG A   1      -9.749  -0.416 123.195  0.00  0.00    +0.292 HD
ENDBRANCH   1  17
BRANCH   2  19
ATOM     19  O   LIG A   1      -8.991   3.095 122.919  0.00  0.00    -0.488 OA
ATOM     20  C   LIG A   1      -8.051   3.243 121.867  0.00  0.00    +0.277 C 
ENDBRANCH   2  19
BRANCH   3  21
ATOM     21  O   LIG A   1      -7.542   4.349 125.094  0.00  0.00    -0.488 OA
ATOM     22  C   LIG A   1      -6.186   4.535 124.688  0.00  0.00    +0.277 C 
ENDBRANCH   3  21
BRANCH  12  23
ATOM     23  O   LIG A   1      -7.128  -1.302 129.771  0.00  0.00    -0.505 OA
ATOM     24  H   LIG A   1      -6.167  -1.409 129.673  0.00  0.00    +0.292 HD
ENDBRANCH  12  23
BRANCH   4  25
ATOM     25  O   LIG A   1      -6.962   2.698 127.415  0.00  0.00    -0.489 OA
ATOM     26  C   LIG A   1      -7.771   3.477 128.292  0.00  0.00    +0.277 C 
ENDBRANCH   4  25
TORSDOF 5
ENDMDL
MODEL 6
REMARK VINA RESULT:      -6.3      2.783      6.778
REMARK  Name = NuBBE_1474
REMARK  8 active torsions:
REMARK  status: ('A' for Active; 'I' for Inactive)
REMARK    1  A    between atoms: O_1  and  C_2
REMARK    2  A    between atoms: C_3  and  O_4
REMARK    3  A    between atoms: O_4  and  C_5
REMARK    4  A    between atoms: C_6  and  O_7
REMARK    5  A    between atoms: O_7  and  C_8
REMARK    6  A    between atoms: C_9  and  O_22
REMARK    7  A    between atoms: C_17  and  O_18
REMARK    8  A    between atoms: O_22  and  C_23
REMARK                            x       y       z     vdW  Elec       q    Type
REMARK                         _______ _______ _______ _____ _____    ______ ____
ROOT
ATOM      1  C   LIG A   1      -5.844   1.709 126.272  0.00  0.00    +0.175 A 
ATOM      2  C   LIG A   1      -5.984   2.623 125.206  0.00  0.00    +0.208 A 
ATOM      3  C   LIG A   1      -6.946   2.381 124.201  0.00  0.00    +0.209 A 
ATOM      4  C   LIG A   1      -7.788   1.254 124.302  0.00  0.00    +0.190 A 
ATOM      5  C   LIG A   1      -7.617   0.332 125.356  0.00  0.00    +0.100 A 
ATOM      6  C   LIG A   1      -6.669   0.581 126.360  0.00  0.00    +0.094 A 
ATOM      7  C   LIG A   1      -6.565  -0.376 127.498  0.00  0.00    +0.201 A 
ATOM      8  C   LIG A   1      -7.434  -1.582 127.516  0.00  0.00    +0.049 A 
ATOM      9  C   LIG A   1      -7.348  -2.519 128.554  0.00  0.00    +0.014 A 
ATOM     10  C   LIG A   1      -8.164  -3.652 128.533  0.00  0.00    +0.004 A 
ATOM     11  C   LIG A   1      -9.066  -3.848 127.484  0.00  0.00    +0.047 A 
ATOM     12  C   LIG A   1      -9.150  -2.902 126.463  0.00  0.00    +0.141 A 
ATOM     13  C   LIG A   1      -8.331  -1.768 126.459  0.00  0.00    +0.093 A 
ATOM     14  N   LIG A   1      -8.457  -0.791 125.464  0.00  0.00    -0.348 N 
ATOM     15  O   LIG A   1      -5.768  -0.166 128.404  0.00  0.00    -0.286 OA
ATOM     16  H   LIG A   1      -8.986  -1.054 124.637  0.00  0.00    +0.166 HD
ENDROOT
BRANCH   1  17
ATOM     17  O   LIG A   1      -4.886   1.965 127.228  0.00  0.00    -0.503 OA
ATOM     18  H   LIG A   1      -5.153   2.769 127.728  0.00  0.00    +0.292 HD
ENDBRANCH   1  17
BRANCH   2  19
ATOM     19  O   LIG A   1      -5.083   3.660 125.230  0.00  0.00    -0.488 OA
ATOM     20  C   LIG A   1      -5.519   4.909 125.742  0.00  0.00    +0.277 C 
ENDBRANCH   2  19
BRANCH   3  21
ATOM     21  O   LIG A   1      -7.100   3.287 123.183  0.00  0.00    -0.488 OA
ATOM     22  C   LIG A   1      -6.318   2.990 122.026  0.00  0.00    +0.277 C 
ENDBRANCH   3  21
BRANCH  12  23
ATOM     23  O   LIG A   1     -10.035  -3.063 125.430  0.00  0.00    -0.505 OA
ATOM     24  H   LIG A   1      -9.786  -2.458 124.712  0.00  0.00    +0.292 HD
ENDBRANCH  12  23
BRANCH   4  25
ATOM     25  O   LIG A   1      -8.751   0.903 123.379  0.00  0.00    -0.489 OA
ATOM     26  C   LIG A   1     -10.015   1.544 123.535  0.00  0.00    +0.277 C 
ENDBRANCH   4  25
TORSDOF 5
ENDMDL
MODEL 7
REMARK VINA RESULT:      -6.3      4.417      8.948
REMARK  Name = NuBBE_1474
REMARK  8 active torsions:
REMARK  status: ('A' for Active; 'I' for Inactive)
REMARK    1  A    between atoms: O_1  and  C_2
REMARK    2  A    between atoms: C_3  and  O_4
REMARK    3  A    between atoms: O_4  and  C_5
REMARK    4  A    between atoms: C_6  and  O_7
REMARK    5  A    between atoms: O_7  and  C_8
REMARK    6  A    between atoms: C_9  and  O_22
REMARK    7  A    between atoms: C_17  and  O_18
REMARK    8  A    between atoms: O_22  and  C_23
REMARK                            x       y       z     vdW  Elec       q    Type
REMARK                         _______ _______ _______ _____ _____    ______ ____
ROOT
ATOM      1  C   LIG A   1      -8.493  -1.572 125.897  0.00  0.00    +0.175 A 
ATOM      2  C   LIG A   1      -8.305  -0.629 124.865  0.00  0.00    +0.208 A 
ATOM      3  C   LIG A   1      -7.096   0.097 124.794  0.00  0.00    +0.209 A 
ATOM      4  C   LIG A   1      -6.072  -0.166 125.727  0.00  0.00    +0.190 A 
ATOM      5  C   LIG A   1      -6.283  -1.089 126.773  0.00  0.00    +0.100 A 
ATOM      6  C   LIG A   1      -7.481  -1.818 126.834  0.00  0.00    +0.094 A 
ATOM      7  C   LIG A   1      -7.643  -2.839 127.908  0.00  0.00    +0.201 A 
ATOM      8  C   LIG A   1      -6.555  -3.025 128.904  0.00  0.00    +0.049 A 
ATOM      9  C   LIG A   1      -6.680  -3.955 129.944  0.00  0.00    +0.014 A 
ATOM     10  C   LIG A   1      -5.648  -4.093 130.876  0.00  0.00    +0.004 A 
ATOM     11  C   LIG A   1      -4.495  -3.312 130.767  0.00  0.00    +0.047 A 
ATOM     12  C   LIG A   1      -4.378  -2.398 129.721  0.00  0.00    +0.141 A 
ATOM     13  C   LIG A   1      -5.406  -2.235 128.786  0.00  0.00    +0.093 A 
ATOM     14  N   LIG A   1      -5.264  -1.359 127.703  0.00  0.00    -0.348 N 
ATOM     15  O   LIG A   1      -8.664  -3.511 127.965  0.00  0.00    -0.286 OA
ATOM     16  H   LIG A   1      -4.502  -0.689 127.761  0.00  0.00    +0.166 HD
ENDROOT
BRANCH   1  17
ATOM     17  O   LIG A   1      -9.689  -2.253 125.948  0.00  0.00    -0.503 OA
ATOM     18  H   LIG A   1     -10.130  -2.175 125.072  0.00  0.00    +0.292 HD
ENDBRANCH   1  17
BRANCH   2  19
ATOM     19  O   LIG A   1      -9.395  -0.466 124.044  0.00  0.00    -0.488 OA
ATOM     20  C   LIG A   1      -9.359  -1.069 122.761  0.00  0.00    +0.277 C 
ENDBRANCH   2  19
BRANCH   3  21
ATOM     21  O   LIG A   1      -6.905   0.992 123.771  0.00  0.00    -0.488 OA
ATOM     22  C   LIG A   1      -7.462   2.282 124.025  0.00  0.00    +0.277 C 
ENDBRANCH   3  21
BRANCH  12  23
ATOM     23  O   LIG A   1      -3.253  -1.629 129.583  0.00  0.00    -0.505 OA
ATOM     24  H   LIG A   1      -3.338  -0.850 130.158  0.00  0.00    +0.292 HD
ENDBRANCH  12  23
BRANCH   4  25
ATOM     25  O   LIG A   1      -4.857   0.486 125.771  0.00  0.00    -0.489 OA
ATOM     26  C   LIG A   1      -4.852   1.732 126.462  0.00  0.00    +0.277 C 
ENDBRANCH   4  25
TORSDOF 5
ENDMDL
MODEL 8
REMARK VINA RESULT:      -6.2      3.824      6.054
REMARK  Name = NuBBE_1474
REMARK  8 active torsions:
REMARK  status: ('A' for Active; 'I' for Inactive)
REMARK    1  A    between atoms: O_1  and  C_2
REMARK    2  A    between atoms: C_3  and  O_4
REMARK    3  A    between atoms: O_4  and  C_5
REMARK    4  A    between atoms: C_6  and  O_7
REMARK    5  A    between atoms: O_7  and  C_8
REMARK    6  A    between atoms: C_9  and  O_22
REMARK    7  A    between atoms: C_17  and  O_18
REMARK    8  A    between atoms: O_22  and  C_23
REMARK                            x       y       z     vdW  Elec       q    Type
REMARK                         _______ _______ _______ _____ _____    ______ ____
ROOT
ATOM      1  C   LIG A   1      -8.101   2.682 125.205  0.00  0.00    +0.175 A 
ATOM      2  C   LIG A   1      -8.492   1.403 124.757  0.00  0.00    +0.208 A 
ATOM      3  C   LIG A   1      -7.582   0.326 124.839  0.00  0.00    +0.209 A 
ATOM      4  C   LIG A   1      -6.311   0.533 125.412  0.00  0.00    +0.190 A 
ATOM      5  C   LIG A   1      -5.920   1.823 125.828  0.00  0.00    +0.100 A 
ATOM      6  C   LIG A   1      -6.830   2.889 125.757  0.00  0.00    +0.094 A 
ATOM      7  C   LIG A   1      -6.411   4.223 126.273  0.00  0.00    +0.201 A 
ATOM      8  C   LIG A   1      -5.033   4.396 126.805  0.00  0.00    +0.049 A 
ATOM      9  C   LIG A   1      -4.592   5.640 127.275  0.00  0.00    +0.014 A 
ATOM     10  C   LIG A   1      -3.286   5.776 127.751  0.00  0.00    +0.004 A 
ATOM     11  C   LIG A   1      -2.426   4.675 127.764  0.00  0.00    +0.047 A 
ATOM     12  C   LIG A   1      -2.881   3.440 127.305  0.00  0.00    +0.141 A 
ATOM     13  C   LIG A   1      -4.181   3.287 126.811  0.00  0.00    +0.093 A 
ATOM     14  N   LIG A   1      -4.655   2.034 126.404  0.00  0.00    -0.348 N 
ATOM     15  O   LIG A   1      -7.196   5.162 126.253  0.00  0.00    -0.286 OA
ATOM     16  H   LIG A   1      -3.956   1.311 126.261  0.00  0.00    +0.166 HD
ENDROOT
BRANCH   1  17
ATOM     17  O   LIG A   1      -9.006   3.715 125.098  0.00  0.00    -0.503 OA
ATOM     18  H   LIG A   1      -9.070   3.977 124.152  0.00  0.00    +0.292 HD
ENDBRANCH   1  17
BRANCH   2  19
ATOM     19  O   LIG A   1      -9.750   1.359 124.206  0.00  0.00    -0.488 OA
ATOM     20  C   LIG A   1      -9.861   1.389 122.792  0.00  0.00    +0.277 C 
ENDBRANCH   2  19
BRANCH   3  21
ATOM     21  O   LIG A   1      -7.977  -0.923 124.430  0.00  0.00    -0.488 OA
ATOM     22  C   LIG A   1      -7.465  -1.298 123.151  0.00  0.00    +0.277 C 
ENDBRANCH   3  21
BRANCH  12  23
ATOM     23  O   LIG A   1      -2.063   2.341 127.319  0.00  0.00    -0.505 OA
ATOM     24  H   LIG A   1      -2.023   1.972 126.422  0.00  0.00    +0.292 HD
ENDBRANCH  12  23
BRANCH   4  25
ATOM     25  O   LIG A   1      -5.333  -0.433 125.532  0.00  0.00    -0.489 OA
ATOM     26  C   LIG A   1      -5.518  -1.366 126.593  0.00  0.00    +0.277 C 
ENDBRANCH   4  25
TORSDOF 5
ENDMDL
MODEL 9
REMARK VINA RESULT:      -6.0      6.964      8.845
REMARK  Name = NuBBE_1474
REMARK  8 active torsions:
REMARK  status: ('A' for Active; 'I' for Inactive)
REMARK    1  A    between atoms: O_1  and  C_2
REMARK    2  A    between atoms: C_3  and  O_4
REMARK    3  A    between atoms: O_4  and  C_5
REMARK    4  A    between atoms: C_6  and  O_7
REMARK    5  A    between atoms: O_7  and  C_8
REMARK    6  A    between atoms: C_9  and  O_22
REMARK    7  A    between atoms: C_17  and  O_18
REMARK    8  A    between atoms: O_22  and  C_23
REMARK                            x       y       z     vdW  Elec       q    Type
REMARK                         _______ _______ _______ _____ _____    ______ ____
ROOT
ATOM      1  C   LIG A   1      -7.881   4.566 129.084  0.00  0.00    +0.175 A 
ATOM      2  C   LIG A   1      -7.245   3.743 130.036  0.00  0.00    +0.208 A 
ATOM      3  C   LIG A   1      -7.751   3.680 131.353  0.00  0.00    +0.209 A 
ATOM      4  C   LIG A   1      -8.915   4.405 131.686  0.00  0.00    +0.190 A 
ATOM      5  C   LIG A   1      -9.523   5.248 130.733  0.00  0.00    +0.100 A 
ATOM      6  C   LIG A   1      -9.025   5.299 129.422  0.00  0.00    +0.094 A 
ATOM      7  C   LIG A   1      -9.736   6.144 128.420  0.00  0.00    +0.201 A 
ATOM      8  C   LIG A   1     -10.918   6.938 128.846  0.00  0.00    +0.049 A 
ATOM      9  C   LIG A   1     -11.597   7.764 127.941  0.00  0.00    +0.014 A 
ATOM     10  C   LIG A   1     -12.693   8.513 128.377  0.00  0.00    +0.004 A 
ATOM     11  C   LIG A   1     -13.114   8.433 129.706  0.00  0.00    +0.047 A 
ATOM     12  C   LIG A   1     -12.437   7.598 130.594  0.00  0.00    +0.141 A 
ATOM     13  C   LIG A   1     -11.329   6.851 130.181  0.00  0.00    +0.093 A 
ATOM     14  N   LIG A   1     -10.685   5.969 131.058  0.00  0.00    -0.348 N 
ATOM     15  O   LIG A   1      -9.343   6.182 127.261  0.00  0.00    -0.286 OA
ATOM     16  H   LIG A   1     -10.904   6.074 132.045  0.00  0.00    +0.166 HD
ENDROOT
BRANCH   1  17
ATOM     17  O   LIG A   1      -7.354   4.617 127.812  0.00  0.00    -0.503 OA
ATOM     18  H   LIG A   1      -6.484   5.075 127.852  0.00  0.00    +0.292 HD
ENDBRANCH   1  17
BRANCH   2  19
ATOM     19  O   LIG A   1      -6.114   3.114 129.574  0.00  0.00    -0.488 OA
ATOM     20  C   LIG A   1      -4.855   3.668 129.918  0.00  0.00    +0.277 C 
ENDBRANCH   2  19
BRANCH   3  21
ATOM     21  O   LIG A   1      -7.148   2.854 132.269  0.00  0.00    -0.488 OA
ATOM     22  C   LIG A   1      -7.700   1.538 132.306  0.00  0.00    +0.277 C 
ENDBRANCH   3  21
BRANCH  12  23
ATOM     23  O   LIG A   1     -12.837   7.490 131.900  0.00  0.00    -0.505 OA
ATOM     24  H   LIG A   1     -13.716   7.079 131.923  0.00  0.00    +0.292 HD
ENDBRANCH  12  23
BRANCH   4  25
ATOM     25  O   LIG A   1      -9.493   4.436 132.937  0.00  0.00    -0.489 OA
ATOM     26  C   LIG A   1      -8.765   5.150 133.934  0.00  0.00    +0.277 C 
ENDBRANCH   4  25
TORSDOF 5
ENDMDL
