MODEL 1
REMARK VINA RESULT:      -7.3      0.000      0.000
REMARK  Name = NuBBE_2517
REMARK  6 active torsions:
REMARK  status: ('A' for Active; 'I' for Inactive)
REMARK    1  A    between atoms: C_1  and  C_2
REMARK    2  A    between atoms: C_1  and  C_4
REMARK    3  A    between atoms: C_5  and  C_7
REMARK    4  A    between atoms: C_8  and  C_20
REMARK    5  A    between atoms: C_12  and  O_13
REMARK    6  A    between atoms: C_14  and  O_19
REMARK                            x       y       z     vdW  Elec       q    Type
REMARK                         _______ _______ _______ _____ _____    ______ ____
ROOT
ATOM      1  C   LIG A   1      -7.106  -1.945 124.675  0.00  0.00    +0.010 C 
ATOM      2  C   LIG A   1      -6.529  -1.225 125.943  0.00  0.00    +0.003 C 
ATOM      3  C   LIG A   1      -5.908  -2.122 127.018  0.00  0.00    +0.009 C 
ATOM      4  C   LIG A   1      -7.749  -0.467 126.568  0.00  0.00    +0.031 C 
ATOM      5  C   LIG A   1      -8.901  -0.641 125.552  0.00  0.00    +0.062 C 
ATOM      6  C   LIG A   1      -8.609  -2.053 125.014  0.00  0.00    +0.128 C 
ATOM      7  C   LIG A   1      -8.914   0.391 124.421  0.00  0.00    +0.186 C 
ATOM      8  C   LIG A   1      -7.668   0.308 123.556  0.00  0.00    +0.163 C 
ATOM      9  O   LIG A   1      -7.328   1.272 122.855  0.00  0.00    -0.295 OA
ATOM     10  C   LIG A   1      -6.960  -1.022 123.428  0.00  0.00    +0.087 C 
ENDROOT
BRANCH   4  11
ATOM     11  C   LIG A   1      -7.506   0.934 127.099  0.00  0.00    -0.040 A 
ATOM     12  C   LIG A   1      -8.497   1.533 127.903  0.00  0.00    +0.053 A 
ATOM     13  C   LIG A   1      -8.262   2.795 128.418  0.00  0.00    +0.167 A 
ATOM     14  C   LIG A   1      -7.099   3.476 128.160  0.00  0.00    +0.166 A 
ATOM     15  C   LIG A   1      -6.110   2.937 127.375  0.00  0.00    +0.050 A 
ATOM     16  C   LIG A   1      -6.319   1.659 126.840  0.00  0.00    +0.008 A 
ATOM     17  O   LIG A   1      -7.060   4.693 128.763  0.00  0.00    -0.453 OA
ATOM     18  C   LIG A   1      -8.336   4.701 129.436  0.00  0.00    +0.466 C 
ATOM     19  O   LIG A   1      -9.105   3.497 129.223  0.00  0.00    -0.453 OA
ENDBRANCH   4  11
BRANCH   6  20
ATOM     20  O   LIG A   1      -9.388  -2.428 123.894  0.00  0.00    -0.391 OA
ATOM     21  H   LIG A   1      -8.840  -2.340 123.084  0.00  0.00    +0.210 HD
ENDBRANCH   6  20
BRANCH   7  22
ATOM     22  O   LIG A   1     -10.062   0.161 123.599  0.00  0.00    -0.384 OA
ATOM     23  H   LIG A   1      -9.954   0.744 122.821  0.00  0.00    +0.210 HD
ENDBRANCH   7  22
BRANCH   1  24
ATOM     24  C   LIG A   1      -6.494  -3.334 124.347  0.00  0.00    +0.036 C 
BRANCH  24  25
ATOM     25  C   LIG A   1      -5.183  -3.292 123.597  0.00  0.00    -0.034 C 
ATOM     26  C   LIG A   1      -4.286  -4.286 123.597  0.00  0.00    +0.004 C 
ENDBRANCH  24  25
ENDBRANCH   1  24
TORSDOF 5
ENDMDL
MODEL 2
REMARK VINA RESULT:      -7.3      2.795      4.871
REMARK  Name = NuBBE_2517
REMARK  6 active torsions:
REMARK  status: ('A' for Active; 'I' for Inactive)
REMARK    1  A    between atoms: C_1  and  C_2
REMARK    2  A    between atoms: C_1  and  C_4
REMARK    3  A    between atoms: C_5  and  C_7
REMARK    4  A    between atoms: C_8  and  C_20
REMARK    5  A    between atoms: C_12  and  O_13
REMARK    6  A    between atoms: C_14  and  O_19
REMARK                            x       y       z     vdW  Elec       q    Type
REMARK                         _______ _______ _______ _____ _____    ______ ____
ROOT
ATOM      1  C   LIG A   1      -7.382  -0.656 125.791  0.00  0.00    +0.010 C 
ATOM      2  C   LIG A   1      -7.034   0.825 125.411  0.00  0.00    +0.003 C 
ATOM      3  C   LIG A   1      -6.800   1.795 126.573  0.00  0.00    +0.009 C 
ATOM      4  C   LIG A   1      -8.264   1.328 124.580  0.00  0.00    +0.031 C 
ATOM      5  C   LIG A   1      -9.156   0.083 124.378  0.00  0.00    +0.062 C 
ATOM      6  C   LIG A   1      -8.924  -0.665 125.703  0.00  0.00    +0.128 C 
ATOM      7  C   LIG A   1      -8.775  -0.787 123.177  0.00  0.00    +0.186 C 
ATOM      8  C   LIG A   1      -7.380  -1.374 123.315  0.00  0.00    +0.163 C 
ATOM      9  O   LIG A   1      -6.768  -1.773 122.314  0.00  0.00    -0.295 OA
ATOM     10  C   LIG A   1      -6.833  -1.626 124.702  0.00  0.00    +0.087 C 
ENDROOT
BRANCH   4  11
ATOM     11  C   LIG A   1      -7.981   2.177 123.354  0.00  0.00    -0.040 A 
ATOM     12  C   LIG A   1      -6.644   2.516 123.061  0.00  0.00    +0.053 A 
ATOM     13  C   LIG A   1      -6.379   3.257 121.925  0.00  0.00    +0.167 A 
ATOM     14  C   LIG A   1      -7.381   3.676 121.085  0.00  0.00    +0.166 A 
ATOM     15  C   LIG A   1      -8.699   3.379 121.335  0.00  0.00    +0.050 A 
ATOM     16  C   LIG A   1      -8.997   2.627 122.479  0.00  0.00    +0.008 A 
ATOM     17  O   LIG A   1      -6.913   4.385 120.024  0.00  0.00    -0.453 OA
ATOM     18  C   LIG A   1      -5.495   4.362 120.290  0.00  0.00    +0.466 C 
ATOM     19  O   LIG A   1      -5.149   3.646 121.494  0.00  0.00    -0.453 OA
ENDBRANCH   4  11
BRANCH   6  20
ATOM     20  O   LIG A   1      -9.457  -1.975 125.741  0.00  0.00    -0.391 OA
ATOM     21  H   LIG A   1      -8.716  -2.617 125.777  0.00  0.00    +0.210 HD
ENDBRANCH   6  20
BRANCH   7  22
ATOM     22  O   LIG A   1      -9.717  -1.859 123.065  0.00  0.00    -0.384 OA
ATOM     23  H   LIG A   1     -10.295  -1.626 122.311  0.00  0.00    +0.210 HD
ENDBRANCH   7  22
BRANCH   1  24
ATOM     24  C   LIG A   1      -6.887  -1.131 127.184  0.00  0.00    +0.036 C 
BRANCH  24  25
ATOM     25  C   LIG A   1      -5.629  -1.967 127.162  0.00  0.00    -0.034 C 
ATOM     26  C   LIG A   1      -4.977  -2.371 128.260  0.00  0.00    +0.004 C 
ENDBRANCH  24  25
ENDBRANCH   1  24
TORSDOF 5
ENDMDL
MODEL 3
REMARK VINA RESULT:      -7.2      6.180      8.184
REMARK  Name = NuBBE_2517
REMARK  6 active torsions:
REMARK  status: ('A' for Active; 'I' for Inactive)
REMARK    1  A    between atoms: C_1  and  C_2
REMARK    2  A    between atoms: C_1  and  C_4
REMARK    3  A    between atoms: C_5  and  C_7
REMARK    4  A    between atoms: C_8  and  C_20
REMARK    5  A    between atoms: C_12  and  O_13
REMARK    6  A    between atoms: C_14  and  O_19
REMARK                            x       y       z     vdW  Elec       q    Type
REMARK                         _______ _______ _______ _____ _____    ______ ____
ROOT
ATOM      1  C   LIG A   1      -7.008   3.662 131.928  0.00  0.00    +0.010 C 
ATOM      2  C   LIG A   1      -7.379   5.167 131.689  0.00  0.00    +0.003 C 
ATOM      3  C   LIG A   1      -6.471   6.211 132.347  0.00  0.00    +0.009 C 
ATOM      4  C   LIG A   1      -8.825   5.324 132.271  0.00  0.00    +0.031 C 
ATOM      5  C   LIG A   1      -9.271   3.892 132.646  0.00  0.00    +0.062 C 
ATOM      6  C   LIG A   1      -7.936   3.277 133.102  0.00  0.00    +0.128 C 
ATOM      7  C   LIG A   1      -9.884   3.093 131.494  0.00  0.00    +0.186 C 
ATOM      8  C   LIG A   1      -8.894   2.867 130.363  0.00  0.00    +0.163 C 
ATOM      9  O   LIG A   1      -9.298   2.587 129.225  0.00  0.00    -0.295 OA
ATOM     10  C   LIG A   1      -7.419   2.810 130.690  0.00  0.00    +0.087 C 
ENDROOT
BRANCH   4  11
ATOM     11  C   LIG A   1      -9.810   6.166 131.480  0.00  0.00    -0.040 A 
ATOM     12  C   LIG A   1      -9.389   6.731 130.259  0.00  0.00    +0.053 A 
ATOM     13  C   LIG A   1     -10.295   7.467 129.519  0.00  0.00    +0.167 A 
ATOM     14  C   LIG A   1     -11.584   7.667 129.946  0.00  0.00    +0.166 A 
ATOM     15  C   LIG A   1     -12.037   7.145 131.133  0.00  0.00    +0.050 A 
ATOM     16  C   LIG A   1     -11.140   6.393 131.904  0.00  0.00    +0.008 A 
ATOM     17  O   LIG A   1     -12.315   8.410 129.074  0.00  0.00    -0.453 OA
ATOM     18  C   LIG A   1     -11.337   8.654 128.043  0.00  0.00    +0.466 C 
ATOM     19  O   LIG A   1     -10.052   8.057 128.318  0.00  0.00    -0.453 OA
ENDBRANCH   4  11
BRANCH   6  20
ATOM     20  O   LIG A   1      -7.975   1.880 133.319  0.00  0.00    -0.391 OA
ATOM     21  H   LIG A   1      -8.621   1.689 134.032  0.00  0.00    +0.210 HD
ENDBRANCH   6  20
BRANCH   7  22
ATOM     22  O   LIG A   1     -10.315   1.822 131.990  0.00  0.00    -0.384 OA
ATOM     23  H   LIG A   1      -9.563   1.470 132.507  0.00  0.00    +0.210 HD
ENDBRANCH   7  22
BRANCH   1  24
ATOM     24  C   LIG A   1      -5.518   3.378 132.262  0.00  0.00    +0.036 C 
BRANCH  24  25
ATOM     25  C   LIG A   1      -4.620   3.193 131.061  0.00  0.00    -0.034 C 
ATOM     26  C   LIG A   1      -3.569   3.975 130.782  0.00  0.00    +0.004 C 
ENDBRANCH  24  25
ENDBRANCH   1  24
TORSDOF 5
ENDMDL
MODEL 4
REMARK VINA RESULT:      -7.0      2.075      2.870
REMARK  Name = NuBBE_2517
REMARK  6 active torsions:
REMARK  status: ('A' for Active; 'I' for Inactive)
REMARK    1  A    between atoms: C_1  and  C_2
REMARK    2  A    between atoms: C_1  and  C_4
REMARK    3  A    between atoms: C_5  and  C_7
REMARK    4  A    between atoms: C_8  and  C_20
REMARK    5  A    between atoms: C_12  and  O_13
REMARK    6  A    between atoms: C_14  and  O_19
REMARK                            x       y       z     vdW  Elec       q    Type
REMARK                         _______ _______ _______ _____ _____    ______ ____
ROOT
ATOM      1  C   LIG A   1      -7.758  -0.648 125.267  0.00  0.00    +0.010 C 
ATOM      2  C   LIG A   1      -6.471  -0.294 126.091  0.00  0.00    +0.003 C 
ATOM      3  C   LIG A   1      -5.994  -1.341 127.102  0.00  0.00    +0.009 C 
ATOM      4  C   LIG A   1      -6.837   1.018 126.866  0.00  0.00    +0.031 C 
ATOM      5  C   LIG A   1      -8.222   1.440 126.323  0.00  0.00    +0.062 C 
ATOM      6  C   LIG A   1      -8.869   0.067 126.067  0.00  0.00    +0.128 C 
ATOM      7  C   LIG A   1      -8.176   2.278 125.043  0.00  0.00    +0.186 C 
ATOM      8  C   LIG A   1      -7.561   1.515 123.881  0.00  0.00    +0.163 C 
ATOM      9  O   LIG A   1      -7.103   2.127 122.905  0.00  0.00    -0.295 OA
ATOM     10  C   LIG A   1      -7.682   0.008 123.856  0.00  0.00    +0.087 C 
ENDROOT
BRANCH   4  11
ATOM     11  C   LIG A   1      -5.775   2.099 126.953  0.00  0.00    -0.040 A 
ATOM     12  C   LIG A   1      -6.057   3.265 127.694  0.00  0.00    +0.053 A 
ATOM     13  C   LIG A   1      -5.078   4.235 127.806  0.00  0.00    +0.167 A 
ATOM     14  C   LIG A   1      -3.849   4.094 127.211  0.00  0.00    +0.166 A 
ATOM     15  C   LIG A   1      -3.532   2.980 126.471  0.00  0.00    +0.050 A 
ATOM     16  C   LIG A   1      -4.505   1.980 126.341  0.00  0.00    +0.008 A 
ATOM     17  O   LIG A   1      -3.029   5.151 127.445  0.00  0.00    -0.453 OA
ATOM     18  C   LIG A   1      -3.883   5.977 128.263  0.00  0.00    +0.466 C 
ATOM     19  O   LIG A   1      -5.185   5.401 128.498  0.00  0.00    -0.453 OA
ENDBRANCH   4  11
BRANCH   6  20
ATOM     20  O   LIG A   1     -10.093   0.116 125.360  0.00  0.00    -0.391 OA
ATOM     21  H   LIG A   1      -9.911   0.003 124.403  0.00  0.00    +0.210 HD
ENDBRANCH   6  20
BRANCH   7  22
ATOM     22  O   LIG A   1      -9.510   2.657 124.690  0.00  0.00    -0.384 OA
ATOM     23  H   LIG A   1      -9.932   2.948 125.523  0.00  0.00    +0.210 HD
ENDBRANCH   7  22
BRANCH   1  24
ATOM     24  C   LIG A   1      -8.059  -2.163 125.101  0.00  0.00    +0.036 C 
BRANCH  24  25
ATOM     25  C   LIG A   1      -8.481  -2.580 123.712  0.00  0.00    -0.034 C 
ATOM     26  C   LIG A   1      -9.570  -3.315 123.447  0.00  0.00    +0.004 C 
ENDBRANCH  24  25
ENDBRANCH   1  24
TORSDOF 5
ENDMDL
MODEL 5
REMARK VINA RESULT:      -6.9      2.928      4.229
REMARK  Name = NuBBE_2517
REMARK  6 active torsions:
REMARK  status: ('A' for Active; 'I' for Inactive)
REMARK    1  A    between atoms: C_1  and  C_2
REMARK    2  A    between atoms: C_1  and  C_4
REMARK    3  A    between atoms: C_5  and  C_7
REMARK    4  A    between atoms: C_8  and  C_20
REMARK    5  A    between atoms: C_12  and  O_13
REMARK    6  A    between atoms: C_14  and  O_19
REMARK                            x       y       z     vdW  Elec       q    Type
REMARK                         _______ _______ _______ _____ _____    ______ ____
ROOT
ATOM      1  C   LIG A   1      -6.997   1.505 124.959  0.00  0.00    +0.010 C 
ATOM      2  C   LIG A   1      -5.773   1.514 125.940  0.00  0.00    +0.003 C 
ATOM      3  C   LIG A   1      -5.513   0.225 126.725  0.00  0.00    +0.009 C 
ATOM      4  C   LIG A   1      -6.079   2.666 126.957  0.00  0.00    +0.031 C 
ATOM      5  C   LIG A   1      -7.350   3.361 126.416  0.00  0.00    +0.062 C 
ATOM      6  C   LIG A   1      -8.105   2.165 125.810  0.00  0.00    +0.128 C 
ATOM      7  C   LIG A   1      -7.086   4.440 125.363  0.00  0.00    +0.186 C 
ATOM      8  C   LIG A   1      -6.437   3.873 124.112  0.00  0.00    +0.163 C 
ATOM      9  O   LIG A   1      -5.820   4.617 123.336  0.00  0.00    -0.295 OA
ATOM     10  C   LIG A   1      -6.709   2.433 123.741  0.00  0.00    +0.087 C 
ENDROOT
BRANCH   4  11
ATOM     11  C   LIG A   1      -4.926   3.564 127.367  0.00  0.00    -0.040 A 
ATOM     12  C   LIG A   1      -5.143   4.524 128.376  0.00  0.00    +0.053 A 
ATOM     13  C   LIG A   1      -4.085   5.318 128.776  0.00  0.00    +0.167 A 
ATOM     14  C   LIG A   1      -2.838   5.200 128.213  0.00  0.00    +0.166 A 
ATOM     15  C   LIG A   1      -2.582   4.286 127.221  0.00  0.00    +0.050 A 
ATOM     16  C   LIG A   1      -3.636   3.467 126.795  0.00  0.00    +0.008 A 
ATOM     17  O   LIG A   1      -1.937   6.065 128.749  0.00  0.00    -0.453 OA
ATOM     18  C   LIG A   1      -2.760   6.742 129.722  0.00  0.00    +0.466 C 
ATOM     19  O   LIG A   1      -4.124   6.272 129.746  0.00  0.00    -0.453 OA
ENDBRANCH   4  11
BRANCH   6  20
ATOM     20  O   LIG A   1      -9.239   2.514 125.039  0.00  0.00    -0.391 OA
ATOM     21  H   LIG A   1      -9.051   3.350 124.562  0.00  0.00    +0.210 HD
ENDBRANCH   6  20
BRANCH   7  22
ATOM     22  O   LIG A   1      -8.331   5.047 125.002  0.00  0.00    -0.384 OA
ATOM     23  H   LIG A   1      -8.533   5.685 125.716  0.00  0.00    +0.210 HD
ENDBRANCH   7  22
BRANCH   1  24
ATOM     24  C   LIG A   1      -7.434   0.110 124.436  0.00  0.00    +0.036 C 
BRANCH  24  25
ATOM     25  C   LIG A   1      -6.798  -0.310 123.132  0.00  0.00    -0.034 C 
ATOM     26  C   LIG A   1      -6.432  -1.566 122.845  0.00  0.00    +0.004 C 
ENDBRANCH  24  25
ENDBRANCH   1  24
TORSDOF 5
ENDMDL
MODEL 6
REMARK VINA RESULT:      -6.8      3.156      5.297
REMARK  Name = NuBBE_2517
REMARK  6 active torsions:
REMARK  status: ('A' for Active; 'I' for Inactive)
REMARK    1  A    between atoms: C_1  and  C_2
REMARK    2  A    between atoms: C_1  and  C_4
REMARK    3  A    between atoms: C_5  and  C_7
REMARK    4  A    between atoms: C_8  and  C_20
REMARK    5  A    between atoms: C_12  and  O_13
REMARK    6  A    between atoms: C_14  and  O_19
REMARK                            x       y       z     vdW  Elec       q    Type
REMARK                         _______ _______ _______ _____ _____    ______ ____
ROOT
ATOM      1  C   LIG A   1      -7.093  -0.179 124.559  0.00  0.00    +0.010 C 
ATOM      2  C   LIG A   1      -6.621   0.008 126.044  0.00  0.00    +0.003 C 
ATOM      3  C   LIG A   1      -5.622   1.138 126.309  0.00  0.00    +0.009 C 
ATOM      4  C   LIG A   1      -5.950  -1.354 126.429  0.00  0.00    +0.031 C 
ATOM      5  C   LIG A   1      -6.221  -2.295 125.232  0.00  0.00    +0.062 C 
ATOM      6  C   LIG A   1      -6.160  -1.303 124.057  0.00  0.00    +0.128 C 
ATOM      7  C   LIG A   1      -7.571  -3.014 125.280  0.00  0.00    +0.186 C 
ATOM      8  C   LIG A   1      -8.739  -2.043 125.234  0.00  0.00    +0.163 C 
ATOM      9  O   LIG A   1      -9.859  -2.392 125.635  0.00  0.00    -0.295 OA
ATOM     10  C   LIG A   1      -8.554  -0.718 124.530  0.00  0.00    +0.087 C 
ENDROOT
BRANCH   4  11
ATOM     11  C   LIG A   1      -6.230  -1.906 127.814  0.00  0.00    -0.040 A 
ATOM     12  C   LIG A   1      -5.292  -2.784 128.395  0.00  0.00    +0.053 A 
ATOM     13  C   LIG A   1      -5.526  -3.259 129.671  0.00  0.00    +0.167 A 
ATOM     14  C   LIG A   1      -6.647  -2.906 130.379  0.00  0.00    +0.166 A 
ATOM     15  C   LIG A   1      -7.594  -2.062 129.852  0.00  0.00    +0.050 A 
ATOM     16  C   LIG A   1      -7.382  -1.563 128.560  0.00  0.00    +0.008 A 
ATOM     17  O   LIG A   1      -6.688  -3.472 131.614  0.00  0.00    -0.453 OA
ATOM     18  C   LIG A   1      -5.457  -4.224 131.605  0.00  0.00    +0.466 C 
ATOM     19  O   LIG A   1      -4.713  -4.092 130.375  0.00  0.00    -0.453 OA
ENDBRANCH   4  11
BRANCH   6  20
ATOM     20  O   LIG A   1      -6.580  -1.835 122.815  0.00  0.00    -0.391 OA
ATOM     21  H   LIG A   1      -7.273  -1.251 122.439  0.00  0.00    +0.210 HD
ENDBRANCH   6  20
BRANCH   7  22
ATOM     22  O   LIG A   1      -7.664  -3.899 124.160  0.00  0.00    -0.384 OA
ATOM     23  H   LIG A   1      -7.071  -4.650 124.364  0.00  0.00    +0.210 HD
ENDBRANCH   7  22
BRANCH   1  24
ATOM     24  C   LIG A   1      -7.003   1.082 123.658  0.00  0.00    +0.036 C 
BRANCH  24  25
ATOM     25  C   LIG A   1      -8.332   1.615 123.174  0.00  0.00    -0.034 C 
ATOM     26  C   LIG A   1      -8.538   2.883 122.794  0.00  0.00    +0.004 C 
ENDBRANCH  24  25
ENDBRANCH   1  24
TORSDOF 5
ENDMDL
MODEL 7
REMARK VINA RESULT:      -6.7      2.847      5.389
REMARK  Name = NuBBE_2517
REMARK  6 active torsions:
REMARK  status: ('A' for Active; 'I' for Inactive)
REMARK    1  A    between atoms: C_1  and  C_2
REMARK    2  A    between atoms: C_1  and  C_4
REMARK    3  A    between atoms: C_5  and  C_7
REMARK    4  A    between atoms: C_8  and  C_20
REMARK    5  A    between atoms: C_12  and  O_13
REMARK    6  A    between atoms: C_14  and  O_19
REMARK                            x       y       z     vdW  Elec       q    Type
REMARK                         _______ _______ _______ _____ _____    ______ ____
ROOT
ATOM      1  C   LIG A   1      -7.127   1.849 124.325  0.00  0.00    +0.010 C 
ATOM      2  C   LIG A   1      -6.879   0.313 124.519  0.00  0.00    +0.003 C 
ATOM      3  C   LIG A   1      -7.007  -0.566 123.271  0.00  0.00    +0.009 C 
ATOM      4  C   LIG A   1      -7.956  -0.141 125.563  0.00  0.00    +0.031 C 
ATOM      5  C   LIG A   1      -8.637   1.162 126.039  0.00  0.00    +0.062 C 
ATOM      6  C   LIG A   1      -8.605   2.000 124.748  0.00  0.00    +0.128 C 
ATOM      7  C   LIG A   1      -7.915   1.879 127.183  0.00  0.00    +0.186 C 
ATOM      8  C   LIG A   1      -6.523   2.337 126.782  0.00  0.00    +0.163 C 
ATOM      9  O   LIG A   1      -5.673   2.583 127.650  0.00  0.00    -0.295 OA
ATOM     10  C   LIG A   1      -6.254   2.660 125.330  0.00  0.00    +0.087 C 
ENDROOT
BRANCH   4  11
ATOM     11  C   LIG A   1      -7.519  -1.120 126.638  0.00  0.00    -0.040 A 
ATOM     12  C   LIG A   1      -6.149  -1.209 126.955  0.00  0.00    +0.053 A 
ATOM     13  C   LIG A   1      -5.753  -2.073 127.959  0.00  0.00    +0.167 A 
ATOM     14  C   LIG A   1      -6.655  -2.848 128.643  0.00  0.00    +0.166 A 
ATOM     15  C   LIG A   1      -7.999  -2.803 128.363  0.00  0.00    +0.050 A 
ATOM     16  C   LIG A   1      -8.430  -1.935 127.351  0.00  0.00    +0.008 A 
ATOM     17  O   LIG A   1      -6.067  -3.622 129.593  0.00  0.00    -0.453 OA
ATOM     18  C   LIG A   1      -4.685  -3.243 129.430  0.00  0.00    +0.466 C 
ATOM     19  O   LIG A   1      -4.478  -2.259 128.395  0.00  0.00    -0.453 OA
ENDBRANCH   4  11
BRANCH   6  20
ATOM     20  O   LIG A   1      -8.981   3.353 124.915  0.00  0.00    -0.391 OA
ATOM     21  H   LIG A   1      -8.633   3.874 124.160  0.00  0.00    +0.210 HD
ENDBRANCH   6  20
BRANCH   7  22
ATOM     22  O   LIG A   1      -8.684   3.022 127.570  0.00  0.00    -0.384 OA
ATOM     23  H   LIG A   1      -9.436   3.061 126.946  0.00  0.00    +0.210 HD
ENDBRANCH   7  22
BRANCH   1  24
ATOM     24  C   LIG A   1      -6.885   2.398 122.892  0.00  0.00    +0.036 C 
BRANCH  24  25
ATOM     25  C   LIG A   1      -6.069   3.668 122.825  0.00  0.00    -0.034 C 
ATOM     26  C   LIG A   1      -5.452   4.106 121.720  0.00  0.00    +0.004 C 
ENDBRANCH  24  25
ENDBRANCH   1  24
TORSDOF 5
ENDMDL
MODEL 8
REMARK VINA RESULT:      -6.6      4.379      7.545
REMARK  Name = NuBBE_2517
REMARK  6 active torsions:
REMARK  status: ('A' for Active; 'I' for Inactive)
REMARK    1  A    between atoms: C_1  and  C_2
REMARK    2  A    between atoms: C_1  and  C_4
REMARK    3  A    between atoms: C_5  and  C_7
REMARK    4  A    between atoms: C_8  and  C_20
REMARK    5  A    between atoms: C_12  and  O_13
REMARK    6  A    between atoms: C_14  and  O_19
REMARK                            x       y       z     vdW  Elec       q    Type
REMARK                         _______ _______ _______ _____ _____    ______ ____
ROOT
ATOM      1  C   LIG A   1      -5.888  -2.843 132.040  0.00  0.00    +0.010 C 
ATOM      2  C   LIG A   1      -6.348  -3.754 130.849  0.00  0.00    +0.003 C 
ATOM      3  C   LIG A   1      -5.654  -5.112 130.717  0.00  0.00    +0.009 C 
ATOM      4  C   LIG A   1      -6.053  -2.913 129.560  0.00  0.00    +0.031 C 
ATOM      5  C   LIG A   1      -5.613  -1.523 130.072  0.00  0.00    +0.062 C 
ATOM      6  C   LIG A   1      -4.864  -1.906 131.361  0.00  0.00    +0.128 C 
ATOM      7  C   LIG A   1      -6.764  -0.558 130.367  0.00  0.00    +0.186 C 
ATOM      8  C   LIG A   1      -7.670  -1.069 131.475  0.00  0.00    +0.163 C 
ATOM      9  O   LIG A   1      -8.825  -0.634 131.588  0.00  0.00    -0.295 OA
ATOM     10  C   LIG A   1      -7.081  -1.972 132.535  0.00  0.00    +0.087 C 
ENDROOT
BRANCH   4  11
ATOM     11  C   LIG A   1      -7.090  -2.941 128.453  0.00  0.00    -0.040 A 
ATOM     12  C   LIG A   1      -6.817  -2.254 127.253  0.00  0.00    +0.053 A 
ATOM     13  C   LIG A   1      -7.744  -2.308 126.229  0.00  0.00    +0.167 A 
ATOM     14  C   LIG A   1      -8.920  -3.003 126.355  0.00  0.00    +0.166 A 
ATOM     15  C   LIG A   1      -9.235  -3.680 127.508  0.00  0.00    +0.050 A 
ATOM     16  C   LIG A   1      -8.313  -3.644 128.563  0.00  0.00    +0.008 A 
ATOM     17  O   LIG A   1      -9.690  -2.939 125.237  0.00  0.00    -0.453 OA
ATOM     18  C   LIG A   1      -8.859  -2.122 124.386  0.00  0.00    +0.466 C 
ATOM     19  O   LIG A   1      -7.621  -1.719 125.009  0.00  0.00    -0.453 OA
ENDBRANCH   4  11
BRANCH   6  20
ATOM     20  O   LIG A   1      -4.509  -0.811 132.184  0.00  0.00    -0.391 OA
ATOM     21  H   LIG A   1      -4.411  -0.012 131.623  0.00  0.00    +0.210 HD
ENDBRANCH   6  20
BRANCH   7  22
ATOM     22  O   LIG A   1      -6.220   0.705 130.762  0.00  0.00    -0.384 OA
ATOM     23  H   LIG A   1      -6.675   1.374 130.213  0.00  0.00    +0.210 HD
ENDBRANCH   7  22
BRANCH   1  24
ATOM     24  C   LIG A   1      -5.266  -3.582 133.256  0.00  0.00    +0.036 C 
BRANCH  24  25
ATOM     25  C   LIG A   1      -6.266  -4.207 134.201  0.00  0.00    -0.034 C 
ATOM     26  C   LIG A   1      -6.326  -5.518 134.471  0.00  0.00    +0.004 C 
ENDBRANCH  24  25
ENDBRANCH   1  24
TORSDOF 5
ENDMDL
MODEL 9
REMARK VINA RESULT:      -6.6      3.116      5.718
REMARK  Name = NuBBE_2517
REMARK  6 active torsions:
REMARK  status: ('A' for Active; 'I' for Inactive)
REMARK    1  A    between atoms: C_1  and  C_2
REMARK    2  A    between atoms: C_1  and  C_4
REMARK    3  A    between atoms: C_5  and  C_7
REMARK    4  A    between atoms: C_8  and  C_20
REMARK    5  A    between atoms: C_12  and  O_13
REMARK    6  A    between atoms: C_14  and  O_19
REMARK                            x       y       z     vdW  Elec       q    Type
REMARK                         _______ _______ _______ _____ _____    ______ ____
ROOT
ATOM      1  C   LIG A   1      -7.184  -2.364 129.455  0.00  0.00    +0.010 C 
ATOM      2  C   LIG A   1      -8.005  -2.513 128.127  0.00  0.00    +0.003 C 
ATOM      3  C   LIG A   1      -8.627  -3.886 127.856  0.00  0.00    +0.009 C 
ATOM      4  C   LIG A   1      -6.984  -2.191 126.983  0.00  0.00    +0.031 C 
ATOM      5  C   LIG A   1      -5.703  -1.711 127.702  0.00  0.00    +0.062 C 
ATOM      6  C   LIG A   1      -5.733  -2.582 128.971  0.00  0.00    +0.128 C 
ATOM      7  C   LIG A   1      -5.689  -0.221 128.053  0.00  0.00    +0.186 C 
ATOM      8  C   LIG A   1      -6.797   0.148 129.026  0.00  0.00    +0.163 C 
ATOM      9  O   LIG A   1      -7.174   1.324 129.126  0.00  0.00    -0.295 OA
ATOM     10  C   LIG A   1      -7.298  -0.905 129.989  0.00  0.00    +0.087 C 
ENDROOT
BRANCH   4  11
ATOM     11  C   LIG A   1      -7.477  -1.348 125.821  0.00  0.00    -0.040 A 
ATOM     12  C   LIG A   1      -8.733  -0.717 125.930  0.00  0.00    +0.053 A 
ATOM     13  C   LIG A   1      -9.169   0.082 124.889  0.00  0.00    +0.167 A 
ATOM     14  C   LIG A   1      -8.416   0.268 123.757  0.00  0.00    +0.166 A 
ATOM     15  C   LIG A   1      -7.191  -0.334 123.601  0.00  0.00    +0.050 A 
ATOM     16  C   LIG A   1      -6.723  -1.149 124.641  0.00  0.00    +0.008 A 
ATOM     17  O   LIG A   1      -9.016   1.091 122.857  0.00  0.00    -0.453 OA
ATOM     18  C   LIG A   1     -10.238   1.408 123.557  0.00  0.00    +0.466 C 
ATOM     19  O   LIG A   1     -10.341   0.772 124.849  0.00  0.00    -0.453 OA
ENDBRANCH   4  11
BRANCH   6  20
ATOM     20  O   LIG A   1      -4.780  -2.225 129.953  0.00  0.00    -0.391 OA
ATOM     21  H   LIG A   1      -5.069  -1.394 130.388  0.00  0.00    +0.210 HD
ENDBRANCH   6  20
BRANCH   7  22
ATOM     22  O   LIG A   1      -4.428   0.102 128.647  0.00  0.00    -0.384 OA
ATOM     23  H   LIG A   1      -4.197  -0.661 129.213  0.00  0.00    +0.210 HD
ENDBRANCH   7  22
BRANCH   1  24
ATOM     24  C   LIG A   1      -7.559  -3.348 130.596  0.00  0.00    +0.036 C 
BRANCH  24  25
ATOM     25  C   LIG A   1      -7.454  -2.776 131.991  0.00  0.00    -0.034 C 
ATOM     26  C   LIG A   1      -6.621  -3.239 132.931  0.00  0.00    +0.004 C 
ENDBRANCH  24  25
ENDBRANCH   1  24
TORSDOF 5
ENDMDL
