MODEL 1
REMARK VINA RESULT:      -8.3      0.000      0.000
REMARK  Name = NuBBE_976
REMARK  13 active torsions:
REMARK  status: ('A' for Active; 'I' for Inactive)
REMARK    1  A    between atoms: C_2  and  C_24
REMARK    2  A    between atoms: N_3  and  C_4
REMARK    3  A    between atoms: C_4  and  C_5
REMARK    4  A    between atoms: C_5  and  C_6
REMARK    5  A    between atoms: C_9  and  O_10
REMARK    6  A    between atoms: O_10  and  C_11
REMARK    7  A    between atoms: C_11  and  C_12
REMARK    8  A    between atoms: C_13  and  C_14
REMARK    9  A    between atoms: C_13  and  C_15
REMARK   10  A    between atoms: C_15  and  C_16
REMARK   11  A    between atoms: C_16  and  C_17
REMARK   12  A    between atoms: C_18  and  C_19
REMARK   13  A    between atoms: C_18  and  C_20
REMARK                            x       y       z     vdW  Elec       q    Type
REMARK                         _______ _______ _______ _____ _____    ______ ____
ROOT
ATOM      1  C   LIG A   1      -9.048   1.208 131.208  0.00  0.00    -0.046 A 
ATOM      2  C   LIG A   1      -8.678  -0.077 131.612  0.00  0.00    +0.007 A 
ATOM      3  C   LIG A   1      -7.766  -0.826 130.877  0.00  0.00    +0.046 A 
ATOM      4  C   LIG A   1      -7.181  -0.298 129.730  0.00  0.00    +0.121 A 
ATOM      5  C   LIG A   1      -7.505   1.002 129.339  0.00  0.00    +0.046 A 
ATOM      6  C   LIG A   1      -8.436   1.751 130.069  0.00  0.00    +0.007 A 
ENDROOT
BRANCH   1   7
ATOM      7  C   LIG A   1     -10.028   2.028 132.015  0.00  0.00    +0.054 C 
BRANCH   7   8
ATOM      8  C   LIG A   1      -9.537   3.447 132.332  0.00  0.00    +0.109 C 
BRANCH   8  11
ATOM      9  O   LIG A   1      -9.363   6.223 132.729  0.00  0.00    -0.270 OA
ATOM     10  C   LIG A   1     -10.079   5.791 131.831  0.00  0.00    +0.244 C 
ATOM     11  N   LIG A   1     -10.248   4.447 131.570  0.00  0.00    -0.311 N 
ATOM     12  H   LIG A   1     -10.927   4.135 130.890  0.00  0.00    +0.149 HD
BRANCH  10  13
ATOM     13  C   LIG A   1     -10.841   6.724 130.969  0.00  0.00    +0.037 A 
ATOM     14  C   LIG A   1     -12.197   7.002 131.203  0.00  0.00    +0.013 A 
ATOM     15  C   LIG A   1     -12.882   7.875 130.357  0.00  0.00    +0.001 A 
ATOM     16  C   LIG A   1     -12.223   8.463 129.279  0.00  0.00    +0.000 A 
ATOM     17  C   LIG A   1     -10.878   8.180 129.038  0.00  0.00    +0.001 A 
ATOM     18  C   LIG A   1     -10.188   7.309 129.880  0.00  0.00    +0.013 A 
ENDBRANCH  10  13
ENDBRANCH   8  11
ENDBRANCH   7   8
ENDBRANCH   1   7
BRANCH   4  19
ATOM     19  O   LIG A   1      -6.260  -0.956 128.959  0.00  0.00    -0.488 OA
BRANCH  19  20
ATOM     20  C   LIG A   1      -6.561  -2.336 128.731  0.00  0.00    +0.257 C 
BRANCH  20  21
ATOM     21  C   LIG A   1      -7.354  -2.461 127.471  0.00  0.00    +0.012 C 
ATOM     22  C   LIG A   1      -8.488  -3.175 127.304  0.00  0.00    -0.073 C 
ATOM     23  C   LIG A   1      -9.149  -4.011 128.366  0.00  0.00    +0.038 C 
BRANCH  22  24
ATOM     24  C   LIG A   1      -9.212  -3.131 125.972  0.00  0.00    +0.034 C 
BRANCH  24  25
ATOM     25  C   LIG A   1      -8.471  -3.882 124.855  0.00  0.00    +0.031 C 
BRANCH  25  26
ATOM     26  C   LIG A   1      -7.909  -2.957 123.806  0.00  0.00    -0.028 C 
ATOM     27  C   LIG A   1      -6.611  -2.702 123.550  0.00  0.00    -0.080 C 
ATOM     28  C   LIG A   1      -5.457  -3.333 124.278  0.00  0.00    +0.038 C 
ATOM     29  C   LIG A   1      -6.217  -1.694 122.504  0.00  0.00    +0.038 C 
ENDBRANCH  25  26
ENDBRANCH  24  25
ENDBRANCH  22  24
ENDBRANCH  20  21
ENDBRANCH  19  20
ENDBRANCH   4  19
TORSDOF 10
ENDMDL
MODEL 2
REMARK VINA RESULT:      -8.0      1.139      2.410
REMARK  Name = NuBBE_976
REMARK  13 active torsions:
REMARK  status: ('A' for Active; 'I' for Inactive)
REMARK    1  A    between atoms: C_2  and  C_24
REMARK    2  A    between atoms: N_3  and  C_4
REMARK    3  A    between atoms: C_4  and  C_5
REMARK    4  A    between atoms: C_5  and  C_6
REMARK    5  A    between atoms: C_9  and  O_10
REMARK    6  A    between atoms: O_10  and  C_11
REMARK    7  A    between atoms: C_11  and  C_12
REMARK    8  A    between atoms: C_13  and  C_14
REMARK    9  A    between atoms: C_13  and  C_15
REMARK   10  A    between atoms: C_15  and  C_16
REMARK   11  A    between atoms: C_16  and  C_17
REMARK   12  A    between atoms: C_18  and  C_19
REMARK   13  A    between atoms: C_18  and  C_20
REMARK                            x       y       z     vdW  Elec       q    Type
REMARK                         _______ _______ _______ _____ _____    ______ ____
ROOT
ATOM      1  C   LIG A   1      -8.994   1.185 131.489  0.00  0.00    -0.046 A 
ATOM      2  C   LIG A   1      -8.547   1.707 130.272  0.00  0.00    +0.007 A 
ATOM      3  C   LIG A   1      -7.877   0.910 129.351  0.00  0.00    +0.046 A 
ATOM      4  C   LIG A   1      -7.657  -0.439 129.614  0.00  0.00    +0.121 A 
ATOM      5  C   LIG A   1      -8.138  -0.987 130.804  0.00  0.00    +0.046 A 
ATOM      6  C   LIG A   1      -8.799  -0.181 131.740  0.00  0.00    +0.007 A 
ENDROOT
BRANCH   1   7
ATOM      7  C   LIG A   1      -9.735   2.048 132.483  0.00  0.00    +0.054 C 
BRANCH   7   8
ATOM      8  C   LIG A   1      -9.194   3.481 132.587  0.00  0.00    +0.109 C 
BRANCH   8  11
ATOM      9  O   LIG A   1      -9.371   6.250 133.029  0.00  0.00    -0.270 OA
ATOM     10  C   LIG A   1      -9.971   5.757 132.080  0.00  0.00    +0.244 C 
ATOM     11  N   LIG A   1      -9.965   4.407 131.791  0.00  0.00    -0.311 N 
ATOM     12  H   LIG A   1     -10.556   4.033 131.063  0.00  0.00    +0.149 HD
BRANCH  10  13
ATOM     13  C   LIG A   1     -10.778   6.613 131.179  0.00  0.00    +0.037 A 
ATOM     14  C   LIG A   1     -10.222   7.213 130.040  0.00  0.00    +0.013 A 
ATOM     15  C   LIG A   1     -11.012   8.025 129.226  0.00  0.00    +0.001 A 
ATOM     16  C   LIG A   1     -12.350   8.245 129.550  0.00  0.00    +0.000 A 
ATOM     17  C   LIG A   1     -12.904   7.658 130.689  0.00  0.00    +0.001 A 
ATOM     18  C   LIG A   1     -12.118   6.846 131.505  0.00  0.00    +0.013 A 
ENDBRANCH  10  13
ENDBRANCH   8  11
ENDBRANCH   7   8
ENDBRANCH   1   7
BRANCH   4  19
ATOM     19  O   LIG A   1      -7.026  -1.301 128.757  0.00  0.00    -0.488 OA
BRANCH  19  20
ATOM     20  C   LIG A   1      -5.713  -0.887 128.366  0.00  0.00    +0.257 C 
BRANCH  20  21
ATOM     21  C   LIG A   1      -5.376  -1.511 127.051  0.00  0.00    +0.012 C 
ATOM     22  C   LIG A   1      -5.755  -1.072 125.832  0.00  0.00    -0.073 C 
ATOM     23  C   LIG A   1      -6.626   0.129 125.577  0.00  0.00    +0.038 C 
BRANCH  22  24
ATOM     24  C   LIG A   1      -5.258  -1.785 124.590  0.00  0.00    +0.034 C 
BRANCH  24  25
ATOM     25  C   LIG A   1      -5.837  -3.200 124.431  0.00  0.00    +0.031 C 
BRANCH  25  26
ATOM     26  C   LIG A   1      -7.198  -3.202 123.784  0.00  0.00    -0.028 C 
ATOM     27  C   LIG A   1      -8.393  -3.332 124.392  0.00  0.00    -0.080 C 
ATOM     28  C   LIG A   1      -8.585  -3.481 125.875  0.00  0.00    +0.038 C 
ATOM     29  C   LIG A   1      -9.664  -3.381 123.587  0.00  0.00    +0.038 C 
ENDBRANCH  25  26
ENDBRANCH  24  25
ENDBRANCH  22  24
ENDBRANCH  20  21
ENDBRANCH  19  20
ENDBRANCH   4  19
TORSDOF 10
ENDMDL
MODEL 3
REMARK VINA RESULT:      -7.9      1.638      2.808
REMARK  Name = NuBBE_976
REMARK  13 active torsions:
REMARK  status: ('A' for Active; 'I' for Inactive)
REMARK    1  A    between atoms: C_2  and  C_24
REMARK    2  A    between atoms: N_3  and  C_4
REMARK    3  A    between atoms: C_4  and  C_5
REMARK    4  A    between atoms: C_5  and  C_6
REMARK    5  A    between atoms: C_9  and  O_10
REMARK    6  A    between atoms: O_10  and  C_11
REMARK    7  A    between atoms: C_11  and  C_12
REMARK    8  A    between atoms: C_13  and  C_14
REMARK    9  A    between atoms: C_13  and  C_15
REMARK   10  A    between atoms: C_15  and  C_16
REMARK   11  A    between atoms: C_16  and  C_17
REMARK   12  A    between atoms: C_18  and  C_19
REMARK   13  A    between atoms: C_18  and  C_20
REMARK                            x       y       z     vdW  Elec       q    Type
REMARK                         _______ _______ _______ _____ _____    ______ ____
ROOT
ATOM      1  C   LIG A   1      -8.544   3.647 132.754  0.00  0.00    -0.046 A 
ATOM      2  C   LIG A   1      -9.686   2.975 132.312  0.00  0.00    +0.007 A 
ATOM      3  C   LIG A   1      -9.657   1.613 132.037  0.00  0.00    +0.046 A 
ATOM      4  C   LIG A   1      -8.488   0.881 132.220  0.00  0.00    +0.121 A 
ATOM      5  C   LIG A   1      -7.351   1.528 132.706  0.00  0.00    +0.046 A 
ATOM      6  C   LIG A   1      -7.374   2.903 132.968  0.00  0.00    +0.007 A 
ENDROOT
BRANCH   1   7
ATOM      7  C   LIG A   1      -8.579   5.125 133.068  0.00  0.00    +0.054 C 
BRANCH   7   8
ATOM      8  C   LIG A   1      -9.959   5.767 132.875  0.00  0.00    +0.109 C 
BRANCH   8  11
ATOM      9  O   LIG A   1     -12.424   6.533 131.763  0.00  0.00    -0.270 OA
ATOM     10  C   LIG A   1     -11.414   6.588 131.071  0.00  0.00    +0.244 C 
ATOM     11  N   LIG A   1     -10.162   6.214 131.516  0.00  0.00    -0.311 N 
ATOM     12  H   LIG A   1      -9.378   6.178 130.880  0.00  0.00    +0.149 HD
BRANCH  10  13
ATOM     13  C   LIG A   1     -11.494   7.052 129.666  0.00  0.00    +0.037 A 
ATOM     14  C   LIG A   1     -10.508   7.878 129.106  0.00  0.00    +0.013 A 
ATOM     15  C   LIG A   1     -10.630   8.306 127.784  0.00  0.00    +0.001 A 
ATOM     16  C   LIG A   1     -11.732   7.919 127.024  0.00  0.00    +0.000 A 
ATOM     17  C   LIG A   1     -12.720   7.106 127.582  0.00  0.00    +0.001 A 
ATOM     18  C   LIG A   1     -12.603   6.675 128.903  0.00  0.00    +0.013 A 
ENDBRANCH  10  13
ENDBRANCH   8  11
ENDBRANCH   7   8
ENDBRANCH   1   7
BRANCH   4  19
ATOM     19  O   LIG A   1      -8.375  -0.465 131.995  0.00  0.00    -0.488 OA
BRANCH  19  20
ATOM     20  C   LIG A   1      -7.186  -0.847 131.296  0.00  0.00    +0.257 C 
BRANCH  20  21
ATOM     21  C   LIG A   1      -7.494  -0.971 129.840  0.00  0.00    +0.012 C 
ATOM     22  C   LIG A   1      -7.661  -2.120 129.150  0.00  0.00    -0.073 C 
ATOM     23  C   LIG A   1      -7.536  -3.504 129.728  0.00  0.00    +0.038 C 
BRANCH  22  24
ATOM     24  C   LIG A   1      -8.047  -2.064 127.684  0.00  0.00    +0.034 C 
BRANCH  24  25
ATOM     25  C   LIG A   1      -8.733  -3.348 127.189  0.00  0.00    +0.031 C 
BRANCH  25  26
ATOM     26  C   LIG A   1      -9.353  -3.186 125.825  0.00  0.00    -0.028 C 
ATOM     27  C   LIG A   1      -8.760  -3.366 124.630  0.00  0.00    -0.080 C 
ATOM     28  C   LIG A   1      -7.331  -3.793 124.441  0.00  0.00    +0.038 C 
ATOM     29  C   LIG A   1      -9.508  -3.098 123.351  0.00  0.00    +0.038 C 
ENDBRANCH  25  26
ENDBRANCH  24  25
ENDBRANCH  22  24
ENDBRANCH  20  21
ENDBRANCH  19  20
ENDBRANCH   4  19
TORSDOF 10
ENDMDL
MODEL 4
REMARK VINA RESULT:      -7.7      1.356      1.976
REMARK  Name = NuBBE_976
REMARK  13 active torsions:
REMARK  status: ('A' for Active; 'I' for Inactive)
REMARK    1  A    between atoms: C_2  and  C_24
REMARK    2  A    between atoms: N_3  and  C_4
REMARK    3  A    between atoms: C_4  and  C_5
REMARK    4  A    between atoms: C_5  and  C_6
REMARK    5  A    between atoms: C_9  and  O_10
REMARK    6  A    between atoms: O_10  and  C_11
REMARK    7  A    between atoms: C_11  and  C_12
REMARK    8  A    between atoms: C_13  and  C_14
REMARK    9  A    between atoms: C_13  and  C_15
REMARK   10  A    between atoms: C_15  and  C_16
REMARK   11  A    between atoms: C_16  and  C_17
REMARK   12  A    between atoms: C_18  and  C_19
REMARK   13  A    between atoms: C_18  and  C_20
REMARK                            x       y       z     vdW  Elec       q    Type
REMARK                         _______ _______ _______ _____ _____    ______ ____
ROOT
ATOM      1  C   LIG A   1      -9.012   1.267 131.157  0.00  0.00    -0.046 A 
ATOM      2  C   LIG A   1      -8.586  -0.053 131.327  0.00  0.00    +0.007 A 
ATOM      3  C   LIG A   1      -7.974  -0.750 130.292  0.00  0.00    +0.046 A 
ATOM      4  C   LIG A   1      -7.749  -0.135 129.065  0.00  0.00    +0.121 A 
ATOM      5  C   LIG A   1      -8.125   1.198 128.893  0.00  0.00    +0.046 A 
ATOM      6  C   LIG A   1      -8.758   1.895 129.929  0.00  0.00    +0.007 A 
ENDROOT
BRANCH   1   7
ATOM      7  C   LIG A   1      -9.664   2.029 132.287  0.00  0.00    +0.054 C 
BRANCH   7   8
ATOM      8  C   LIG A   1      -9.147   3.464 132.448  0.00  0.00    +0.109 C 
BRANCH   8  11
ATOM      9  O   LIG A   1      -9.414   6.199 133.037  0.00  0.00    -0.270 OA
ATOM     10  C   LIG A   1      -9.987   5.741 132.054  0.00  0.00    +0.244 C 
ATOM     11  N   LIG A   1      -9.936   4.410 131.692  0.00  0.00    -0.311 N 
ATOM     12  H   LIG A   1     -10.506   4.059 130.937  0.00  0.00    +0.149 HD
BRANCH  10  13
ATOM     13  C   LIG A   1     -10.808   6.621 131.190  0.00  0.00    +0.037 A 
ATOM     14  C   LIG A   1     -10.292   7.190 130.017  0.00  0.00    +0.013 A 
ATOM     15  C   LIG A   1     -11.094   8.026 129.239  0.00  0.00    +0.001 A 
ATOM     16  C   LIG A   1     -12.403   8.299 129.632  0.00  0.00    +0.000 A 
ATOM     17  C   LIG A   1     -12.916   7.743 130.805  0.00  0.00    +0.001 A 
ATOM     18  C   LIG A   1     -12.118   6.907 131.585  0.00  0.00    +0.013 A 
ENDBRANCH  10  13
ENDBRANCH   8  11
ENDBRANCH   7   8
ENDBRANCH   1   7
BRANCH   4  19
ATOM     19  O   LIG A   1      -7.135  -0.738 127.999  0.00  0.00    -0.488 OA
BRANCH  19  20
ATOM     20  C   LIG A   1      -7.270  -2.162 127.969  0.00  0.00    +0.257 C 
BRANCH  20  21
ATOM     21  C   LIG A   1      -7.110  -2.639 126.563  0.00  0.00    +0.012 C 
ATOM     22  C   LIG A   1      -8.101  -2.989 125.715  0.00  0.00    -0.073 C 
ATOM     23  C   LIG A   1      -9.568  -2.990 126.053  0.00  0.00    +0.038 C 
BRANCH  22  24
ATOM     24  C   LIG A   1      -7.766  -3.380 124.289  0.00  0.00    +0.034 C 
BRANCH  24  25
ATOM     25  C   LIG A   1      -7.286  -2.197 123.434  0.00  0.00    +0.031 C 
BRANCH  25  26
ATOM     26  C   LIG A   1      -8.425  -1.408 122.841  0.00  0.00    -0.028 C 
ATOM     27  C   LIG A   1      -8.944  -0.251 123.297  0.00  0.00    -0.080 C 
ATOM     28  C   LIG A   1      -8.447   0.489 124.507  0.00  0.00    +0.038 C 
ATOM     29  C   LIG A   1     -10.133   0.378 122.622  0.00  0.00    +0.038 C 
ENDBRANCH  25  26
ENDBRANCH  24  25
ENDBRANCH  22  24
ENDBRANCH  20  21
ENDBRANCH  19  20
ENDBRANCH   4  19
TORSDOF 10
ENDMDL
MODEL 5
REMARK VINA RESULT:      -7.7      4.396      7.715
REMARK  Name = NuBBE_976
REMARK  13 active torsions:
REMARK  status: ('A' for Active; 'I' for Inactive)
REMARK    1  A    between atoms: C_2  and  C_24
REMARK    2  A    between atoms: N_3  and  C_4
REMARK    3  A    between atoms: C_4  and  C_5
REMARK    4  A    between atoms: C_5  and  C_6
REMARK    5  A    between atoms: C_9  and  O_10
REMARK    6  A    between atoms: O_10  and  C_11
REMARK    7  A    between atoms: C_11  and  C_12
REMARK    8  A    between atoms: C_13  and  C_14
REMARK    9  A    between atoms: C_13  and  C_15
REMARK   10  A    between atoms: C_15  and  C_16
REMARK   11  A    between atoms: C_16  and  C_17
REMARK   12  A    between atoms: C_18  and  C_19
REMARK   13  A    between atoms: C_18  and  C_20
REMARK                            x       y       z     vdW  Elec       q    Type
REMARK                         _______ _______ _______ _____ _____    ______ ____
ROOT
ATOM      1  C   LIG A   1      -7.461  -2.959 125.618  0.00  0.00    -0.046 A 
ATOM      2  C   LIG A   1      -8.296  -2.926 126.738  0.00  0.00    +0.007 A 
ATOM      3  C   LIG A   1      -7.914  -2.267 127.901  0.00  0.00    +0.046 A 
ATOM      4  C   LIG A   1      -6.695  -1.601 127.965  0.00  0.00    +0.121 A 
ATOM      5  C   LIG A   1      -5.869  -1.584 126.841  0.00  0.00    +0.046 A 
ATOM      6  C   LIG A   1      -6.245  -2.262 125.675  0.00  0.00    +0.007 A 
ENDROOT
BRANCH   1   7
ATOM      7  C   LIG A   1      -7.883  -3.663 124.350  0.00  0.00    +0.054 C 
BRANCH   7   8
ATOM      8  C   LIG A   1      -8.948  -2.907 123.545  0.00  0.00    +0.109 C 
BRANCH   8  11
ATOM      9  O   LIG A   1      -9.825  -0.521 124.744  0.00  0.00    -0.270 OA
ATOM     10  C   LIG A   1      -8.988  -0.468 123.848  0.00  0.00    +0.244 C 
ATOM     11  N   LIG A   1      -8.511  -1.579 123.183  0.00  0.00    -0.311 N 
ATOM     12  H   LIG A   1      -7.902  -1.479 122.384  0.00  0.00    +0.149 HD
BRANCH  10  13
ATOM     13  C   LIG A   1      -8.449   0.839 123.406  0.00  0.00    +0.037 A 
ATOM     14  C   LIG A   1      -9.249   1.778 122.738  0.00  0.00    +0.013 A 
ATOM     15  C   LIG A   1      -8.698   2.991 122.325  0.00  0.00    +0.001 A 
ATOM     16  C   LIG A   1      -7.354   3.266 122.569  0.00  0.00    +0.000 A 
ATOM     17  C   LIG A   1      -6.552   2.329 123.224  0.00  0.00    +0.001 A 
ATOM     18  C   LIG A   1      -7.098   1.115 123.639  0.00  0.00    +0.013 A 
ENDBRANCH  10  13
ENDBRANCH   8  11
ENDBRANCH   7   8
ENDBRANCH   1   7
BRANCH   4  19
ATOM     19  O   LIG A   1      -6.248  -0.909 129.061  0.00  0.00    -0.488 OA
BRANCH  19  20
ATOM     20  C   LIG A   1      -7.238  -0.079 129.676  0.00  0.00    +0.257 C 
BRANCH  20  21
ATOM     21  C   LIG A   1      -7.008   1.339 129.265  0.00  0.00    +0.012 C 
ATOM     22  C   LIG A   1      -7.618   1.991 128.251  0.00  0.00    -0.073 C 
ATOM     23  C   LIG A   1      -8.634   1.385 127.320  0.00  0.00    +0.038 C 
BRANCH  22  24
ATOM     24  C   LIG A   1      -7.322   3.459 128.018  0.00  0.00    +0.034 C 
BRANCH  24  25
ATOM     25  C   LIG A   1      -6.856   3.763 126.585  0.00  0.00    +0.031 C 
BRANCH  25  26
ATOM     26  C   LIG A   1      -5.383   4.072 126.505  0.00  0.00    -0.028 C 
ATOM     27  C   LIG A   1      -4.368   3.195 126.395  0.00  0.00    -0.080 C 
ATOM     28  C   LIG A   1      -4.533   1.703 126.309  0.00  0.00    +0.038 C 
ATOM     29  C   LIG A   1      -2.938   3.668 126.394  0.00  0.00    +0.038 C 
ENDBRANCH  25  26
ENDBRANCH  24  25
ENDBRANCH  22  24
ENDBRANCH  20  21
ENDBRANCH  19  20
ENDBRANCH   4  19
TORSDOF 10
ENDMDL
MODEL 6
REMARK VINA RESULT:      -7.5      2.285      3.483
REMARK  Name = NuBBE_976
REMARK  13 active torsions:
REMARK  status: ('A' for Active; 'I' for Inactive)
REMARK    1  A    between atoms: C_2  and  C_24
REMARK    2  A    between atoms: N_3  and  C_4
REMARK    3  A    between atoms: C_4  and  C_5
REMARK    4  A    between atoms: C_5  and  C_6
REMARK    5  A    between atoms: C_9  and  O_10
REMARK    6  A    between atoms: O_10  and  C_11
REMARK    7  A    between atoms: C_11  and  C_12
REMARK    8  A    between atoms: C_13  and  C_14
REMARK    9  A    between atoms: C_13  and  C_15
REMARK   10  A    between atoms: C_15  and  C_16
REMARK   11  A    between atoms: C_16  and  C_17
REMARK   12  A    between atoms: C_18  and  C_19
REMARK   13  A    between atoms: C_18  and  C_20
REMARK                            x       y       z     vdW  Elec       q    Type
REMARK                         _______ _______ _______ _____ _____    ______ ____
ROOT
ATOM      1  C   LIG A   1      -8.419   3.071 133.633  0.00  0.00    -0.046 A 
ATOM      2  C   LIG A   1      -9.500   2.624 132.870  0.00  0.00    +0.007 A 
ATOM      3  C   LIG A   1      -9.399   1.485 132.078  0.00  0.00    +0.046 A 
ATOM      4  C   LIG A   1      -8.219   0.750 132.048  0.00  0.00    +0.121 A 
ATOM      5  C   LIG A   1      -7.144   1.156 132.841  0.00  0.00    +0.046 A 
ATOM      6  C   LIG A   1      -7.239   2.312 133.626  0.00  0.00    +0.007 A 
ENDROOT
BRANCH   1   7
ATOM      7  C   LIG A   1      -8.533   4.300 134.505  0.00  0.00    +0.054 C 
BRANCH   7   8
ATOM      8  C   LIG A   1      -8.211   5.610 133.775  0.00  0.00    +0.109 C 
BRANCH   8  11
ATOM      9  O   LIG A   1      -8.123   6.365 131.069  0.00  0.00    -0.270 OA
ATOM     10  C   LIG A   1      -9.191   6.416 131.669  0.00  0.00    +0.244 C 
ATOM     11  N   LIG A   1      -9.335   6.088 133.002  0.00  0.00    -0.311 N 
ATOM     12  H   LIG A   1     -10.210   6.245 133.481  0.00  0.00    +0.149 HD
BRANCH  10  13
ATOM     13  C   LIG A   1     -10.418   6.870 130.974  0.00  0.00    +0.037 A 
ATOM     14  C   LIG A   1     -10.364   7.498 129.721  0.00  0.00    +0.013 A 
ATOM     15  C   LIG A   1     -11.542   7.925 129.106  0.00  0.00    +0.001 A 
ATOM     16  C   LIG A   1     -12.768   7.734 129.740  0.00  0.00    +0.000 A 
ATOM     17  C   LIG A   1     -12.824   7.119 130.992  0.00  0.00    +0.001 A 
ATOM     18  C   LIG A   1     -11.650   6.690 131.610  0.00  0.00    +0.013 A 
ENDBRANCH  10  13
ENDBRANCH   8  11
ENDBRANCH   7   8
ENDBRANCH   1   7
BRANCH   4  19
ATOM     19  O   LIG A   1      -8.038  -0.394 131.315  0.00  0.00    -0.488 OA
BRANCH  19  20
ATOM     20  C   LIG A   1      -8.028  -1.595 132.092  0.00  0.00    +0.257 C 
BRANCH  20  21
ATOM     21  C   LIG A   1      -6.941  -2.490 131.591  0.00  0.00    +0.012 C 
ATOM     22  C   LIG A   1      -6.976  -3.248 130.475  0.00  0.00    -0.073 C 
ATOM     23  C   LIG A   1      -8.147  -3.352 129.534  0.00  0.00    +0.038 C 
BRANCH  22  24
ATOM     24  C   LIG A   1      -5.750  -4.045 130.070  0.00  0.00    +0.034 C 
BRANCH  24  25
ATOM     25  C   LIG A   1      -4.601  -3.166 129.553  0.00  0.00    +0.031 C 
BRANCH  25  26
ATOM     26  C   LIG A   1      -4.857  -2.629 128.168  0.00  0.00    -0.028 C 
ATOM     27  C   LIG A   1      -5.275  -1.393 127.835  0.00  0.00    -0.080 C 
ATOM     28  C   LIG A   1      -5.549  -0.290 128.818  0.00  0.00    +0.038 C 
ATOM     29  C   LIG A   1      -5.549  -1.034 126.398  0.00  0.00    +0.038 C 
ENDBRANCH  25  26
ENDBRANCH  24  25
ENDBRANCH  22  24
ENDBRANCH  20  21
ENDBRANCH  19  20
ENDBRANCH   4  19
TORSDOF 10
ENDMDL
MODEL 7
REMARK VINA RESULT:      -7.5      4.933      6.724
REMARK  Name = NuBBE_976
REMARK  13 active torsions:
REMARK  status: ('A' for Active; 'I' for Inactive)
REMARK    1  A    between atoms: C_2  and  C_24
REMARK    2  A    between atoms: N_3  and  C_4
REMARK    3  A    between atoms: C_4  and  C_5
REMARK    4  A    between atoms: C_5  and  C_6
REMARK    5  A    between atoms: C_9  and  O_10
REMARK    6  A    between atoms: O_10  and  C_11
REMARK    7  A    between atoms: C_11  and  C_12
REMARK    8  A    between atoms: C_13  and  C_14
REMARK    9  A    between atoms: C_13  and  C_15
REMARK   10  A    between atoms: C_15  and  C_16
REMARK   11  A    between atoms: C_16  and  C_17
REMARK   12  A    between atoms: C_18  and  C_19
REMARK   13  A    between atoms: C_18  and  C_20
REMARK                            x       y       z     vdW  Elec       q    Type
REMARK                         _______ _______ _______ _____ _____    ______ ____
ROOT
ATOM      1  C   LIG A   1      -6.710   1.848 125.664  0.00  0.00    -0.046 A 
ATOM      2  C   LIG A   1      -7.751   1.212 126.345  0.00  0.00    +0.007 A 
ATOM      3  C   LIG A   1      -8.848   0.699 125.663  0.00  0.00    +0.046 A 
ATOM      4  C   LIG A   1      -8.920   0.787 124.276  0.00  0.00    +0.121 A 
ATOM      5  C   LIG A   1      -7.867   1.378 123.577  0.00  0.00    +0.046 A 
ATOM      6  C   LIG A   1      -6.770   1.910 124.264  0.00  0.00    +0.007 A 
ENDROOT
BRANCH   1   7
ATOM      7  C   LIG A   1      -5.511   2.394 126.405  0.00  0.00    +0.054 C 
BRANCH   7   8
ATOM      8  C   LIG A   1      -5.745   3.773 127.036  0.00  0.00    +0.109 C 
BRANCH   8  11
ATOM      9  O   LIG A   1      -4.305   6.136 127.521  0.00  0.00    -0.270 OA
ATOM     10  C   LIG A   1      -4.224   5.212 128.323  0.00  0.00    +0.244 C 
ATOM     11  N   LIG A   1      -4.874   4.005 128.164  0.00  0.00    -0.311 N 
ATOM     12  H   LIG A   1      -4.696   3.236 128.795  0.00  0.00    +0.149 HD
BRANCH  10  13
ATOM     13  C   LIG A   1      -3.377   5.343 129.532  0.00  0.00    +0.037 A 
ATOM     14  C   LIG A   1      -2.410   6.353 129.647  0.00  0.00    +0.013 A 
ATOM     15  C   LIG A   1      -1.623   6.432 130.796  0.00  0.00    +0.001 A 
ATOM     16  C   LIG A   1      -1.792   5.505 131.823  0.00  0.00    +0.000 A 
ATOM     17  C   LIG A   1      -2.746   4.492 131.706  0.00  0.00    +0.001 A 
ATOM     18  C   LIG A   1      -3.536   4.409 130.560  0.00  0.00    +0.013 A 
ENDBRANCH  10  13
ENDBRANCH   8  11
ENDBRANCH   7   8
ENDBRANCH   1   7
BRANCH   4  19
ATOM     19  O   LIG A   1      -9.951   0.291 123.522  0.00  0.00    -0.488 OA
BRANCH  19  20
ATOM     20  C   LIG A   1      -9.566  -0.733 122.600  0.00  0.00    +0.257 C 
BRANCH  20  21
ATOM     21  C   LIG A   1      -9.200  -1.964 123.362  0.00  0.00    +0.012 C 
ATOM     22  C   LIG A   1      -7.969  -2.507 123.470  0.00  0.00    -0.073 C 
ATOM     23  C   LIG A   1      -6.728  -1.975 122.804  0.00  0.00    +0.038 C 
BRANCH  22  24
ATOM     24  C   LIG A   1      -7.759  -3.723 124.350  0.00  0.00    +0.034 C 
BRANCH  24  25
ATOM     25  C   LIG A   1      -8.487  -3.627 125.700  0.00  0.00    +0.031 C 
BRANCH  25  26
ATOM     26  C   LIG A   1      -7.837  -2.648 126.644  0.00  0.00    -0.028 C 
ATOM     27  C   LIG A   1      -7.930  -2.622 127.987  0.00  0.00    -0.080 C 
ATOM     28  C   LIG A   1      -8.709  -3.610 128.809  0.00  0.00    +0.038 C 
ATOM     29  C   LIG A   1      -7.267  -1.529 128.783  0.00  0.00    +0.038 C 
ENDBRANCH  25  26
ENDBRANCH  24  25
ENDBRANCH  22  24
ENDBRANCH  20  21
ENDBRANCH  19  20
ENDBRANCH   4  19
TORSDOF 10
ENDMDL
MODEL 8
REMARK VINA RESULT:      -7.4      5.727      7.701
REMARK  Name = NuBBE_976
REMARK  13 active torsions:
REMARK  status: ('A' for Active; 'I' for Inactive)
REMARK    1  A    between atoms: C_2  and  C_24
REMARK    2  A    between atoms: N_3  and  C_4
REMARK    3  A    between atoms: C_4  and  C_5
REMARK    4  A    between atoms: C_5  and  C_6
REMARK    5  A    between atoms: C_9  and  O_10
REMARK    6  A    between atoms: O_10  and  C_11
REMARK    7  A    between atoms: C_11  and  C_12
REMARK    8  A    between atoms: C_13  and  C_14
REMARK    9  A    between atoms: C_13  and  C_15
REMARK   10  A    between atoms: C_15  and  C_16
REMARK   11  A    between atoms: C_16  and  C_17
REMARK   12  A    between atoms: C_18  and  C_19
REMARK   13  A    between atoms: C_18  and  C_20
REMARK                            x       y       z     vdW  Elec       q    Type
REMARK                         _______ _______ _______ _____ _____    ______ ____
ROOT
ATOM      1  C   LIG A   1      -7.355   4.117 132.737  0.00  0.00    -0.046 A 
ATOM      2  C   LIG A   1      -6.717   5.254 132.237  0.00  0.00    +0.007 A 
ATOM      3  C   LIG A   1      -5.820   5.976 133.016  0.00  0.00    +0.046 A 
ATOM      4  C   LIG A   1      -5.519   5.564 134.310  0.00  0.00    +0.121 A 
ATOM      5  C   LIG A   1      -6.112   4.403 134.809  0.00  0.00    +0.046 A 
ATOM      6  C   LIG A   1      -7.028   3.685 134.031  0.00  0.00    +0.007 A 
ENDROOT
BRANCH   1   7
ATOM      7  C   LIG A   1      -8.319   3.323 131.886  0.00  0.00    +0.054 C 
BRANCH   7   8
ATOM      8  C   LIG A   1      -9.795   3.641 132.160  0.00  0.00    +0.109 C 
BRANCH   8  11
ATOM      9  O   LIG A   1     -10.081   6.371 132.762  0.00  0.00    -0.270 OA
ATOM     10  C   LIG A   1     -10.390   5.970 131.645  0.00  0.00    +0.244 C 
ATOM     11  N   LIG A   1     -10.307   4.647 131.259  0.00  0.00    -0.311 N 
ATOM     12  H   LIG A   1     -10.670   4.347 130.366  0.00  0.00    +0.149 HD
BRANCH  10  13
ATOM     13  C   LIG A   1     -10.908   6.915 130.629  0.00  0.00    +0.037 A 
ATOM     14  C   LIG A   1     -12.235   7.368 130.653  0.00  0.00    +0.013 A 
ATOM     15  C   LIG A   1     -12.687   8.246 129.667  0.00  0.00    +0.001 A 
ATOM     16  C   LIG A   1     -11.824   8.666 128.658  0.00  0.00    +0.000 A 
ATOM     17  C   LIG A   1     -10.505   8.209 128.625  0.00  0.00    +0.001 A 
ATOM     18  C   LIG A   1     -10.048   7.331 129.608  0.00  0.00    +0.013 A 
ENDBRANCH  10  13
ENDBRANCH   8  11
ENDBRANCH   7   8
ENDBRANCH   1   7
BRANCH   4  19
ATOM     19  O   LIG A   1      -4.633   6.201 135.139  0.00  0.00    -0.488 OA
BRANCH  19  20
ATOM     20  C   LIG A   1      -3.351   5.571 135.225  0.00  0.00    +0.257 C 
BRANCH  20  21
ATOM     21  C   LIG A   1      -2.487   6.068 134.113  0.00  0.00    +0.012 C 
ATOM     22  C   LIG A   1      -2.039   5.349 133.061  0.00  0.00    -0.073 C 
ATOM     23  C   LIG A   1      -2.310   3.886 132.835  0.00  0.00    +0.038 C 
BRANCH  22  24
ATOM     24  C   LIG A   1      -1.230   6.032 131.976  0.00  0.00    +0.034 C 
BRANCH  24  25
ATOM     25  C   LIG A   1      -2.101   6.741 130.926  0.00  0.00    +0.031 C 
BRANCH  25  26
ATOM     26  C   LIG A   1      -2.013   6.097 129.566  0.00  0.00    -0.028 C 
ATOM     27  C   LIG A   1      -2.841   5.172 129.044  0.00  0.00    -0.080 C 
ATOM     28  C   LIG A   1      -4.051   4.617 129.743  0.00  0.00    +0.038 C 
ATOM     29  C   LIG A   1      -2.573   4.578 127.687  0.00  0.00    +0.038 C 
ENDBRANCH  25  26
ENDBRANCH  24  25
ENDBRANCH  22  24
ENDBRANCH  20  21
ENDBRANCH  19  20
ENDBRANCH   4  19
TORSDOF 10
ENDMDL
MODEL 9
REMARK VINA RESULT:      -7.4      3.843      6.423
REMARK  Name = NuBBE_976
REMARK  13 active torsions:
REMARK  status: ('A' for Active; 'I' for Inactive)
REMARK    1  A    between atoms: C_2  and  C_24
REMARK    2  A    between atoms: N_3  and  C_4
REMARK    3  A    between atoms: C_4  and  C_5
REMARK    4  A    between atoms: C_5  and  C_6
REMARK    5  A    between atoms: C_9  and  O_10
REMARK    6  A    between atoms: O_10  and  C_11
REMARK    7  A    between atoms: C_11  and  C_12
REMARK    8  A    between atoms: C_13  and  C_14
REMARK    9  A    between atoms: C_13  and  C_15
REMARK   10  A    between atoms: C_15  and  C_16
REMARK   11  A    between atoms: C_16  and  C_17
REMARK   12  A    between atoms: C_18  and  C_19
REMARK   13  A    between atoms: C_18  and  C_20
REMARK                            x       y       z     vdW  Elec       q    Type
REMARK                         _______ _______ _______ _____ _____    ______ ____
ROOT
ATOM      1  C   LIG A   1      -7.917  -2.990 127.842  0.00  0.00    -0.046 A 
ATOM      2  C   LIG A   1      -6.838  -2.284 127.304  0.00  0.00    +0.007 A 
ATOM      3  C   LIG A   1      -6.771  -1.997 125.945  0.00  0.00    +0.046 A 
ATOM      4  C   LIG A   1      -7.798  -2.389 125.091  0.00  0.00    +0.121 A 
ATOM      5  C   LIG A   1      -8.905  -3.054 125.620  0.00  0.00    +0.046 A 
ATOM      6  C   LIG A   1      -8.965  -3.358 126.985  0.00  0.00    +0.007 A 
ENDROOT
BRANCH   1   7
ATOM      7  C   LIG A   1      -7.995  -3.289 129.321  0.00  0.00    +0.054 C 
BRANCH   7   8
ATOM      8  C   LIG A   1      -6.992  -2.496 130.169  0.00  0.00    +0.109 C 
BRANCH   8  11
ATOM      9  O   LIG A   1      -6.988  -1.608 132.835  0.00  0.00    -0.270 OA
ATOM     10  C   LIG A   1      -7.479  -0.893 131.968  0.00  0.00    +0.244 C 
ATOM     11  N   LIG A   1      -7.548  -1.247 130.636  0.00  0.00    -0.311 N 
ATOM     12  H   LIG A   1      -8.053  -0.673 129.975  0.00  0.00    +0.149 HD
BRANCH  10  13
ATOM     13  C   LIG A   1      -8.061   0.422 132.324  0.00  0.00    +0.037 A 
ATOM     14  C   LIG A   1      -9.345   0.798 131.901  0.00  0.00    +0.013 A 
ATOM     15  C   LIG A   1      -9.850   2.052 132.246  0.00  0.00    +0.001 A 
ATOM     16  C   LIG A   1      -9.078   2.931 133.003  0.00  0.00    +0.000 A 
ATOM     17  C   LIG A   1      -7.797   2.564 133.417  0.00  0.00    +0.001 A 
ATOM     18  C   LIG A   1      -7.287   1.311 133.075  0.00  0.00    +0.013 A 
ENDBRANCH  10  13
ENDBRANCH   8  11
ENDBRANCH   7   8
ENDBRANCH   1   7
BRANCH   4  19
ATOM     19  O   LIG A   1      -7.825  -2.130 123.746  0.00  0.00    -0.488 OA
BRANCH  19  20
ATOM     20  C   LIG A   1      -8.978  -1.403 123.311  0.00  0.00    +0.257 C 
BRANCH  20  21
ATOM     21  C   LIG A   1      -8.656   0.056 123.291  0.00  0.00    +0.012 C 
ATOM     22  C   LIG A   1      -8.935   0.952 124.262  0.00  0.00    -0.073 C 
ATOM     23  C   LIG A   1      -9.659   0.643 125.545  0.00  0.00    +0.038 C 
BRANCH  22  24
ATOM     24  C   LIG A   1      -8.468   2.387 124.114  0.00  0.00    +0.034 C 
BRANCH  24  25
ATOM     25  C   LIG A   1      -7.020   2.504 123.611  0.00  0.00    +0.031 C 
BRANCH  25  26
ATOM     26  C   LIG A   1      -6.938   2.973 122.181  0.00  0.00    -0.028 C 
ATOM     27  C   LIG A   1      -6.059   3.849 121.657  0.00  0.00    -0.080 C 
ATOM     28  C   LIG A   1      -4.958   4.521 122.429  0.00  0.00    +0.038 C 
ATOM     29  C   LIG A   1      -6.155   4.264 120.212  0.00  0.00    +0.038 C 
ENDBRANCH  25  26
ENDBRANCH  24  25
ENDBRANCH  22  24
ENDBRANCH  20  21
ENDBRANCH  19  20
ENDBRANCH   4  19
TORSDOF 10
ENDMDL
