MODEL 1
REMARK VINA RESULT:      -6.7      0.000      0.000
REMARK  Name = NuBBE_1871
REMARK  14 active torsions:
REMARK  status: ('A' for Active; 'I' for Inactive)
REMARK    1  A    between atoms: C_1  and  O_2
REMARK    2  A    between atoms: O_2  and  C_3
REMARK    3  A    between atoms: C_4  and  O_5
REMARK    4  A    between atoms: O_5  and  C_6
REMARK    5  A    between atoms: C_7  and  O_8
REMARK    6  A    between atoms: O_8  and  C_9
REMARK    7  A    between atoms: C_13  and  C_14
REMARK    8  A    between atoms: C_16  and  O_17
REMARK    9  A    between atoms: C_18  and  O_19
REMARK   10  A    between atoms: O_19  and  C_20
REMARK   11  A    between atoms: C_21  and  O_22
REMARK   12  A    between atoms: O_22  and  C_23
REMARK   13  A    between atoms: C_25  and  O_26
REMARK   14  A    between atoms: O_26  and  C_27
REMARK                            x       y       z     vdW  Elec       q    Type
REMARK                         _______ _______ _______ _____ _____    ______ ____
ROOT
ATOM      1  C   LIG A   1      -6.357   1.889 129.777  0.00  0.00    +0.180 A 
ATOM      2  C   LIG A   1      -6.500   1.062 128.632  0.00  0.00    +0.204 A 
ATOM      3  C   LIG A   1      -7.766   0.993 127.987  0.00  0.00    +0.169 A 
ATOM      4  C   LIG A   1      -8.825   1.776 128.425  0.00  0.00    +0.096 A 
ATOM      5  C   LIG A   1      -8.651   2.644 129.479  0.00  0.00    +0.147 A 
ATOM      6  O   LIG A   1      -9.684   3.506 129.721  0.00  0.00    -0.451 OA
ATOM      7  C   LIG A   1      -9.367   4.670 130.388  0.00  0.00    +0.181 A 
ATOM      8  C   LIG A   1      -8.319   4.786 131.235  0.00  0.00    +0.211 A 
ATOM      9  C   LIG A   1      -7.461   2.658 130.205  0.00  0.00    +0.113 A 
ATOM     10  C   LIG A   1      -7.470   3.554 131.370  0.00  0.00    +0.238 A 
ATOM     11  O   LIG A   1      -6.843   3.279 132.407  0.00  0.00    -0.283 OA
ENDROOT
BRANCH   7  12
ATOM     12  C   LIG A   1     -10.317   5.759 130.115  0.00  0.00    +0.028 A 
ATOM     13  C   LIG A   1     -11.359   6.049 131.000  0.00  0.00    +0.061 A 
ATOM     14  C   LIG A   1     -12.300   7.038 130.684  0.00  0.00    +0.163 A 
ATOM     15  C   LIG A   1     -12.191   7.795 129.508  0.00  0.00    +0.203 A 
ATOM     16  C   LIG A   1     -11.075   7.576 128.670  0.00  0.00    +0.166 A 
ATOM     17  C   LIG A   1     -10.168   6.545 128.971  0.00  0.00    +0.061 A 
BRANCH  14  18
ATOM     18  O   LIG A   1     -13.321   7.243 131.573  0.00  0.00    -0.503 OA
ATOM     19  H   LIG A   1     -13.458   8.199 131.671  0.00  0.00    +0.292 HD
ENDBRANCH  14  18
BRANCH  15  20
ATOM     20  O   LIG A   1     -13.074   8.772 129.109  0.00  0.00    -0.488 OA
ATOM     21  C   LIG A   1     -12.999  10.022 129.791  0.00  0.00    +0.277 C 
ENDBRANCH  15  20
BRANCH  16  22
ATOM     22  O   LIG A   1     -10.946   8.387 127.565  0.00  0.00    -0.491 OA
ATOM     23  C   LIG A   1     -10.941   7.740 126.295  0.00  0.00    +0.277 C 
ENDBRANCH  16  22
ENDBRANCH   7  12
BRANCH   1  25
ATOM     24  C   LIG A   1      -4.183   2.852 130.089  0.00  0.00    +0.277 C 
ATOM     25  O   LIG A   1      -5.227   2.007 130.551  0.00  0.00    -0.490 OA
ENDBRANCH   1  25
BRANCH   2  26
ATOM     26  O   LIG A   1      -5.390   0.363 128.200  0.00  0.00    -0.488 OA
ATOM     27  C   LIG A   1      -5.180  -0.959 128.704  0.00  0.00    +0.277 C 
ENDBRANCH   2  26
BRANCH   3  28
ATOM     28  O   LIG A   1      -7.896   0.164 126.914  0.00  0.00    -0.491 OA
ATOM     29  C   LIG A   1      -8.999   0.264 126.040  0.00  0.00    +0.277 C 
ENDBRANCH   3  28
BRANCH   8  30
ATOM     30  O   LIG A   1      -8.075   5.965 131.922  0.00  0.00    -0.488 OA
ATOM     31  C   LIG A   1      -7.027   6.784 131.412  0.00  0.00    +0.277 C 
ENDBRANCH   8  30
TORSDOF 8
ENDMDL
MODEL 2
REMARK VINA RESULT:      -6.3      4.346      7.509
REMARK  Name = NuBBE_1871
REMARK  14 active torsions:
REMARK  status: ('A' for Active; 'I' for Inactive)
REMARK    1  A    between atoms: C_1  and  O_2
REMARK    2  A    between atoms: O_2  and  C_3
REMARK    3  A    between atoms: C_4  and  O_5
REMARK    4  A    between atoms: O_5  and  C_6
REMARK    5  A    between atoms: C_7  and  O_8
REMARK    6  A    between atoms: O_8  and  C_9
REMARK    7  A    between atoms: C_13  and  C_14
REMARK    8  A    between atoms: C_16  and  O_17
REMARK    9  A    between atoms: C_18  and  O_19
REMARK   10  A    between atoms: O_19  and  C_20
REMARK   11  A    between atoms: C_21  and  O_22
REMARK   12  A    between atoms: O_22  and  C_23
REMARK   13  A    between atoms: C_25  and  O_26
REMARK   14  A    between atoms: O_26  and  C_27
REMARK                            x       y       z     vdW  Elec       q    Type
REMARK                         _______ _______ _______ _____ _____    ______ ____
ROOT
ATOM      1  C   LIG A   1      -8.357  -0.439 124.038  0.00  0.00    +0.180 A 
ATOM      2  C   LIG A   1      -8.660  -1.570 124.841  0.00  0.00    +0.204 A 
ATOM      3  C   LIG A   1      -7.843  -1.850 125.971  0.00  0.00    +0.169 A 
ATOM      4  C   LIG A   1      -6.811  -0.993 126.326  0.00  0.00    +0.096 A 
ATOM      5  C   LIG A   1      -6.583   0.151 125.595  0.00  0.00    +0.147 A 
ATOM      6  O   LIG A   1      -5.675   1.027 126.123  0.00  0.00    -0.451 OA
ATOM      7  C   LIG A   1      -5.790   2.342 125.726  0.00  0.00    +0.181 A 
ATOM      8  C   LIG A   1      -6.328   2.723 124.545  0.00  0.00    +0.211 A 
ATOM      9  C   LIG A   1      -7.289   0.401 124.420  0.00  0.00    +0.113 A 
ATOM     10  C   LIG A   1      -6.852   1.602 123.692  0.00  0.00    +0.238 A 
ATOM     11  O   LIG A   1      -6.883   1.658 122.452  0.00  0.00    -0.283 OA
ENDROOT
BRANCH   7  12
ATOM     12  C   LIG A   1      -5.223   3.283 126.703  0.00  0.00    +0.028 A 
ATOM     13  C   LIG A   1      -3.883   3.672 126.640  0.00  0.00    +0.061 A 
ATOM     14  C   LIG A   1      -3.343   4.509 127.626  0.00  0.00    +0.163 A 
ATOM     15  C   LIG A   1      -4.139   5.018 128.663  0.00  0.00    +0.203 A 
ATOM     16  C   LIG A   1      -5.518   4.711 128.662  0.00  0.00    +0.166 A 
ATOM     17  C   LIG A   1      -6.036   3.830 127.698  0.00  0.00    +0.061 A 
BRANCH  14  18
ATOM     18  O   LIG A   1      -2.013   4.818 127.530  0.00  0.00    -0.503 OA
ATOM     19  H   LIG A   1      -1.656   4.404 126.728  0.00  0.00    +0.292 HD
ENDBRANCH  14  18
BRANCH  15  20
ATOM     20  O   LIG A   1      -3.692   5.829 129.681  0.00  0.00    -0.488 OA
ATOM     21  C   LIG A   1      -3.030   5.187 130.768  0.00  0.00    +0.277 C 
ENDBRANCH  15  20
BRANCH  16  22
ATOM     22  O   LIG A   1      -6.294   5.289 129.642  0.00  0.00    -0.491 OA
ATOM     23  C   LIG A   1      -6.904   4.404 130.577  0.00  0.00    +0.277 C 
ENDBRANCH  16  22
ENDBRANCH   7  12
BRANCH   1  25
ATOM     24  C   LIG A   1     -10.186   0.699 122.985  0.00  0.00    +0.277 C 
ATOM     25  O   LIG A   1      -9.001  -0.076 122.880  0.00  0.00    -0.490 OA
ENDBRANCH   1  25
BRANCH   2  26
ATOM     26  O   LIG A   1      -9.744  -2.345 124.478  0.00  0.00    -0.488 OA
ATOM     27  C   LIG A   1      -9.543  -3.396 123.529  0.00  0.00    +0.277 C 
ENDBRANCH   2  26
BRANCH   3  28
ATOM     28  O   LIG A   1      -8.122  -2.962 126.706  0.00  0.00    -0.491 OA
ATOM     29  C   LIG A   1      -8.090  -2.936 128.116  0.00  0.00    +0.277 C 
ENDBRANCH   3  28
BRANCH   8  30
ATOM     30  O   LIG A   1      -6.372   4.057 124.170  0.00  0.00    -0.488 OA
ATOM     31  C   LIG A   1      -5.386   4.479 123.234  0.00  0.00    +0.277 C 
ENDBRANCH   8  30
TORSDOF 8
ENDMDL
MODEL 3
REMARK VINA RESULT:      -6.3      3.838      8.048
REMARK  Name = NuBBE_1871
REMARK  14 active torsions:
REMARK  status: ('A' for Active; 'I' for Inactive)
REMARK    1  A    between atoms: C_1  and  O_2
REMARK    2  A    between atoms: O_2  and  C_3
REMARK    3  A    between atoms: C_4  and  O_5
REMARK    4  A    between atoms: O_5  and  C_6
REMARK    5  A    between atoms: C_7  and  O_8
REMARK    6  A    between atoms: O_8  and  C_9
REMARK    7  A    between atoms: C_13  and  C_14
REMARK    8  A    between atoms: C_16  and  O_17
REMARK    9  A    between atoms: C_18  and  O_19
REMARK   10  A    between atoms: O_19  and  C_20
REMARK   11  A    between atoms: C_21  and  O_22
REMARK   12  A    between atoms: O_22  and  C_23
REMARK   13  A    between atoms: C_25  and  O_26
REMARK   14  A    between atoms: O_26  and  C_27
REMARK                            x       y       z     vdW  Elec       q    Type
REMARK                         _______ _______ _______ _____ _____    ______ ____
ROOT
ATOM      1  C   LIG A   1      -6.143   4.612 128.736  0.00  0.00    +0.180 A 
ATOM      2  C   LIG A   1      -6.627   4.251 130.021  0.00  0.00    +0.204 A 
ATOM      3  C   LIG A   1      -7.770   3.408 130.113  0.00  0.00    +0.169 A 
ATOM      4  C   LIG A   1      -8.358   2.889 128.968  0.00  0.00    +0.096 A 
ATOM      5  C   LIG A   1      -7.825   3.170 127.731  0.00  0.00    +0.147 A 
ATOM      6  O   LIG A   1      -8.350   2.471 126.680  0.00  0.00    -0.451 OA
ATOM      7  C   LIG A   1      -7.546   2.341 125.567  0.00  0.00    +0.181 A 
ATOM      8  C   LIG A   1      -6.580   3.227 125.235  0.00  0.00    +0.211 A 
ATOM      9  C   LIG A   1      -6.777   4.079 127.594  0.00  0.00    +0.113 A 
ATOM     10  C   LIG A   1      -6.396   4.362 126.202  0.00  0.00    +0.238 A 
ATOM     11  O   LIG A   1      -5.987   5.482 125.855  0.00  0.00    -0.283 OA
ENDROOT
BRANCH   7  12
ATOM     12  C   LIG A   1      -7.883   1.161 124.756  0.00  0.00    +0.028 A 
ATOM     13  C   LIG A   1      -9.008   1.150 123.928  0.00  0.00    +0.061 A 
ATOM     14  C   LIG A   1      -9.355  -0.010 123.223  0.00  0.00    +0.163 A 
ATOM     15  C   LIG A   1      -8.560  -1.164 123.287  0.00  0.00    +0.203 A 
ATOM     16  C   LIG A   1      -7.364  -1.114 124.038  0.00  0.00    +0.166 A 
ATOM     17  C   LIG A   1      -7.056   0.037 124.782  0.00  0.00    +0.061 A 
BRANCH  14  18
ATOM     18  O   LIG A   1     -10.493   0.031 122.463  0.00  0.00    -0.503 OA
ATOM     19  H   LIG A   1     -11.262   0.008 123.055  0.00  0.00    +0.292 HD
ENDBRANCH  14  18
BRANCH  15  20
ATOM     20  O   LIG A   1      -8.831  -2.351 122.645  0.00  0.00    -0.488 OA
ATOM     21  C   LIG A   1      -9.630  -3.296 123.355  0.00  0.00    +0.277 C 
ENDBRANCH  15  20
BRANCH  16  22
ATOM     22  O   LIG A   1      -6.560  -2.231 124.019  0.00  0.00    -0.491 OA
ATOM     23  C   LIG A   1      -5.807  -2.496 125.199  0.00  0.00    +0.277 C 
ENDBRANCH  16  22
ENDBRANCH   7  12
BRANCH   1  25
ATOM     24  C   LIG A   1      -3.776   4.975 128.603  0.00  0.00    +0.277 C 
ATOM     25  O   LIG A   1      -5.101   5.471 128.480  0.00  0.00    -0.490 OA
ENDBRANCH   1  25
BRANCH   2  26
ATOM     26  O   LIG A   1      -5.956   4.740 131.124  0.00  0.00    -0.488 OA
ATOM     27  C   LIG A   1      -6.338   6.017 131.642  0.00  0.00    +0.277 C 
ENDBRANCH   2  26
BRANCH   3  28
ATOM     28  O   LIG A   1      -8.246   3.105 131.352  0.00  0.00    -0.491 OA
ATOM     29  C   LIG A   1      -9.507   3.565 131.785  0.00  0.00    +0.277 C 
ENDBRANCH   3  28
BRANCH   8  30
ATOM     30  O   LIG A   1      -5.834   3.077 124.076  0.00  0.00    -0.488 OA
ATOM     31  C   LIG A   1      -6.320   3.760 122.924  0.00  0.00    +0.277 C 
ENDBRANCH   8  30
TORSDOF 8
ENDMDL
MODEL 4
REMARK VINA RESULT:      -6.2      5.260      7.016
REMARK  Name = NuBBE_1871
REMARK  14 active torsions:
REMARK  status: ('A' for Active; 'I' for Inactive)
REMARK    1  A    between atoms: C_1  and  O_2
REMARK    2  A    between atoms: O_2  and  C_3
REMARK    3  A    between atoms: C_4  and  O_5
REMARK    4  A    between atoms: O_5  and  C_6
REMARK    5  A    between atoms: C_7  and  O_8
REMARK    6  A    between atoms: O_8  and  C_9
REMARK    7  A    between atoms: C_13  and  C_14
REMARK    8  A    between atoms: C_16  and  O_17
REMARK    9  A    between atoms: C_18  and  O_19
REMARK   10  A    between atoms: O_19  and  C_20
REMARK   11  A    between atoms: C_21  and  O_22
REMARK   12  A    between atoms: O_22  and  C_23
REMARK   13  A    between atoms: C_25  and  O_26
REMARK   14  A    between atoms: O_26  and  C_27
REMARK                            x       y       z     vdW  Elec       q    Type
REMARK                         _______ _______ _______ _____ _____    ______ ____
ROOT
ATOM      1  C   LIG A   1      -8.216  -1.691 126.830  0.00  0.00    +0.180 A 
ATOM      2  C   LIG A   1      -9.089  -1.194 125.828  0.00  0.00    +0.204 A 
ATOM      3  C   LIG A   1      -9.370   0.200 125.791  0.00  0.00    +0.169 A 
ATOM      4  C   LIG A   1      -8.745   1.070 126.674  0.00  0.00    +0.096 A 
ATOM      5  C   LIG A   1      -7.829   0.590 127.582  0.00  0.00    +0.147 A 
ATOM      6  O   LIG A   1      -7.127   1.533 128.280  0.00  0.00    -0.451 OA
ATOM      7  C   LIG A   1      -5.909   1.138 128.789  0.00  0.00    +0.181 A 
ATOM      8  C   LIG A   1      -5.609  -0.142 129.104  0.00  0.00    +0.211 A 
ATOM      9  C   LIG A   1      -7.612  -0.780 127.723  0.00  0.00    +0.113 A 
ATOM     10  C   LIG A   1      -6.692  -1.141 128.811  0.00  0.00    +0.238 A 
ATOM     11  O   LIG A   1      -6.836  -2.188 129.464  0.00  0.00    -0.283 OA
ENDROOT
BRANCH   7  12
ATOM     12  C   LIG A   1      -4.986   2.265 128.996  0.00  0.00    +0.028 A 
ATOM     13  C   LIG A   1      -4.996   2.999 130.185  0.00  0.00    +0.061 A 
ATOM     14  C   LIG A   1      -4.164   4.117 130.332  0.00  0.00    +0.163 A 
ATOM     15  C   LIG A   1      -3.267   4.493 129.320  0.00  0.00    +0.203 A 
ATOM     16  C   LIG A   1      -3.181   3.684 128.165  0.00  0.00    +0.166 A 
ATOM     17  C   LIG A   1      -4.058   2.598 128.008  0.00  0.00    +0.061 A 
BRANCH  14  18
ATOM     18  O   LIG A   1      -4.253   4.818 131.504  0.00  0.00    -0.503 OA
ATOM     19  H   LIG A   1      -4.042   5.749 131.325  0.00  0.00    +0.292 HD
ENDBRANCH  14  18
BRANCH  15  20
ATOM     20  O   LIG A   1      -2.427   5.583 129.370  0.00  0.00    -0.488 OA
ATOM     21  C   LIG A   1      -2.985   6.840 128.993  0.00  0.00    +0.277 C 
ENDBRANCH  15  20
BRANCH  16  22
ATOM     22  O   LIG A   1      -2.237   4.027 127.224  0.00  0.00    -0.491 OA
ATOM     23  C   LIG A   1      -1.563   2.952 126.575  0.00  0.00    +0.277 C 
ENDBRANCH  16  22
ENDBRANCH   7  12
BRANCH   1  25
ATOM     24  C   LIG A   1      -8.907  -3.862 127.583  0.00  0.00    +0.277 C 
ATOM     25  O   LIG A   1      -7.904  -3.013 127.044  0.00  0.00    -0.490 OA
ENDBRANCH   1  25
BRANCH   2  26
ATOM     26  O   LIG A   1      -9.625  -2.099 124.933  0.00  0.00    -0.488 OA
ATOM     27  C   LIG A   1      -8.893  -2.388 123.738  0.00  0.00    +0.277 C 
ENDBRANCH   2  26
BRANCH   3  28
ATOM     28  O   LIG A   1     -10.242   0.655 124.850  0.00  0.00    -0.491 OA
ATOM     29  C   LIG A   1      -9.811   1.479 123.789  0.00  0.00    +0.277 C 
ENDBRANCH   3  28
BRANCH   8  30
ATOM     30  O   LIG A   1      -4.385  -0.479 129.663  0.00  0.00    -0.488 OA
ATOM     31  C   LIG A   1      -4.353  -0.595 131.082  0.00  0.00    +0.277 C 
ENDBRANCH   8  30
TORSDOF 8
ENDMDL
MODEL 5
REMARK VINA RESULT:      -6.2      4.745      7.022
REMARK  Name = NuBBE_1871
REMARK  14 active torsions:
REMARK  status: ('A' for Active; 'I' for Inactive)
REMARK    1  A    between atoms: C_1  and  O_2
REMARK    2  A    between atoms: O_2  and  C_3
REMARK    3  A    between atoms: C_4  and  O_5
REMARK    4  A    between atoms: O_5  and  C_6
REMARK    5  A    between atoms: C_7  and  O_8
REMARK    6  A    between atoms: O_8  and  C_9
REMARK    7  A    between atoms: C_13  and  C_14
REMARK    8  A    between atoms: C_16  and  O_17
REMARK    9  A    between atoms: C_18  and  O_19
REMARK   10  A    between atoms: O_19  and  C_20
REMARK   11  A    between atoms: C_21  and  O_22
REMARK   12  A    between atoms: O_22  and  C_23
REMARK   13  A    between atoms: C_25  and  O_26
REMARK   14  A    between atoms: O_26  and  C_27
REMARK                            x       y       z     vdW  Elec       q    Type
REMARK                         _______ _______ _______ _____ _____    ______ ____
ROOT
ATOM      1  C   LIG A   1      -8.146  -1.618 126.906  0.00  0.00    +0.180 A 
ATOM      2  C   LIG A   1      -9.034  -1.214 125.876  0.00  0.00    +0.204 A 
ATOM      3  C   LIG A   1      -9.315   0.172 125.714  0.00  0.00    +0.169 A 
ATOM      4  C   LIG A   1      -8.675   1.118 126.503  0.00  0.00    +0.096 A 
ATOM      5  C   LIG A   1      -7.745   0.722 127.438  0.00  0.00    +0.147 A 
ATOM      6  O   LIG A   1      -7.032   1.724 128.034  0.00  0.00    -0.451 OA
ATOM      7  C   LIG A   1      -5.806   1.376 128.559  0.00  0.00    +0.181 A 
ATOM      8  C   LIG A   1      -5.502   0.129 128.986  0.00  0.00    +0.211 A 
ATOM      9  C   LIG A   1      -7.527  -0.630 127.701  0.00  0.00    +0.113 A 
ATOM     10  C   LIG A   1      -6.590  -0.890 128.804  0.00  0.00    +0.238 A 
ATOM     11  O   LIG A   1      -6.725  -1.872 129.552  0.00  0.00    -0.283 OA
ENDROOT
BRANCH   7  12
ATOM     12  C   LIG A   1      -4.879   2.515 128.646  0.00  0.00    +0.028 A 
ATOM     13  C   LIG A   1      -3.822   2.658 127.744  0.00  0.00    +0.061 A 
ATOM     14  C   LIG A   1      -2.905   3.708 127.892  0.00  0.00    +0.163 A 
ATOM     15  C   LIG A   1      -3.054   4.665 128.906  0.00  0.00    +0.203 A 
ATOM     16  C   LIG A   1      -4.186   4.581 129.748  0.00  0.00    +0.166 A 
ATOM     17  C   LIG A   1      -5.068   3.494 129.623  0.00  0.00    +0.061 A 
BRANCH  14  18
ATOM     18  O   LIG A   1      -1.867   3.766 127.001  0.00  0.00    -0.503 OA
ATOM     19  H   LIG A   1      -1.091   4.133 127.454  0.00  0.00    +0.292 HD
ENDBRANCH  14  18
BRANCH  15  20
ATOM     20  O   LIG A   1      -2.195   5.716 129.137  0.00  0.00    -0.488 OA
ATOM     21  C   LIG A   1      -2.298   6.833 128.255  0.00  0.00    +0.277 C 
ENDBRANCH  15  20
BRANCH  16  22
ATOM     22  O   LIG A   1      -4.353   5.578 130.682  0.00  0.00    -0.491 OA
ATOM     23  C   LIG A   1      -5.627   6.215 130.714  0.00  0.00    +0.277 C 
ENDBRANCH  16  22
ENDBRANCH   7  12
BRANCH   1  25
ATOM     24  C   LIG A   1      -8.852  -3.736 127.784  0.00  0.00    +0.277 C 
ATOM     25  O   LIG A   1      -7.830  -2.915 127.236  0.00  0.00    -0.490 OA
ENDBRANCH   1  25
BRANCH   2  26
ATOM     26  O   LIG A   1      -9.584  -2.196 125.076  0.00  0.00    -0.488 OA
ATOM     27  C   LIG A   1      -8.874  -2.593 123.900  0.00  0.00    +0.277 C 
ENDBRANCH   2  26
BRANCH   3  28
ATOM     28  O   LIG A   1     -10.201   0.540 124.748  0.00  0.00    -0.491 OA
ATOM     29  C   LIG A   1      -9.803   1.334 123.653  0.00  0.00    +0.277 C 
ENDBRANCH   3  28
BRANCH   8  30
ATOM     30  O   LIG A   1      -4.270  -0.156 129.554  0.00  0.00    -0.488 OA
ATOM     31  C   LIG A   1      -4.205  -0.095 130.976  0.00  0.00    +0.277 C 
ENDBRANCH   8  30
TORSDOF 8
ENDMDL
MODEL 6
REMARK VINA RESULT:      -6.0      5.312      9.306
REMARK  Name = NuBBE_1871
REMARK  14 active torsions:
REMARK  status: ('A' for Active; 'I' for Inactive)
REMARK    1  A    between atoms: C_1  and  O_2
REMARK    2  A    between atoms: O_2  and  C_3
REMARK    3  A    between atoms: C_4  and  O_5
REMARK    4  A    between atoms: O_5  and  C_6
REMARK    5  A    between atoms: C_7  and  O_8
REMARK    6  A    between atoms: O_8  and  C_9
REMARK    7  A    between atoms: C_13  and  C_14
REMARK    8  A    between atoms: C_16  and  O_17
REMARK    9  A    between atoms: C_18  and  O_19
REMARK   10  A    between atoms: O_19  and  C_20
REMARK   11  A    between atoms: C_21  and  O_22
REMARK   12  A    between atoms: O_22  and  C_23
REMARK   13  A    between atoms: C_25  and  O_26
REMARK   14  A    between atoms: O_26  and  C_27
REMARK                            x       y       z     vdW  Elec       q    Type
REMARK                         _______ _______ _______ _____ _____    ______ ____
ROOT
ATOM      1  C   LIG A   1      -7.769  -0.200 126.629  0.00  0.00    +0.180 A 
ATOM      2  C   LIG A   1      -8.735  -0.875 125.838  0.00  0.00    +0.204 A 
ATOM      3  C   LIG A   1      -8.968  -2.259 126.068  0.00  0.00    +0.169 A 
ATOM      4  C   LIG A   1      -8.314  -2.923 127.096  0.00  0.00    +0.096 A 
ATOM      5  C   LIG A   1      -7.447  -2.238 127.918  0.00  0.00    +0.147 A 
ATOM      6  O   LIG A   1      -6.995  -2.920 129.013  0.00  0.00    -0.451 OA
ATOM      7  C   LIG A   1      -6.568  -2.157 130.078  0.00  0.00    +0.181 A 
ATOM      8  C   LIG A   1      -6.084  -0.901 129.951  0.00  0.00    +0.211 A 
ATOM      9  C   LIG A   1      -7.110  -0.911 127.655  0.00  0.00    +0.113 A 
ATOM     10  C   LIG A   1      -6.087  -0.355 128.551  0.00  0.00    +0.238 A 
ATOM     11  O   LIG A   1      -5.260   0.483 128.154  0.00  0.00    -0.283 OA
ENDROOT
BRANCH   7  12
ATOM     12  C   LIG A   1      -6.652  -2.871 131.361  0.00  0.00    +0.028 A 
ATOM     13  C   LIG A   1      -7.688  -2.619 132.263  0.00  0.00    +0.061 A 
ATOM     14  C   LIG A   1      -7.708  -3.253 133.512  0.00  0.00    +0.163 A 
ATOM     15  C   LIG A   1      -6.726  -4.190 133.867  0.00  0.00    +0.203 A 
ATOM     16  C   LIG A   1      -5.742  -4.525 132.910  0.00  0.00    +0.166 A 
ATOM     17  C   LIG A   1      -5.703  -3.844 131.682  0.00  0.00    +0.061 A 
BRANCH  14  18
ATOM     18  O   LIG A   1      -8.727  -2.930 134.367  0.00  0.00    -0.503 OA
ATOM     19  H   LIG A   1      -9.390  -3.638 134.341  0.00  0.00    +0.292 HD
ENDBRANCH  14  18
BRANCH  15  20
ATOM     20  O   LIG A   1      -6.655  -4.847 135.075  0.00  0.00    -0.488 OA
ATOM     21  C   LIG A   1      -6.073  -4.130 136.161  0.00  0.00    +0.277 C 
ENDBRANCH  15  20
BRANCH  16  22
ATOM     22  O   LIG A   1      -4.839  -5.507 133.251  0.00  0.00    -0.491 OA
ATOM     23  C   LIG A   1      -3.493  -5.090 133.463  0.00  0.00    +0.277 C 
ENDBRANCH  16  22
ENDBRANCH   7  12
BRANCH   1  25
ATOM     24  C   LIG A   1      -8.198   2.121 127.051  0.00  0.00    +0.277 C 
ATOM     25  O   LIG A   1      -7.379   1.110 126.482  0.00  0.00    -0.490 OA
ENDBRANCH   1  25
BRANCH   2  26
ATOM     26  O   LIG A   1      -9.406  -0.144 124.877  0.00  0.00    -0.488 OA
ATOM     27  C   LIG A   1      -8.775   0.056 123.609  0.00  0.00    +0.277 C 
ENDBRANCH   2  26
BRANCH   3  28
ATOM     28  O   LIG A   1      -9.868  -2.901 125.273  0.00  0.00    -0.491 OA
ATOM     29  C   LIG A   1      -9.476  -3.495 124.055  0.00  0.00    +0.277 C 
ENDBRANCH   3  28
BRANCH   8  30
ATOM     30  O   LIG A   1      -5.617  -0.194 131.049  0.00  0.00    -0.488 OA
ATOM     31  C   LIG A   1      -6.429   0.890 131.489  0.00  0.00    +0.277 C 
ENDBRANCH   8  30
TORSDOF 8
ENDMDL
MODEL 7
REMARK VINA RESULT:      -6.0      3.621      7.288
REMARK  Name = NuBBE_1871
REMARK  14 active torsions:
REMARK  status: ('A' for Active; 'I' for Inactive)
REMARK    1  A    between atoms: C_1  and  O_2
REMARK    2  A    between atoms: O_2  and  C_3
REMARK    3  A    between atoms: C_4  and  O_5
REMARK    4  A    between atoms: O_5  and  C_6
REMARK    5  A    between atoms: C_7  and  O_8
REMARK    6  A    between atoms: O_8  and  C_9
REMARK    7  A    between atoms: C_13  and  C_14
REMARK    8  A    between atoms: C_16  and  O_17
REMARK    9  A    between atoms: C_18  and  O_19
REMARK   10  A    between atoms: O_19  and  C_20
REMARK   11  A    between atoms: C_21  and  O_22
REMARK   12  A    between atoms: O_22  and  C_23
REMARK   13  A    between atoms: C_25  and  O_26
REMARK   14  A    between atoms: O_26  and  C_27
REMARK                            x       y       z     vdW  Elec       q    Type
REMARK                         _______ _______ _______ _____ _____    ______ ____
ROOT
ATOM      1  C   LIG A   1      -6.188   4.946 130.215  0.00  0.00    +0.180 A 
ATOM      2  C   LIG A   1      -6.891   4.959 131.448  0.00  0.00    +0.204 A 
ATOM      3  C   LIG A   1      -8.196   4.395 131.501  0.00  0.00    +0.169 A 
ATOM      4  C   LIG A   1      -8.744   3.777 130.385  0.00  0.00    +0.096 A 
ATOM      5  C   LIG A   1      -8.016   3.687 129.220  0.00  0.00    +0.147 A 
ATOM      6  O   LIG A   1      -8.554   2.903 128.238  0.00  0.00    -0.451 OA
ATOM      7  C   LIG A   1      -7.672   2.391 127.310  0.00  0.00    +0.181 A 
ATOM      8  C   LIG A   1      -6.499   2.981 126.988  0.00  0.00    +0.211 A 
ATOM      9  C   LIG A   1      -6.782   4.324 129.097  0.00  0.00    +0.113 A 
ATOM     10  C   LIG A   1      -6.183   4.233 127.757  0.00  0.00    +0.238 A 
ATOM     11  O   LIG A   1      -5.494   5.154 127.289  0.00  0.00    -0.283 OA
ENDROOT
BRANCH   7  12
ATOM     12  C   LIG A   1      -8.165   1.159 126.675  0.00  0.00    +0.028 A 
ATOM     13  C   LIG A   1      -7.891  -0.097 127.224  0.00  0.00    +0.061 A 
ATOM     14  C   LIG A   1      -8.303  -1.262 126.563  0.00  0.00    +0.163 A 
ATOM     15  C   LIG A   1      -9.041  -1.198 125.372  0.00  0.00    +0.203 A 
ATOM     16  C   LIG A   1      -9.410   0.073 124.878  0.00  0.00    +0.166 A 
ATOM     17  C   LIG A   1      -8.946   1.233 125.522  0.00  0.00    +0.061 A 
BRANCH  14  18
ATOM     18  O   LIG A   1      -7.966  -2.461 127.131  0.00  0.00    -0.503 OA
ATOM     19  H   LIG A   1      -8.143  -3.167 126.490  0.00  0.00    +0.292 HD
ENDBRANCH  14  18
BRANCH  15  20
ATOM     20  O   LIG A   1      -9.471  -2.286 124.646  0.00  0.00    -0.488 OA
ATOM     21  C   LIG A   1      -8.533  -2.864 123.741  0.00  0.00    +0.277 C 
ENDBRANCH  15  20
BRANCH  16  22
ATOM     22  O   LIG A   1     -10.203   0.107 123.753  0.00  0.00    -0.491 OA
ATOM     23  C   LIG A   1      -9.859   1.067 122.758  0.00  0.00    +0.277 C 
ENDBRANCH  16  22
ENDBRANCH   7  12
BRANCH   1  25
ATOM     24  C   LIG A   1      -3.798   4.747 130.288  0.00  0.00    +0.277 C 
ATOM     25  O   LIG A   1      -4.957   5.511 129.984  0.00  0.00    -0.490 OA
ENDBRANCH   1  25
BRANCH   2  26
ATOM     26  O   LIG A   1      -6.265   5.524 132.541  0.00  0.00    -0.488 OA
ATOM     27  C   LIG A   1      -5.568   4.663 133.447  0.00  0.00    +0.277 C 
ENDBRANCH   2  26
BRANCH   3  28
ATOM     28  O   LIG A   1      -8.875   4.453 132.680  0.00  0.00    -0.491 OA
ATOM     29  C   LIG A   1      -9.115   3.293 133.445  0.00  0.00    +0.277 C 
ENDBRANCH   3  28
BRANCH   8  30
ATOM     30  O   LIG A   1      -5.671   2.453 126.010  0.00  0.00    -0.488 OA
ATOM     31  C   LIG A   1      -4.417   1.946 126.454  0.00  0.00    +0.277 C 
ENDBRANCH   8  30
TORSDOF 8
ENDMDL
MODEL 8
REMARK VINA RESULT:      -5.9      3.803      6.934
REMARK  Name = NuBBE_1871
REMARK  14 active torsions:
REMARK  status: ('A' for Active; 'I' for Inactive)
REMARK    1  A    between atoms: C_1  and  O_2
REMARK    2  A    between atoms: O_2  and  C_3
REMARK    3  A    between atoms: C_4  and  O_5
REMARK    4  A    between atoms: O_5  and  C_6
REMARK    5  A    between atoms: C_7  and  O_8
REMARK    6  A    between atoms: O_8  and  C_9
REMARK    7  A    between atoms: C_13  and  C_14
REMARK    8  A    between atoms: C_16  and  O_17
REMARK    9  A    between atoms: C_18  and  O_19
REMARK   10  A    between atoms: O_19  and  C_20
REMARK   11  A    between atoms: C_21  and  O_22
REMARK   12  A    between atoms: O_22  and  C_23
REMARK   13  A    between atoms: C_25  and  O_26
REMARK   14  A    between atoms: O_26  and  C_27
REMARK                            x       y       z     vdW  Elec       q    Type
REMARK                         _______ _______ _______ _____ _____    ______ ____
ROOT
ATOM      1  C   LIG A   1      -8.540   0.623 125.327  0.00  0.00    +0.180 A 
ATOM      2  C   LIG A   1      -8.114  -0.709 125.082  0.00  0.00    +0.204 A 
ATOM      3  C   LIG A   1      -6.733  -1.024 125.212  0.00  0.00    +0.169 A 
ATOM      4  C   LIG A   1      -5.827  -0.065 125.642  0.00  0.00    +0.096 A 
ATOM      5  C   LIG A   1      -6.265   1.200 125.967  0.00  0.00    +0.147 A 
ATOM      6  O   LIG A   1      -5.343   2.019 126.557  0.00  0.00    -0.451 OA
ATOM      7  C   LIG A   1      -5.841   3.048 127.327  0.00  0.00    +0.181 A 
ATOM      8  C   LIG A   1      -7.057   3.607 127.134  0.00  0.00    +0.211 A 
ATOM      9  C   LIG A   1      -7.589   1.577 125.746  0.00  0.00    +0.113 A 
ATOM     10  C   LIG A   1      -7.873   2.990 126.034  0.00  0.00    +0.238 A 
ATOM     11  O   LIG A   1      -8.710   3.631 125.377  0.00  0.00    -0.283 OA
ENDROOT
BRANCH   7  12
ATOM     12  C   LIG A   1      -4.889   3.503 128.353  0.00  0.00    +0.028 A 
ATOM     13  C   LIG A   1      -4.894   2.955 129.638  0.00  0.00    +0.061 A 
ATOM     14  C   LIG A   1      -4.032   3.456 130.623  0.00  0.00    +0.163 A 
ATOM     15  C   LIG A   1      -3.112   4.474 130.333  0.00  0.00    +0.203 A 
ATOM     16  C   LIG A   1      -3.034   4.950 129.005  0.00  0.00    +0.166 A 
ATOM     17  C   LIG A   1      -3.939   4.476 128.040  0.00  0.00    +0.061 A 
BRANCH  14  18
ATOM     18  O   LIG A   1      -4.117   2.905 131.873  0.00  0.00    -0.503 OA
ATOM     19  H   LIG A   1      -5.016   2.561 131.999  0.00  0.00    +0.292 HD
ENDBRANCH  14  18
BRANCH  15  20
ATOM     20  O   LIG A   1      -2.242   5.038 131.239  0.00  0.00    -0.488 OA
ATOM     21  C   LIG A   1      -2.758   6.088 132.054  0.00  0.00    +0.277 C 
ENDBRANCH  15  20
BRANCH  16  22
ATOM     22  O   LIG A   1      -2.068   5.890 128.727  0.00  0.00    -0.491 OA
ATOM     23  C   LIG A   1      -2.517   7.123 128.171  0.00  0.00    +0.277 C 
ENDBRANCH  16  22
ENDBRANCH   7  12
BRANCH   1  25
ATOM     24  C   LIG A   1     -10.321   1.267 123.855  0.00  0.00    +0.277 C 
ATOM     25  O   LIG A   1      -9.820   1.101 125.174  0.00  0.00    -0.490 OA
ENDBRANCH   1  25
BRANCH   2  26
ATOM     26  O   LIG A   1      -9.073  -1.637 124.727  0.00  0.00    -0.488 OA
ATOM     27  C   LIG A   1      -9.472  -2.609 125.698  0.00  0.00    +0.277 C 
ENDBRANCH   2  26
BRANCH   3  28
ATOM     28  O   LIG A   1      -6.335  -2.296 124.933  0.00  0.00    -0.491 OA
ATOM     29  C   LIG A   1      -5.679  -2.610 123.725  0.00  0.00    +0.277 C 
ENDBRANCH   3  28
BRANCH   8  30
ATOM     30  O   LIG A   1      -7.489   4.675 127.904  0.00  0.00    -0.488 OA
ATOM     31  C   LIG A   1      -8.362   4.359 128.984  0.00  0.00    +0.277 C 
ENDBRANCH   8  30
TORSDOF 8
ENDMDL
MODEL 9
REMARK VINA RESULT:      -5.9      6.122      9.811
REMARK  Name = NuBBE_1871
REMARK  14 active torsions:
REMARK  status: ('A' for Active; 'I' for Inactive)
REMARK    1  A    between atoms: C_1  and  O_2
REMARK    2  A    between atoms: O_2  and  C_3
REMARK    3  A    between atoms: C_4  and  O_5
REMARK    4  A    between atoms: O_5  and  C_6
REMARK    5  A    between atoms: C_7  and  O_8
REMARK    6  A    between atoms: O_8  and  C_9
REMARK    7  A    between atoms: C_13  and  C_14
REMARK    8  A    between atoms: C_16  and  O_17
REMARK    9  A    between atoms: C_18  and  O_19
REMARK   10  A    between atoms: O_19  and  C_20
REMARK   11  A    between atoms: C_21  and  O_22
REMARK   12  A    between atoms: O_22  and  C_23
REMARK   13  A    between atoms: C_25  and  O_26
REMARK   14  A    between atoms: O_26  and  C_27
REMARK                            x       y       z     vdW  Elec       q    Type
REMARK                         _______ _______ _______ _____ _____    ______ ____
ROOT
ATOM      1  C   LIG A   1      -7.877   0.404 124.150  0.00  0.00    +0.180 A 
ATOM      2  C   LIG A   1      -7.094   1.563 123.910  0.00  0.00    +0.204 A 
ATOM      3  C   LIG A   1      -6.370   2.140 124.989  0.00  0.00    +0.169 A 
ATOM      4  C   LIG A   1      -6.370   1.539 126.241  0.00  0.00    +0.096 A 
ATOM      5  C   LIG A   1      -7.058   0.363 126.441  0.00  0.00    +0.147 A 
ATOM      6  O   LIG A   1      -6.851  -0.254 127.643  0.00  0.00    -0.451 OA
ATOM      7  C   LIG A   1      -7.091  -1.611 127.685  0.00  0.00    +0.181 A 
ATOM      8  C   LIG A   1      -7.959  -2.243 126.863  0.00  0.00    +0.211 A 
ATOM      9  C   LIG A   1      -7.867  -0.171 125.439  0.00  0.00    +0.113 A 
ATOM     10  C   LIG A   1      -8.626  -1.364 125.843  0.00  0.00    +0.238 A 
ATOM     11  O   LIG A   1      -9.759  -1.597 125.391  0.00  0.00    -0.283 OA
ENDROOT
BRANCH   7  12
ATOM     12  C   LIG A   1      -6.335  -2.290 128.749  0.00  0.00    +0.028 A 
ATOM     13  C   LIG A   1      -5.006  -2.675 128.559  0.00  0.00    +0.061 A 
ATOM     14  C   LIG A   1      -4.328  -3.390 129.556  0.00  0.00    +0.163 A 
ATOM     15  C   LIG A   1      -4.943  -3.687 130.781  0.00  0.00    +0.203 A 
ATOM     16  C   LIG A   1      -6.249  -3.201 131.012  0.00  0.00    +0.166 A 
ATOM     17  C   LIG A   1      -6.936  -2.532 129.985  0.00  0.00    +0.061 A 
BRANCH  14  18
ATOM     18  O   LIG A   1      -3.042  -3.775 129.291  0.00  0.00    -0.503 OA
ATOM     19  H   LIG A   1      -2.527  -3.719 130.111  0.00  0.00    +0.292 HD
ENDBRANCH  14  18
BRANCH  15  20
ATOM     20  O   LIG A   1      -4.363  -4.397 131.808  0.00  0.00    -0.488 OA
ATOM     21  C   LIG A   1      -3.567  -3.656 132.730  0.00  0.00    +0.277 C 
ENDBRANCH  15  20
BRANCH  16  22
ATOM     22  O   LIG A   1      -6.800  -3.435 132.252  0.00  0.00    -0.491 OA
ATOM     23  C   LIG A   1      -7.461  -2.337 132.875  0.00  0.00    +0.277 C 
ENDBRANCH  16  22
ENDBRANCH   7  12
BRANCH   1  25
ATOM     24  C   LIG A   1      -9.889   0.421 122.845  0.00  0.00    +0.277 C 
ATOM     25  O   LIG A   1      -8.687  -0.227 123.236  0.00  0.00    -0.490 OA
ENDBRANCH   1  25
BRANCH   2  26
ATOM     26  O   LIG A   1      -7.076   2.074 122.627  0.00  0.00    -0.488 OA
ATOM     27  C   LIG A   1      -7.930   3.180 122.322  0.00  0.00    +0.277 C 
ENDBRANCH   2  26
BRANCH   3  28
ATOM     28  O   LIG A   1      -5.657   3.275 124.751  0.00  0.00    -0.491 OA
ATOM     29  C   LIG A   1      -6.058   4.518 125.285  0.00  0.00    +0.277 C 
ENDBRANCH   3  28
BRANCH   8  30
ATOM     30  O   LIG A   1      -8.203  -3.602 126.981  0.00  0.00    -0.488 OA
ATOM     31  C   LIG A   1      -9.322  -3.972 127.782  0.00  0.00    +0.277 C 
ENDBRANCH   8  30
TORSDOF 8
ENDMDL
