MODEL 1
REMARK VINA RESULT:      -8.2      0.000      0.000
REMARK  Name = NuBBE_2451
REMARK  3 active torsions:
REMARK  status: ('A' for Active; 'I' for Inactive)
REMARK    1  A    between atoms: C_6  and  C_9
REMARK    2  A    between atoms: C_7  and  O_8
REMARK    3  A    between atoms: C_16  and  O_19
REMARK                            x       y       z     vdW  Elec       q    Type
REMARK                         _______ _______ _______ _____ _____    ______ ____
ROOT
ATOM      1  O   LIG A   1     -12.734   6.730 131.703  0.00  0.00    -0.283 OA
ATOM      2  C   LIG A   1     -11.724   6.736 131.007  0.00  0.00    +0.234 A 
ATOM      3  C   LIG A   1     -11.753   6.907 129.551  0.00  0.00    +0.068 A 
ATOM      4  C   LIG A   1     -10.545   6.907 128.859  0.00  0.00    +0.143 A 
ATOM      5  O   LIG A   1      -9.331   6.758 129.478  0.00  0.00    -0.451 OA
ATOM      6  C   LIG A   1      -9.298   6.579 130.856  0.00  0.00    +0.181 A 
ATOM      7  C   LIG A   1     -10.393   6.564 131.638  0.00  0.00    +0.208 A 
ATOM      8  C   LIG A   1     -10.534   7.067 127.472  0.00  0.00    +0.092 A 
ATOM      9  C   LIG A   1     -11.742   7.224 126.798  0.00  0.00    +0.120 A 
ATOM     10  C   LIG A   1     -12.953   7.226 127.485  0.00  0.00    +0.046 A 
ATOM     11  C   LIG A   1     -12.963   7.066 128.871  0.00  0.00    +0.019 A 
ENDROOT
BRANCH   6  12
ATOM     12  C   LIG A   1      -7.923   6.429 131.383  0.00  0.00    +0.021 A 
ATOM     13  C   LIG A   1      -6.869   7.143 130.793  0.00  0.00    +0.012 A 
ATOM     14  C   LIG A   1      -5.559   6.998 131.257  0.00  0.00    +0.001 A 
ATOM     15  C   LIG A   1      -5.285   6.130 132.312  0.00  0.00    +0.000 A 
ATOM     16  C   LIG A   1      -6.320   5.407 132.902  0.00  0.00    +0.001 A 
ATOM     17  C   LIG A   1      -7.630   5.554 132.437  0.00  0.00    +0.012 A 
ENDBRANCH   6  12
BRANCH   7  18
ATOM     18  O   LIG A   1     -10.370   6.415 133.013  0.00  0.00    -0.501 OA
ATOM     19  H   LIG A   1      -9.983   7.250 133.352  0.00  0.00    +0.292 HD
ENDBRANCH   7  18
BRANCH   9  20
ATOM     20  O   LIG A   1     -11.785   7.383 125.444  0.00  0.00    -0.507 OA
ATOM     21  H   LIG A   1     -11.935   8.321 125.239  0.00  0.00    +0.292 HD
ENDBRANCH   9  20
TORSDOF 3
ENDMDL
MODEL 2
REMARK VINA RESULT:      -7.8      8.287     10.064
REMARK  Name = NuBBE_2451
REMARK  3 active torsions:
REMARK  status: ('A' for Active; 'I' for Inactive)
REMARK    1  A    between atoms: C_6  and  C_9
REMARK    2  A    between atoms: C_7  and  O_8
REMARK    3  A    between atoms: C_16  and  O_19
REMARK                            x       y       z     vdW  Elec       q    Type
REMARK                         _______ _______ _______ _____ _____    ______ ____
ROOT
ATOM      1  O   LIG A   1      -9.019   2.332 126.027  0.00  0.00    -0.283 OA
ATOM      2  C   LIG A   1      -8.362   1.944 125.066  0.00  0.00    +0.234 A 
ATOM      3  C   LIG A   1      -8.055   0.532 124.819  0.00  0.00    +0.068 A 
ATOM      4  C   LIG A   1      -7.309   0.202 123.691  0.00  0.00    +0.143 A 
ATOM      5  O   LIG A   1      -6.852   1.139 122.800  0.00  0.00    -0.451 OA
ATOM      6  C   LIG A   1      -7.126   2.481 123.037  0.00  0.00    +0.181 A 
ATOM      7  C   LIG A   1      -7.839   2.928 124.086  0.00  0.00    +0.208 A 
ATOM      8  C   LIG A   1      -6.997  -1.132 123.425  0.00  0.00    +0.092 A 
ATOM      9  C   LIG A   1      -7.441  -2.120 124.300  0.00  0.00    +0.120 A 
ATOM     10  C   LIG A   1      -8.189  -1.797 125.429  0.00  0.00    +0.046 A 
ATOM     11  C   LIG A   1      -8.499  -0.462 125.695  0.00  0.00    +0.019 A 
ENDROOT
BRANCH   6  12
ATOM     12  C   LIG A   1      -6.569   3.372 121.996  0.00  0.00    +0.021 A 
ATOM     13  C   LIG A   1      -7.267   3.563 120.794  0.00  0.00    +0.012 A 
ATOM     14  C   LIG A   1      -6.748   4.380 119.786  0.00  0.00    +0.001 A 
ATOM     15  C   LIG A   1      -5.519   5.011 119.964  0.00  0.00    +0.000 A 
ATOM     16  C   LIG A   1      -4.809   4.825 121.149  0.00  0.00    +0.001 A 
ATOM     17  C   LIG A   1      -5.330   4.008 122.157  0.00  0.00    +0.012 A 
ENDBRANCH   6  12
BRANCH   7  18
ATOM     18  O   LIG A   1      -8.142   4.258 124.317  0.00  0.00    -0.501 OA
ATOM     19  H   LIG A   1      -7.647   4.752 123.630  0.00  0.00    +0.292 HD
ENDBRANCH   7  18
BRANCH   9  20
ATOM     20  O   LIG A   1      -7.162  -3.437 124.084  0.00  0.00    -0.507 OA
ATOM     21  H   LIG A   1      -7.182  -3.614 123.129  0.00  0.00    +0.292 HD
ENDBRANCH   9  20
TORSDOF 3
ENDMDL
MODEL 3
REMARK VINA RESULT:      -7.5      1.716      5.965
REMARK  Name = NuBBE_2451
REMARK  3 active torsions:
REMARK  status: ('A' for Active; 'I' for Inactive)
REMARK    1  A    between atoms: C_6  and  C_9
REMARK    2  A    between atoms: C_7  and  O_8
REMARK    3  A    between atoms: C_16  and  O_19
REMARK                            x       y       z     vdW  Elec       q    Type
REMARK                         _______ _______ _______ _____ _____    ______ ____
ROOT
ATOM      1  O   LIG A   1      -9.236   4.937 133.585  0.00  0.00    -0.283 OA
ATOM      2  C   LIG A   1      -8.965   5.646 132.622  0.00  0.00    +0.234 A 
ATOM      3  C   LIG A   1      -7.596   6.038 132.273  0.00  0.00    +0.068 A 
ATOM      4  C   LIG A   1      -7.400   6.839 131.151  0.00  0.00    +0.143 A 
ATOM      5  O   LIG A   1      -8.430   7.274 130.357  0.00  0.00    -0.451 OA
ATOM      6  C   LIG A   1      -9.732   6.918 130.692  0.00  0.00    +0.181 A 
ATOM      7  C   LIG A   1     -10.052   6.146 131.746  0.00  0.00    +0.208 A 
ATOM      8  C   LIG A   1      -6.111   7.233 130.789  0.00  0.00    +0.092 A 
ATOM      9  C   LIG A   1      -5.032   6.815 131.563  0.00  0.00    +0.120 A 
ATOM     10  C   LIG A   1      -5.221   6.013 132.686  0.00  0.00    +0.046 A 
ATOM     11  C   LIG A   1      -6.510   5.620 133.047  0.00  0.00    +0.019 A 
ENDROOT
BRANCH   6  12
ATOM     12  C   LIG A   1     -10.735   7.460 129.749  0.00  0.00    +0.021 A 
ATOM     13  C   LIG A   1     -10.490   7.416 128.368  0.00  0.00    +0.012 A 
ATOM     14  C   LIG A   1     -11.412   7.945 127.460  0.00  0.00    +0.001 A 
ATOM     15  C   LIG A   1     -12.587   8.533 127.922  0.00  0.00    +0.000 A 
ATOM     16  C   LIG A   1     -12.840   8.593 129.291  0.00  0.00    +0.001 A 
ATOM     17  C   LIG A   1     -11.918   8.063 130.198  0.00  0.00    +0.012 A 
ENDBRANCH   6  12
BRANCH   7  18
ATOM     18  O   LIG A   1     -11.341   5.763 132.073  0.00  0.00    -0.501 OA
ATOM     19  H   LIG A   1     -11.505   6.157 132.955  0.00  0.00    +0.292 HD
ENDBRANCH   7  18
BRANCH   9  20
ATOM     20  O   LIG A   1      -3.753   7.173 131.252  0.00  0.00    -0.507 OA
ATOM     21  H   LIG A   1      -3.201   7.103 132.048  0.00  0.00    +0.292 HD
ENDBRANCH   9  20
TORSDOF 3
ENDMDL
MODEL 4
REMARK VINA RESULT:      -7.4      2.503      6.364
REMARK  Name = NuBBE_2451
REMARK  3 active torsions:
REMARK  status: ('A' for Active; 'I' for Inactive)
REMARK    1  A    between atoms: C_6  and  C_9
REMARK    2  A    between atoms: C_7  and  O_8
REMARK    3  A    between atoms: C_16  and  O_19
REMARK                            x       y       z     vdW  Elec       q    Type
REMARK                         _______ _______ _______ _____ _____    ______ ____
ROOT
ATOM      1  O   LIG A   1      -9.871   2.347 131.525  0.00  0.00    -0.283 OA
ATOM      2  C   LIG A   1      -9.746   3.549 131.738  0.00  0.00    +0.234 A 
ATOM      3  C   LIG A   1      -8.905   4.091 132.810  0.00  0.00    +0.068 A 
ATOM      4  C   LIG A   1      -8.828   5.473 132.957  0.00  0.00    +0.143 A 
ATOM      5  O   LIG A   1      -9.500   6.349 132.144  0.00  0.00    -0.451 OA
ATOM      6  C   LIG A   1     -10.312   5.841 131.136  0.00  0.00    +0.181 A 
ATOM      7  C   LIG A   1     -10.467   4.527 130.887  0.00  0.00    +0.208 A 
ATOM      8  C   LIG A   1      -8.038   6.026 133.967  0.00  0.00    +0.092 A 
ATOM      9  C   LIG A   1      -7.334   5.177 134.818  0.00  0.00    +0.120 A 
ATOM     10  C   LIG A   1      -7.406   3.794 134.674  0.00  0.00    +0.046 A 
ATOM     11  C   LIG A   1      -8.197   3.243 133.665  0.00  0.00    +0.019 A 
ENDROOT
BRANCH   6  12
ATOM     12  C   LIG A   1     -10.974   6.900 130.343  0.00  0.00    +0.021 A 
ATOM     13  C   LIG A   1     -10.317   7.454 129.234  0.00  0.00    +0.012 A 
ATOM     14  C   LIG A   1     -10.913   8.473 128.486  0.00  0.00    +0.001 A 
ATOM     15  C   LIG A   1     -12.169   8.958 128.843  0.00  0.00    +0.000 A 
ATOM     16  C   LIG A   1     -12.830   8.424 129.947  0.00  0.00    +0.001 A 
ATOM     17  C   LIG A   1     -12.234   7.404 130.694  0.00  0.00    +0.012 A 
ENDBRANCH   6  12
BRANCH   7  18
ATOM     18  O   LIG A   1     -11.250   4.011 129.871  0.00  0.00    -0.501 OA
ATOM     19  H   LIG A   1     -12.028   4.606 129.823  0.00  0.00    +0.292 HD
ENDBRANCH   7  18
BRANCH   9  20
ATOM     20  O   LIG A   1      -6.549   5.667 135.819  0.00  0.00    -0.507 OA
ATOM     21  H   LIG A   1      -5.931   6.319 135.449  0.00  0.00    +0.292 HD
ENDBRANCH   9  20
TORSDOF 3
ENDMDL
MODEL 5
REMARK VINA RESULT:      -7.3      9.772     10.498
REMARK  Name = NuBBE_2451
REMARK  3 active torsions:
REMARK  status: ('A' for Active; 'I' for Inactive)
REMARK    1  A    between atoms: C_6  and  C_9
REMARK    2  A    between atoms: C_7  and  O_8
REMARK    3  A    between atoms: C_16  and  O_19
REMARK                            x       y       z     vdW  Elec       q    Type
REMARK                         _______ _______ _______ _____ _____    ______ ____
ROOT
ATOM      1  O   LIG A   1      -5.088  -0.485 125.746  0.00  0.00    -0.283 OA
ATOM      2  C   LIG A   1      -5.897  -1.260 126.247  0.00  0.00    +0.234 A 
ATOM      3  C   LIG A   1      -7.013  -1.848 125.501  0.00  0.00    +0.068 A 
ATOM      4  C   LIG A   1      -7.867  -2.725 126.165  0.00  0.00    +0.143 A 
ATOM      5  O   LIG A   1      -7.708  -3.063 127.485  0.00  0.00    -0.451 OA
ATOM      6  C   LIG A   1      -6.661  -2.496 128.202  0.00  0.00    +0.181 A 
ATOM      7  C   LIG A   1      -5.766  -1.641 127.674  0.00  0.00    +0.208 A 
ATOM      8  C   LIG A   1      -8.941  -3.303 125.487  0.00  0.00    +0.092 A 
ATOM      9  C   LIG A   1      -9.143  -2.992 124.145  0.00  0.00    +0.120 A 
ATOM     10  C   LIG A   1      -8.292  -2.118 123.474  0.00  0.00    +0.046 A 
ATOM     11  C   LIG A   1      -7.218  -1.539 124.154  0.00  0.00    +0.019 A 
ENDROOT
BRANCH   6  12
ATOM     12  C   LIG A   1      -6.616  -2.950 129.609  0.00  0.00    +0.021 A 
ATOM     13  C   LIG A   1      -7.429  -2.328 130.569  0.00  0.00    +0.012 A 
ATOM     14  C   LIG A   1      -7.384  -2.724 131.909  0.00  0.00    +0.001 A 
ATOM     15  C   LIG A   1      -6.521  -3.742 132.307  0.00  0.00    +0.000 A 
ATOM     16  C   LIG A   1      -5.702  -4.364 131.367  0.00  0.00    +0.001 A 
ATOM     17  C   LIG A   1      -5.747  -3.968 130.027  0.00  0.00    +0.012 A 
ENDBRANCH   6  12
BRANCH   7  18
ATOM     18  O   LIG A   1      -4.704  -1.092 128.370  0.00  0.00    -0.501 OA
ATOM     19  H   LIG A   1      -4.954  -0.155 128.514  0.00  0.00    +0.292 HD
ENDBRANCH   7  18
BRANCH   9  20
ATOM     20  O   LIG A   1     -10.177  -3.531 123.439  0.00  0.00    -0.507 OA
ATOM     21  H   LIG A   1     -10.415  -2.929 122.715  0.00  0.00    +0.292 HD
ENDBRANCH   9  20
TORSDOF 3
ENDMDL
MODEL 6
REMARK VINA RESULT:      -7.2      7.757      9.651
REMARK  Name = NuBBE_2451
REMARK  3 active torsions:
REMARK  status: ('A' for Active; 'I' for Inactive)
REMARK    1  A    between atoms: C_6  and  C_9
REMARK    2  A    between atoms: C_7  and  O_8
REMARK    3  A    between atoms: C_16  and  O_19
REMARK                            x       y       z     vdW  Elec       q    Type
REMARK                         _______ _______ _______ _____ _____    ______ ____
ROOT
ATOM      1  O   LIG A   1      -8.681   4.042 125.129  0.00  0.00    -0.283 OA
ATOM      2  C   LIG A   1      -8.044   2.996 125.209  0.00  0.00    +0.234 A 
ATOM      3  C   LIG A   1      -6.648   2.939 125.652  0.00  0.00    +0.068 A 
ATOM      4  C   LIG A   1      -6.023   1.697 125.716  0.00  0.00    +0.143 A 
ATOM      5  O   LIG A   1      -6.656   0.526 125.386  0.00  0.00    -0.451 OA
ATOM      6  C   LIG A   1      -7.975   0.575 124.950  0.00  0.00    +0.181 A 
ATOM      7  C   LIG A   1      -8.690   1.711 124.849  0.00  0.00    +0.208 A 
ATOM      8  C   LIG A   1      -4.694   1.603 126.133  0.00  0.00    +0.092 A 
ATOM      9  C   LIG A   1      -4.009   2.765 126.481  0.00  0.00    +0.120 A 
ATOM     10  C   LIG A   1      -4.629   4.010 126.421  0.00  0.00    +0.046 A 
ATOM     11  C   LIG A   1      -5.958   4.102 126.003  0.00  0.00    +0.019 A 
ENDROOT
BRANCH   6  12
ATOM     12  C   LIG A   1      -8.523  -0.760 124.628  0.00  0.00    +0.021 A 
ATOM     13  C   LIG A   1      -8.930  -1.615 125.663  0.00  0.00    +0.012 A 
ATOM     14  C   LIG A   1      -9.427  -2.891 125.383  0.00  0.00    +0.001 A 
ATOM     15  C   LIG A   1      -9.516  -3.332 124.065  0.00  0.00    +0.000 A 
ATOM     16  C   LIG A   1      -9.108  -2.497 123.026  0.00  0.00    +0.001 A 
ATOM     17  C   LIG A   1      -8.612  -1.221 123.307  0.00  0.00    +0.012 A 
ENDBRANCH   6  12
BRANCH   7  18
ATOM     18  O   LIG A   1     -10.011   1.770 124.443  0.00  0.00    -0.501 OA
ATOM     19  H   LIG A   1     -10.526   1.451 125.214  0.00  0.00    +0.292 HD
ENDBRANCH   7  18
BRANCH   9  20
ATOM     20  O   LIG A   1      -2.710   2.727 126.894  0.00  0.00    -0.507 OA
ATOM     21  H   LIG A   1      -2.148   2.448 126.151  0.00  0.00    +0.292 HD
ENDBRANCH   9  20
TORSDOF 3
ENDMDL
MODEL 7
REMARK VINA RESULT:      -7.1      1.924      6.449
REMARK  Name = NuBBE_2451
REMARK  3 active torsions:
REMARK  status: ('A' for Active; 'I' for Inactive)
REMARK    1  A    between atoms: C_6  and  C_9
REMARK    2  A    between atoms: C_7  and  O_8
REMARK    3  A    between atoms: C_16  and  O_19
REMARK                            x       y       z     vdW  Elec       q    Type
REMARK                         _______ _______ _______ _____ _____    ______ ____
ROOT
ATOM      1  O   LIG A   1      -7.264   4.668 129.105  0.00  0.00    -0.283 OA
ATOM      2  C   LIG A   1      -8.158   5.194 129.760  0.00  0.00    +0.234 A 
ATOM      3  C   LIG A   1      -8.158   5.244 131.225  0.00  0.00    +0.068 A 
ATOM      4  C   LIG A   1      -9.220   5.875 131.868  0.00  0.00    +0.143 A 
ATOM      5  O   LIG A   1     -10.262   6.455 131.192  0.00  0.00    -0.451 OA
ATOM      6  C   LIG A   1     -10.276   6.398 129.803  0.00  0.00    +0.181 A 
ATOM      7  C   LIG A   1      -9.309   5.822 129.065  0.00  0.00    +0.208 A 
ATOM      8  C   LIG A   1      -9.254   5.940 133.262  0.00  0.00    +0.092 A 
ATOM      9  C   LIG A   1      -8.217   5.368 133.993  0.00  0.00    +0.120 A 
ATOM     10  C   LIG A   1      -7.152   4.736 133.356  0.00  0.00    +0.046 A 
ATOM     11  C   LIG A   1      -7.119   4.671 131.963  0.00  0.00    +0.019 A 
ENDROOT
BRANCH   6  12
ATOM     12  C   LIG A   1     -11.459   7.061 129.213  0.00  0.00    +0.021 A 
ATOM     13  C   LIG A   1     -11.485   8.458 129.086  0.00  0.00    +0.012 A 
ATOM     14  C   LIG A   1     -12.603   9.108 128.556  0.00  0.00    +0.001 A 
ATOM     15  C   LIG A   1     -13.713   8.370 128.152  0.00  0.00    +0.000 A 
ATOM     16  C   LIG A   1     -13.706   6.982 128.279  0.00  0.00    +0.001 A 
ATOM     17  C   LIG A   1     -12.587   6.333 128.810  0.00  0.00    +0.012 A 
ENDBRANCH   6  12
BRANCH   7  18
ATOM     18  O   LIG A   1      -9.298   5.783 127.682  0.00  0.00    -0.501 OA
ATOM     19  H   LIG A   1      -9.370   6.720 127.403  0.00  0.00    +0.292 HD
ENDBRANCH   7  18
BRANCH   9  20
ATOM     20  O   LIG A   1      -8.204   5.405 135.356  0.00  0.00    -0.507 OA
ATOM     21  H   LIG A   1      -8.024   6.314 135.648  0.00  0.00    +0.292 HD
ENDBRANCH   9  20
TORSDOF 3
ENDMDL
MODEL 8
REMARK VINA RESULT:      -7.0      8.670      9.769
REMARK  Name = NuBBE_2451
REMARK  3 active torsions:
REMARK  status: ('A' for Active; 'I' for Inactive)
REMARK    1  A    between atoms: C_6  and  C_9
REMARK    2  A    between atoms: C_7  and  O_8
REMARK    3  A    between atoms: C_16  and  O_19
REMARK                            x       y       z     vdW  Elec       q    Type
REMARK                         _______ _______ _______ _____ _____    ______ ____
ROOT
ATOM      1  O   LIG A   1      -6.453  -1.021 122.496  0.00  0.00    -0.283 OA
ATOM      2  C   LIG A   1      -6.945  -0.657 123.560  0.00  0.00    +0.234 A 
ATOM      3  C   LIG A   1      -7.286   0.739 123.851  0.00  0.00    +0.068 A 
ATOM      4  C   LIG A   1      -7.851   1.039 125.088  0.00  0.00    +0.143 A 
ATOM      5  O   LIG A   1      -8.104   0.088 126.043  0.00  0.00    -0.451 OA
ATOM      6  C   LIG A   1      -7.768  -1.235 125.778  0.00  0.00    +0.181 A 
ATOM      7  C   LIG A   1      -7.222  -1.655 124.622  0.00  0.00    +0.208 A 
ATOM      8  C   LIG A   1      -8.188   2.357 125.401  0.00  0.00    +0.092 A 
ATOM      9  C   LIG A   1      -7.952   3.358 124.463  0.00  0.00    +0.120 A 
ATOM     10  C   LIG A   1      -7.389   3.064 123.224  0.00  0.00    +0.046 A 
ATOM     11  C   LIG A   1      -7.052   1.746 122.912  0.00  0.00    +0.019 A 
ENDROOT
BRANCH   6  12
ATOM     12  C   LIG A   1      -8.096  -2.145 126.898  0.00  0.00    +0.021 A 
ATOM     13  C   LIG A   1      -7.467  -1.975 128.141  0.00  0.00    +0.012 A 
ATOM     14  C   LIG A   1      -7.743  -2.839 129.205  0.00  0.00    +0.001 A 
ATOM     15  C   LIG A   1      -8.643  -3.888 129.037  0.00  0.00    +0.000 A 
ATOM     16  C   LIG A   1      -9.268  -4.075 127.806  0.00  0.00    +0.001 A 
ATOM     17  C   LIG A   1      -8.993  -3.210 126.742  0.00  0.00    +0.012 A 
ENDBRANCH   6  12
BRANCH   7  18
ATOM     18  O   LIG A   1      -6.910  -2.971 124.337  0.00  0.00    -0.501 OA
ATOM     19  H   LIG A   1      -6.231  -2.922 123.631  0.00  0.00    +0.292 HD
ENDBRANCH   7  18
BRANCH   9  20
ATOM     20  O   LIG A   1      -8.263   4.661 124.721  0.00  0.00    -0.507 OA
ATOM     21  H   LIG A   1      -7.472   5.209 124.586  0.00  0.00    +0.292 HD
ENDBRANCH   9  20
TORSDOF 3
ENDMDL
MODEL 9
REMARK VINA RESULT:      -6.9      2.766      6.035
REMARK  Name = NuBBE_2451
REMARK  3 active torsions:
REMARK  status: ('A' for Active; 'I' for Inactive)
REMARK    1  A    between atoms: C_6  and  C_9
REMARK    2  A    between atoms: C_7  and  O_8
REMARK    3  A    between atoms: C_16  and  O_19
REMARK                            x       y       z     vdW  Elec       q    Type
REMARK                         _______ _______ _______ _____ _____    ______ ____
ROOT
ATOM      1  O   LIG A   1      -6.448   5.630 131.558  0.00  0.00    -0.283 OA
ATOM      2  C   LIG A   1      -7.597   5.337 131.244  0.00  0.00    +0.234 A 
ATOM      3  C   LIG A   1      -8.173   4.005 131.453  0.00  0.00    +0.068 A 
ATOM      4  C   LIG A   1      -9.493   3.785 131.068  0.00  0.00    +0.143 A 
ATOM      5  O   LIG A   1     -10.278   4.758 130.505  0.00  0.00    -0.451 OA
ATOM      6  C   LIG A   1      -9.732   6.018 130.289  0.00  0.00    +0.181 A 
ATOM      7  C   LIG A   1      -8.474   6.359 130.620  0.00  0.00    +0.208 A 
ATOM      8  C   LIG A   1     -10.074   2.529 131.251  0.00  0.00    +0.092 A 
ATOM      9  C   LIG A   1      -9.317   1.509 131.821  0.00  0.00    +0.120 A 
ATOM     10  C   LIG A   1      -7.998   1.723 132.210  0.00  0.00    +0.046 A 
ATOM     11  C   LIG A   1      -7.418   2.979 132.026  0.00  0.00    +0.019 A 
ENDROOT
BRANCH   6  12
ATOM     12  C   LIG A   1     -10.692   6.961 129.674  0.00  0.00    +0.021 A 
ATOM     13  C   LIG A   1     -10.497   7.394 128.353  0.00  0.00    +0.012 A 
ATOM     14  C   LIG A   1     -11.377   8.304 127.761  0.00  0.00    +0.001 A 
ATOM     15  C   LIG A   1     -12.459   8.799 128.484  0.00  0.00    +0.000 A 
ATOM     16  C   LIG A   1     -12.662   8.386 129.799  0.00  0.00    +0.001 A 
ATOM     17  C   LIG A   1     -11.782   7.475 130.391  0.00  0.00    +0.012 A 
ENDBRANCH   6  12
BRANCH   7  18
ATOM     18  O   LIG A   1      -7.929   7.617 130.436  0.00  0.00    -0.501 OA
ATOM     19  H   LIG A   1      -6.964   7.496 130.563  0.00  0.00    +0.292 HD
ENDBRANCH   7  18
BRANCH   9  20
ATOM     20  O   LIG A   1      -9.839   0.264 132.021  0.00  0.00    -0.507 OA
ATOM     21  H   LIG A   1     -10.697   0.347 132.470  0.00  0.00    +0.292 HD
ENDBRANCH   9  20
TORSDOF 3
ENDMDL
