MODEL 1
REMARK VINA RESULT:      -7.9      0.000      0.000
REMARK  Name = NuBBE_577
REMARK  6 active torsions:
REMARK  status: ('A' for Active; 'I' for Inactive)
REMARK    1  A    between atoms: C_5  and  O_6
REMARK    2  A    between atoms: C_5  and  C_7
REMARK    3  A    between atoms: C_11  and  C_12
REMARK    4  A    between atoms: C_17  and  C_18
REMARK    5  A    between atoms: C_17  and  C_19
REMARK    6  A    between atoms: C_21  and  C_23
REMARK                            x       y       z     vdW  Elec       q    Type
REMARK                         _______ _______ _______ _____ _____    ______ ____
ROOT
ATOM      1  O   LIG A   1      -6.203  -1.099 124.252  0.00  0.00    -0.292 OA
ATOM      2  C   LIG A   1      -7.177  -0.949 125.003  0.00  0.00    +0.163 C 
ATOM      3  C   LIG A   1      -7.804   0.404 125.031  0.00  0.00    +0.008 C 
ATOM      4  C   LIG A   1      -8.092   0.707 123.566  0.00  0.00    +0.081 C 
ATOM      5  C   LIG A   1      -9.208   1.710 123.642  0.00  0.00    +0.129 C 
ATOM      6  C   LIG A   1      -9.312   2.473 122.339  0.00  0.00    +0.050 C 
ATOM      7  C   LIG A   1      -7.993   1.493 125.823  0.00  0.00    +0.036 C 
ATOM      8  C   LIG A   1      -7.597   2.092 127.123  0.00  0.00    +0.184 C 
ATOM      9  C   LIG A   1      -7.812   1.903 128.631  0.00  0.00    +0.098 C 
ATOM     10  C   LIG A   1      -7.075   2.809 129.605  0.00  0.00    +0.044 C 
ATOM     11  C   LIG A   1      -8.281   0.605 129.211  0.00  0.00    +0.038 C 
ATOM     12  C   LIG A   1      -7.059  -0.298 129.255  0.00  0.00    +0.007 C 
ATOM     13  C   LIG A   1      -7.341  -1.752 129.374  0.00  0.00    -0.001 C 
ATOM     14  C   LIG A   1      -7.225  -2.723 128.216  0.00  0.00    -0.001 C 
ATOM     15  C   LIG A   1      -6.156  -2.705 129.307  0.00  0.00    -0.029 C 
ATOM     16  C   LIG A   1      -6.108  -3.863 130.261  0.00  0.00    +0.011 C 
ATOM     17  C   LIG A   1      -4.763  -2.165 128.993  0.00  0.00    +0.011 C 
ATOM     18  C   LIG A   1      -6.748  -2.370 126.854  0.00  0.00    +0.015 C 
ATOM     19  C   LIG A   1      -7.734  -2.174 125.719  0.00  0.00    +0.057 C 
ATOM     20  C   LIG A   1      -9.235  -2.250 125.946  0.00  0.00    +0.016 C 
ATOM     21  O   LIG A   1      -8.741   2.630 127.872  0.00  0.00    -0.360 OA
ATOM     22  C   LIG A   1      -8.662   2.441 124.840  0.00  0.00    +0.193 C 
ATOM     23  O   LIG A   1      -8.665   3.673 124.995  0.00  0.00    -0.289 OA
ENDROOT
BRANCH   5  24
ATOM     24  O   LIG A   1     -10.455   1.071 123.892  0.00  0.00    -0.381 OA
ATOM     25  H   LIG A   1     -10.497   0.228 123.410  0.00  0.00    +0.211 HD
ENDBRANCH   5  24
TORSDOF 1
ENDMDL
MODEL 2
REMARK VINA RESULT:      -7.6      2.054      2.318
REMARK  Name = NuBBE_577
REMARK  6 active torsions:
REMARK  status: ('A' for Active; 'I' for Inactive)
REMARK    1  A    between atoms: C_5  and  O_6
REMARK    2  A    between atoms: C_5  and  C_7
REMARK    3  A    between atoms: C_11  and  C_12
REMARK    4  A    between atoms: C_17  and  C_18
REMARK    5  A    between atoms: C_17  and  C_19
REMARK    6  A    between atoms: C_21  and  C_23
REMARK                            x       y       z     vdW  Elec       q    Type
REMARK                         _______ _______ _______ _____ _____    ______ ____
ROOT
ATOM      1  O   LIG A   1      -6.722  -0.906 123.680  0.00  0.00    -0.292 OA
ATOM      2  C   LIG A   1      -7.228  -0.097 124.470  0.00  0.00    +0.163 C 
ATOM      3  C   LIG A   1      -6.767   1.318 124.373  0.00  0.00    +0.008 C 
ATOM      4  C   LIG A   1      -6.966   1.670 122.905  0.00  0.00    +0.081 C 
ATOM      5  C   LIG A   1      -7.090   3.167 122.930  0.00  0.00    +0.129 C 
ATOM      6  C   LIG A   1      -6.824   3.735 121.554  0.00  0.00    +0.050 C 
ATOM      7  C   LIG A   1      -6.065   2.274 125.036  0.00  0.00    +0.036 C 
ATOM      8  C   LIG A   1      -5.200   2.498 126.222  0.00  0.00    +0.184 C 
ATOM      9  C   LIG A   1      -5.284   2.574 127.753  0.00  0.00    +0.098 C 
ATOM     10  C   LIG A   1      -4.008   2.772 128.557  0.00  0.00    +0.044 C 
ATOM     11  C   LIG A   1      -6.423   1.976 128.519  0.00  0.00    +0.038 C 
ATOM     12  C   LIG A   1      -6.138   0.485 128.592  0.00  0.00    +0.007 C 
ATOM     13  C   LIG A   1      -7.308  -0.376 128.908  0.00  0.00    -0.001 C 
ATOM     14  C   LIG A   1      -8.033  -1.213 127.873  0.00  0.00    -0.001 C 
ATOM     15  C   LIG A   1      -7.099  -1.883 128.880  0.00  0.00    -0.029 C 
ATOM     16  C   LIG A   1      -7.719  -2.717 129.964  0.00  0.00    +0.011 C 
ATOM     17  C   LIG A   1      -5.765  -2.457 128.409  0.00  0.00    +0.011 C 
ATOM     18  C   LIG A   1      -7.629  -1.343 126.449  0.00  0.00    +0.015 C 
ATOM     19  C   LIG A   1      -8.364  -0.576 125.367  0.00  0.00    +0.057 C 
ATOM     20  C   LIG A   1      -9.475   0.406 125.701  0.00  0.00    +0.016 C 
ATOM     21  O   LIG A   1      -5.569   3.705 126.975  0.00  0.00    -0.360 OA
ATOM     22  C   LIG A   1      -6.041   3.379 123.990  0.00  0.00    +0.193 C 
ATOM     23  O   LIG A   1      -5.192   4.285 123.992  0.00  0.00    -0.289 OA
ENDROOT
BRANCH   5  24
ATOM     24  O   LIG A   1      -8.394   3.566 123.340  0.00  0.00    -0.381 OA
ATOM     25  H   LIG A   1      -8.786   2.882 123.908  0.00  0.00    +0.211 HD
ENDBRANCH   5  24
TORSDOF 1
ENDMDL
MODEL 3
REMARK VINA RESULT:      -7.6      2.010      5.093
REMARK  Name = NuBBE_577
REMARK  6 active torsions:
REMARK  status: ('A' for Active; 'I' for Inactive)
REMARK    1  A    between atoms: C_5  and  O_6
REMARK    2  A    between atoms: C_5  and  C_7
REMARK    3  A    between atoms: C_11  and  C_12
REMARK    4  A    between atoms: C_17  and  C_18
REMARK    5  A    between atoms: C_17  and  C_19
REMARK    6  A    between atoms: C_21  and  C_23
REMARK                            x       y       z     vdW  Elec       q    Type
REMARK                         _______ _______ _______ _____ _____    ______ ____
ROOT
ATOM      1  O   LIG A   1      -8.263  -2.360 129.334  0.00  0.00    -0.292 OA
ATOM      2  C   LIG A   1      -7.469  -1.498 128.931  0.00  0.00    +0.163 C 
ATOM      3  C   LIG A   1      -7.887  -0.074 129.082  0.00  0.00    +0.008 C 
ATOM      4  C   LIG A   1      -8.249   0.049 130.556  0.00  0.00    +0.081 C 
ATOM      5  C   LIG A   1      -8.077   1.518 130.824  0.00  0.00    +0.129 C 
ATOM      6  C   LIG A   1      -8.827   1.910 132.077  0.00  0.00    +0.050 C 
ATOM      7  C   LIG A   1      -8.254   1.026 128.373  0.00  0.00    +0.036 C 
ATOM      8  C   LIG A   1      -8.595   1.491 127.005  0.00  0.00    +0.184 C 
ATOM      9  C   LIG A   1      -7.934   1.773 125.648  0.00  0.00    +0.098 C 
ATOM     10  C   LIG A   1      -8.802   2.198 124.474  0.00  0.00    +0.044 C 
ATOM     11  C   LIG A   1      -6.610   1.186 125.271  0.00  0.00    +0.038 C 
ATOM     12  C   LIG A   1      -6.893  -0.248 124.854  0.00  0.00    +0.007 C 
ATOM     13  C   LIG A   1      -5.719  -1.160 124.857  0.00  0.00    -0.001 C 
ATOM     14  C   LIG A   1      -5.469  -2.197 125.934  0.00  0.00    -0.001 C 
ATOM     15  C   LIG A   1      -5.971  -2.631 124.558  0.00  0.00    -0.029 C 
ATOM     16  C   LIG A   1      -5.014  -3.358 123.659  0.00  0.00    +0.011 C 
ATOM     17  C   LIG A   1      -7.402  -3.140 124.401  0.00  0.00    +0.011 C 
ATOM     18  C   LIG A   1      -6.387  -2.486 127.065  0.00  0.00    +0.015 C 
ATOM     19  C   LIG A   1      -6.094  -1.949 128.453  0.00  0.00    +0.057 C 
ATOM     20  C   LIG A   1      -4.909  -1.036 128.719  0.00  0.00    +0.016 C 
ATOM     21  O   LIG A   1      -7.930   2.753 126.651  0.00  0.00    -0.360 OA
ATOM     22  C   LIG A   1      -8.637   1.971 129.502  0.00  0.00    +0.193 C 
ATOM     23  O   LIG A   1      -9.392   2.942 129.334  0.00  0.00    -0.289 OA
ENDROOT
BRANCH   5  24
ATOM     24  O   LIG A   1      -6.703   1.849 130.997  0.00  0.00    -0.381 OA
ATOM     25  H   LIG A   1      -6.225   1.091 131.373  0.00  0.00    +0.211 HD
ENDBRANCH   5  24
TORSDOF 1
ENDMDL
MODEL 4
REMARK VINA RESULT:      -7.5      1.992      3.277
REMARK  Name = NuBBE_577
REMARK  6 active torsions:
REMARK  status: ('A' for Active; 'I' for Inactive)
REMARK    1  A    between atoms: C_5  and  O_6
REMARK    2  A    between atoms: C_5  and  C_7
REMARK    3  A    between atoms: C_11  and  C_12
REMARK    4  A    between atoms: C_17  and  C_18
REMARK    5  A    between atoms: C_17  and  C_19
REMARK    6  A    between atoms: C_21  and  C_23
REMARK                            x       y       z     vdW  Elec       q    Type
REMARK                         _______ _______ _______ _____ _____    ______ ____
ROOT
ATOM      1  O   LIG A   1      -5.441  -2.784 126.664  0.00  0.00    -0.292 OA
ATOM      2  C   LIG A   1      -6.468  -2.359 127.211  0.00  0.00    +0.163 C 
ATOM      3  C   LIG A   1      -7.503  -1.754 126.324  0.00  0.00    +0.008 C 
ATOM      4  C   LIG A   1      -7.754  -2.823 125.269  0.00  0.00    +0.081 C 
ATOM      5  C   LIG A   1      -9.139  -2.500 124.784  0.00  0.00    +0.129 C 
ATOM      6  C   LIG A   1      -9.381  -3.140 123.435  0.00  0.00    +0.050 C 
ATOM      7  C   LIG A   1      -8.101  -0.575 126.007  0.00  0.00    +0.036 C 
ATOM      8  C   LIG A   1      -8.030   0.889 126.246  0.00  0.00    +0.184 C 
ATOM      9  C   LIG A   1      -8.292   1.925 127.348  0.00  0.00    +0.098 C 
ATOM     10  C   LIG A   1      -7.973   3.388 127.082  0.00  0.00    +0.044 C 
ATOM     11  C   LIG A   1      -8.356   1.549 128.795  0.00  0.00    +0.038 C 
ATOM     12  C   LIG A   1      -6.914   1.403 129.252  0.00  0.00    +0.007 C 
ATOM     13  C   LIG A   1      -6.713   0.623 130.501  0.00  0.00    -0.001 C 
ATOM     14  C   LIG A   1      -6.192  -0.800 130.523  0.00  0.00    -0.001 C 
ATOM     15  C   LIG A   1      -5.280   0.353 130.938  0.00  0.00    -0.029 C 
ATOM     16  C   LIG A   1      -4.933   0.484 132.393  0.00  0.00    +0.011 C 
ATOM     17  C   LIG A   1      -4.120   0.763 130.034  0.00  0.00    +0.011 C 
ATOM     18  C   LIG A   1      -5.749  -1.562 129.327  0.00  0.00    +0.015 C 
ATOM     19  C   LIG A   1      -6.649  -2.610 128.703  0.00  0.00    +0.057 C 
ATOM     20  C   LIG A   1      -8.056  -2.862 129.221  0.00  0.00    +0.016 C 
ATOM     21  O   LIG A   1      -9.343   1.483 126.531  0.00  0.00    -0.360 OA
ATOM     22  C   LIG A   1      -8.961  -1.006 124.829  0.00  0.00    +0.193 C 
ATOM     23  O   LIG A   1      -9.380  -0.205 123.977  0.00  0.00    -0.289 OA
ENDROOT
BRANCH   5  24
ATOM     24  O   LIG A   1     -10.124  -2.978 125.694  0.00  0.00    -0.381 OA
ATOM     25  H   LIG A   1      -9.821  -3.803 126.107  0.00  0.00    +0.211 HD
ENDBRANCH   5  24
TORSDOF 1
ENDMDL
MODEL 5
REMARK VINA RESULT:      -7.3      6.237      7.426
REMARK  Name = NuBBE_577
REMARK  6 active torsions:
REMARK  status: ('A' for Active; 'I' for Inactive)
REMARK    1  A    between atoms: C_5  and  O_6
REMARK    2  A    between atoms: C_5  and  C_7
REMARK    3  A    between atoms: C_11  and  C_12
REMARK    4  A    between atoms: C_17  and  C_18
REMARK    5  A    between atoms: C_17  and  C_19
REMARK    6  A    between atoms: C_21  and  C_23
REMARK                            x       y       z     vdW  Elec       q    Type
REMARK                         _______ _______ _______ _____ _____    ______ ____
ROOT
ATOM      1  O   LIG A   1      -9.177   2.353 130.955  0.00  0.00    -0.292 OA
ATOM      2  C   LIG A   1      -8.640   3.190 131.694  0.00  0.00    +0.163 C 
ATOM      3  C   LIG A   1      -8.804   4.624 131.319  0.00  0.00    +0.008 C 
ATOM      4  C   LIG A   1     -10.310   4.796 131.171  0.00  0.00    +0.081 C 
ATOM      5  C   LIG A   1     -10.506   6.268 131.397  0.00  0.00    +0.129 C 
ATOM      6  C   LIG A   1     -11.841   6.708 130.837  0.00  0.00    +0.050 C 
ATOM      7  C   LIG A   1      -8.121   5.709 130.868  0.00  0.00    +0.036 C 
ATOM      8  C   LIG A   1      -6.801   6.140 130.341  0.00  0.00    +0.184 C 
ATOM      9  C   LIG A   1      -5.357   6.372 130.806  0.00  0.00    +0.098 C 
ATOM     10  C   LIG A   1      -4.305   6.777 129.785  0.00  0.00    +0.044 C 
ATOM     11  C   LIG A   1      -4.814   5.753 132.057  0.00  0.00    +0.038 C 
ATOM     12  C   LIG A   1      -4.486   4.313 131.700  0.00  0.00    +0.007 C 
ATOM     13  C   LIG A   1      -4.351   3.382 132.851  0.00  0.00    -0.001 C 
ATOM     14  C   LIG A   1      -5.412   2.373 133.240  0.00  0.00    -0.001 C 
ATOM     15  C   LIG A   1      -4.135   1.908 132.542  0.00  0.00    -0.029 C 
ATOM     16  C   LIG A   1      -3.133   1.140 133.354  0.00  0.00    +0.011 C 
ATOM     17  C   LIG A   1      -4.198   1.418 131.098  0.00  0.00    +0.011 C 
ATOM     18  C   LIG A   1      -6.671   2.131 132.488  0.00  0.00    +0.015 C 
ATOM     19  C   LIG A   1      -7.986   2.703 132.982  0.00  0.00    +0.057 C 
ATOM     20  C   LIG A   1      -8.053   3.604 134.204  0.00  0.00    +0.016 C 
ATOM     21  O   LIG A   1      -6.318   7.381 130.965  0.00  0.00    -0.360 OA
ATOM     22  C   LIG A   1      -9.263   6.692 130.660  0.00  0.00    +0.193 C 
ATOM     23  O   LIG A   1      -9.175   7.670 129.900  0.00  0.00    -0.289 OA
ENDROOT
BRANCH   5  24
ATOM     24  O   LIG A   1     -10.472   6.582 132.785  0.00  0.00    -0.381 OA
ATOM     25  H   LIG A   1     -10.172   7.497 132.911  0.00  0.00    +0.211 HD
ENDBRANCH   5  24
TORSDOF 1
ENDMDL
MODEL 6
REMARK VINA RESULT:      -7.2      3.907      7.272
REMARK  Name = NuBBE_577
REMARK  6 active torsions:
REMARK  status: ('A' for Active; 'I' for Inactive)
REMARK    1  A    between atoms: C_5  and  O_6
REMARK    2  A    between atoms: C_5  and  C_7
REMARK    3  A    between atoms: C_11  and  C_12
REMARK    4  A    between atoms: C_17  and  C_18
REMARK    5  A    between atoms: C_17  and  C_19
REMARK    6  A    between atoms: C_21  and  C_23
REMARK                            x       y       z     vdW  Elec       q    Type
REMARK                         _______ _______ _______ _____ _____    ______ ____
ROOT
ATOM      1  O   LIG A   1      -4.154   3.636 127.713  0.00  0.00    -0.292 OA
ATOM      2  C   LIG A   1      -4.636   3.563 128.853  0.00  0.00    +0.163 C 
ATOM      3  C   LIG A   1      -6.058   3.127 128.956  0.00  0.00    +0.008 C 
ATOM      4  C   LIG A   1      -6.100   1.820 128.175  0.00  0.00    +0.081 C 
ATOM      5  C   LIG A   1      -7.289   1.113 128.763  0.00  0.00    +0.129 C 
ATOM      6  C   LIG A   1      -7.771   0.033 127.822  0.00  0.00    +0.050 C 
ATOM      7  C   LIG A   1      -7.302   3.565 129.285  0.00  0.00    +0.036 C 
ATOM      8  C   LIG A   1      -8.073   4.785 129.634  0.00  0.00    +0.184 C 
ATOM      9  C   LIG A   1      -8.243   5.793 130.780  0.00  0.00    +0.098 C 
ATOM     10  C   LIG A   1      -9.176   6.979 130.592  0.00  0.00    +0.044 C 
ATOM     11  C   LIG A   1      -7.204   5.972 131.843  0.00  0.00    +0.038 C 
ATOM     12  C   LIG A   1      -6.117   6.835 131.223  0.00  0.00    +0.007 C 
ATOM     13  C   LIG A   1      -4.798   6.793 131.905  0.00  0.00    -0.001 C 
ATOM     14  C   LIG A   1      -3.605   6.027 131.371  0.00  0.00    -0.001 C 
ATOM     15  C   LIG A   1      -3.647   7.550 131.258  0.00  0.00    -0.029 C 
ATOM     16  C   LIG A   1      -2.723   8.344 132.134  0.00  0.00    +0.011 C 
ATOM     17  C   LIG A   1      -3.840   8.202 129.891  0.00  0.00    +0.011 C 
ATOM     18  C   LIG A   1      -3.573   5.295 130.078  0.00  0.00    +0.015 C 
ATOM     19  C   LIG A   1      -3.711   3.785 130.044  0.00  0.00    +0.057 C 
ATOM     20  C   LIG A   1      -3.967   2.980 131.308  0.00  0.00    +0.016 C 
ATOM     21  O   LIG A   1      -8.958   4.587 130.790  0.00  0.00    -0.360 OA
ATOM     22  C   LIG A   1      -8.135   2.350 128.904  0.00  0.00    +0.193 C 
ATOM     23  O   LIG A   1      -9.351   2.422 128.661  0.00  0.00    -0.289 OA
ENDROOT
BRANCH   5  24
ATOM     24  O   LIG A   1      -6.959   0.512 130.011  0.00  0.00    -0.381 OA
ATOM     25  H   LIG A   1      -7.312  -0.393 130.046  0.00  0.00    +0.211 HD
ENDBRANCH   5  24
TORSDOF 1
ENDMDL
MODEL 7
REMARK VINA RESULT:      -7.2      2.509      5.496
REMARK  Name = NuBBE_577
REMARK  6 active torsions:
REMARK  status: ('A' for Active; 'I' for Inactive)
REMARK    1  A    between atoms: C_5  and  O_6
REMARK    2  A    between atoms: C_5  and  C_7
REMARK    3  A    between atoms: C_11  and  C_12
REMARK    4  A    between atoms: C_17  and  C_18
REMARK    5  A    between atoms: C_17  and  C_19
REMARK    6  A    between atoms: C_21  and  C_23
REMARK                            x       y       z     vdW  Elec       q    Type
REMARK                         _______ _______ _______ _____ _____    ______ ____
ROOT
ATOM      1  O   LIG A   1      -4.906   0.996 126.059  0.00  0.00    -0.292 OA
ATOM      2  C   LIG A   1      -5.884   0.771 126.786  0.00  0.00    +0.163 C 
ATOM      3  C   LIG A   1      -5.624   0.661 128.250  0.00  0.00    +0.008 C 
ATOM      4  C   LIG A   1      -4.877   1.944 128.589  0.00  0.00    +0.081 C 
ATOM      5  C   LIG A   1      -5.149   2.117 130.056  0.00  0.00    +0.129 C 
ATOM      6  C   LIG A   1      -4.130   3.051 130.670  0.00  0.00    +0.050 C 
ATOM      7  C   LIG A   1      -5.616  -0.222 129.284  0.00  0.00    +0.036 C 
ATOM      8  C   LIG A   1      -5.739  -1.666 129.607  0.00  0.00    +0.184 C 
ATOM      9  C   LIG A   1      -6.789  -2.785 129.655  0.00  0.00    +0.098 C 
ATOM     10  C   LIG A   1      -6.351  -4.198 130.011  0.00  0.00    +0.044 C 
ATOM     11  C   LIG A   1      -8.080  -2.698 128.903  0.00  0.00    +0.038 C 
ATOM     12  C   LIG A   1      -7.748  -3.048 127.462  0.00  0.00    +0.007 C 
ATOM     13  C   LIG A   1      -8.747  -2.615 126.451  0.00  0.00    -0.001 C 
ATOM     14  C   LIG A   1      -8.548  -1.423 125.536  0.00  0.00    -0.001 C 
ATOM     15  C   LIG A   1      -8.407  -2.841 124.984  0.00  0.00    -0.029 C 
ATOM     16  C   LIG A   1      -9.481  -3.346 124.065  0.00  0.00    +0.011 C 
ATOM     17  C   LIG A   1      -7.028  -3.368 124.597  0.00  0.00    +0.011 C 
ATOM     18  C   LIG A   1      -7.317  -0.593 125.477  0.00  0.00    +0.015 C 
ATOM     19  C   LIG A   1      -7.269   0.764 126.151  0.00  0.00    +0.057 C 
ATOM     20  C   LIG A   1      -8.436   1.286 126.974  0.00  0.00    +0.016 C 
ATOM     21  O   LIG A   1      -6.631  -1.919 130.747  0.00  0.00    -0.360 OA
ATOM     22  C   LIG A   1      -5.050   0.652 130.393  0.00  0.00    +0.193 C 
ATOM     23  O   LIG A   1      -4.503   0.181 131.403  0.00  0.00    -0.289 OA
ENDROOT
BRANCH   5  24
ATOM     24  O   LIG A   1      -6.448   2.658 130.275  0.00  0.00    -0.381 OA
ATOM     25  H   LIG A   1      -6.700   3.226 129.527  0.00  0.00    +0.211 HD
ENDBRANCH   5  24
TORSDOF 1
ENDMDL
MODEL 8
REMARK VINA RESULT:      -7.2      5.201      8.641
REMARK  Name = NuBBE_577
REMARK  6 active torsions:
REMARK  status: ('A' for Active; 'I' for Inactive)
REMARK    1  A    between atoms: C_5  and  O_6
REMARK    2  A    between atoms: C_5  and  C_7
REMARK    3  A    between atoms: C_11  and  C_12
REMARK    4  A    between atoms: C_17  and  C_18
REMARK    5  A    between atoms: C_17  and  C_19
REMARK    6  A    between atoms: C_21  and  C_23
REMARK                            x       y       z     vdW  Elec       q    Type
REMARK                         _______ _______ _______ _____ _____    ______ ____
ROOT
ATOM      1  O   LIG A   1     -10.421   1.306 131.845  0.00  0.00    -0.292 OA
ATOM      2  C   LIG A   1      -9.377   1.903 131.544  0.00  0.00    +0.163 C 
ATOM      3  C   LIG A   1      -8.188   1.657 132.409  0.00  0.00    +0.008 C 
ATOM      4  C   LIG A   1      -8.056   0.141 132.431  0.00  0.00    +0.081 C 
ATOM      5  C   LIG A   1      -6.603  -0.068 132.755  0.00  0.00    +0.129 C 
ATOM      6  C   LIG A   1      -6.381  -1.470 133.277  0.00  0.00    +0.050 C 
ATOM      7  C   LIG A   1      -7.366   2.254 133.313  0.00  0.00    +0.036 C 
ATOM      8  C   LIG A   1      -7.189   3.491 134.115  0.00  0.00    +0.184 C 
ATOM      9  C   LIG A   1      -6.827   4.973 133.946  0.00  0.00    +0.098 C 
ATOM     10  C   LIG A   1      -6.856   5.887 135.161  0.00  0.00    +0.044 C 
ATOM     11  C   LIG A   1      -6.939   5.674 132.628  0.00  0.00    +0.038 C 
ATOM     12  C   LIG A   1      -8.414   5.998 132.453  0.00  0.00    +0.007 C 
ATOM     13  C   LIG A   1      -8.844   6.292 131.061  0.00  0.00    -0.001 C 
ATOM     14  C   LIG A   1      -9.612   5.311 130.199  0.00  0.00    -0.001 C 
ATOM     15  C   LIG A   1     -10.331   6.509 130.816  0.00  0.00    -0.029 C 
ATOM     16  C   LIG A   1     -10.755   7.620 129.900  0.00  0.00    +0.011 C 
ATOM     17  C   LIG A   1     -11.328   6.292 131.951  0.00  0.00    +0.011 C 
ATOM     18  C   LIG A   1     -10.096   3.980 130.649  0.00  0.00    +0.015 C 
ATOM     19  C   LIG A   1      -9.356   2.716 130.256  0.00  0.00    +0.057 C 
ATOM     20  C   LIG A   1      -8.059   2.767 129.463  0.00  0.00    +0.016 C 
ATOM     21  O   LIG A   1      -5.815   4.009 134.066  0.00  0.00    -0.360 OA
ATOM     22  C   LIG A   1      -6.512   1.069 133.738  0.00  0.00    +0.193 C 
ATOM     23  O   LIG A   1      -5.894   1.041 134.815  0.00  0.00    -0.289 OA
ENDROOT
BRANCH   5  24
ATOM     24  O   LIG A   1      -5.790   0.119 131.601  0.00  0.00    -0.381 OA
ATOM     25  H   LIG A   1      -4.883   0.341 131.868  0.00  0.00    +0.211 HD
ENDBRANCH   5  24
TORSDOF 1
ENDMDL
MODEL 9
REMARK VINA RESULT:      -7.1      2.610      3.520
REMARK  Name = NuBBE_577
REMARK  6 active torsions:
REMARK  status: ('A' for Active; 'I' for Inactive)
REMARK    1  A    between atoms: C_5  and  O_6
REMARK    2  A    between atoms: C_5  and  C_7
REMARK    3  A    between atoms: C_11  and  C_12
REMARK    4  A    between atoms: C_17  and  C_18
REMARK    5  A    between atoms: C_17  and  C_19
REMARK    6  A    between atoms: C_21  and  C_23
REMARK                            x       y       z     vdW  Elec       q    Type
REMARK                         _______ _______ _______ _____ _____    ______ ____
ROOT
ATOM      1  O   LIG A   1      -6.058  -0.166 125.337  0.00  0.00    -0.292 OA
ATOM      2  C   LIG A   1      -6.577   0.826 125.868  0.00  0.00    +0.163 C 
ATOM      3  C   LIG A   1      -6.380   2.136 125.183  0.00  0.00    +0.008 C 
ATOM      4  C   LIG A   1      -6.842   1.879 123.755  0.00  0.00    +0.081 C 
ATOM      5  C   LIG A   1      -7.211   3.251 123.267  0.00  0.00    +0.129 C 
ATOM      6  C   LIG A   1      -7.244   3.275 121.755  0.00  0.00    +0.050 C 
ATOM      7  C   LIG A   1      -5.762   3.341 125.310  0.00  0.00    +0.036 C 
ATOM      8  C   LIG A   1      -4.788   4.088 126.145  0.00  0.00    +0.184 C 
ATOM      9  C   LIG A   1      -4.666   4.734 127.532  0.00  0.00    +0.098 C 
ATOM     10  C   LIG A   1      -3.341   5.355 127.947  0.00  0.00    +0.044 C 
ATOM     11  C   LIG A   1      -5.567   4.359 128.668  0.00  0.00    +0.038 C 
ATOM     12  C   LIG A   1      -5.027   3.047 129.212  0.00  0.00    +0.007 C 
ATOM     13  C   LIG A   1      -5.978   2.255 130.036  0.00  0.00    -0.001 C 
ATOM     14  C   LIG A   1      -6.690   1.017 129.532  0.00  0.00    -0.001 C 
ATOM     15  C   LIG A   1      -5.523   0.882 130.509  0.00  0.00    -0.029 C 
ATOM     16  C   LIG A   1      -5.833   0.466 131.918  0.00  0.00    +0.011 C 
ATOM     17  C   LIG A   1      -4.192   0.314 130.024  0.00  0.00    +0.011 C 
ATOM     18  C   LIG A   1      -6.476   0.396 128.199  0.00  0.00    +0.015 C 
ATOM     19  C   LIG A   1      -7.476   0.611 127.079  0.00  0.00    +0.057 C 
ATOM     20  C   LIG A   1      -8.678   1.525 127.250  0.00  0.00    +0.016 C 
ATOM     21  O   LIG A   1      -5.245   5.446 126.472  0.00  0.00    -0.360 OA
ATOM     22  C   LIG A   1      -6.074   3.958 123.955  0.00  0.00    +0.193 C 
ATOM     23  O   LIG A   1      -5.399   4.879 123.468  0.00  0.00    -0.289 OA
ENDROOT
BRANCH   5  24
ATOM     24  O   LIG A   1      -8.492   3.639 123.753  0.00  0.00    -0.381 OA
ATOM     25  H   LIG A   1      -8.481   4.578 124.004  0.00  0.00    +0.211 HD
ENDBRANCH   5  24
TORSDOF 1
ENDMDL
