MODEL 1
REMARK VINA RESULT:      -6.7      0.000      0.000
REMARK  Name = NuBBE_2094
REMARK  10 active torsions:
REMARK  status: ('A' for Active; 'I' for Inactive)
REMARK    1  A    between atoms: C_1  and  O_2
REMARK    2  A    between atoms: O_2  and  C_3
REMARK    3  A    between atoms: C_6  and  C_7
REMARK    4  A    between atoms: C_7  and  C_8
REMARK    5  A    between atoms: C_9  and  C_10
REMARK    6  A    between atoms: C_11  and  C_12
REMARK    7  A    between atoms: N_14  and  C_15
REMARK    8  A    between atoms: C_15  and  C_16
REMARK    9  A    between atoms: C_16  and  C_17
REMARK   10  A    between atoms: C_16  and  C_18
REMARK                            x       y       z     vdW  Elec       q    Type
REMARK                         _______ _______ _______ _____ _____    ______ ____
ROOT
ATOM      1  C   LIG A   1      -6.537   7.059 131.054  0.00  0.00    -0.022 C 
ATOM      2  C   LIG A   1      -7.632   6.434 131.511  0.00  0.00    -0.004 C 
ENDROOT
BRANCH   2   3
ATOM      3  C   LIG A   1      -8.973   6.736 131.062  0.00  0.00    +0.005 C 
ATOM      4  C   LIG A   1     -10.059   6.212 131.648  0.00  0.00    +0.067 C 
BRANCH   4   5
ATOM      5  C   LIG A   1     -11.426   6.531 131.146  0.00  0.00    +0.237 C 
ATOM      6  O   LIG A   1     -12.377   6.721 131.882  0.00  0.00    -0.271 OA
ATOM      7  N   LIG A   1     -11.476   6.577 129.776  0.00  0.00    -0.312 N 
ATOM      8  H   LIG A   1     -10.634   6.453 129.232  0.00  0.00    +0.149 HD
BRANCH   7   9
ATOM      9  C   LIG A   1     -12.703   6.852 129.048  0.00  0.00    +0.107 C 
BRANCH   9  10
ATOM     10  C   LIG A   1     -12.638   8.147 128.223  0.00  0.00    +0.000 C 
ATOM     11  C   LIG A   1     -13.019   9.369 129.065  0.00  0.00    +0.009 C 
ATOM     12  C   LIG A   1     -11.231   8.327 127.649  0.00  0.00    +0.009 C 
ENDBRANCH   9  10
ENDBRANCH   7   9
ENDBRANCH   4   5
ENDBRANCH   2   3
BRANCH   1  13
ATOM     13  C   LIG A   1      -5.142   6.711 131.497  0.00  0.00    +0.062 C 
BRANCH  13  17
ATOM     14  C   LIG A   1      -2.820   4.784 128.389  0.00  0.00    +0.120 A 
ATOM     15  C   LIG A   1      -3.657   4.035 129.215  0.00  0.00    +0.046 A 
ATOM     16  C   LIG A   1      -4.409   4.662 130.213  0.00  0.00    +0.007 A 
ATOM     17  C   LIG A   1      -4.329   6.046 130.410  0.00  0.00    -0.043 A 
ATOM     18  C   LIG A   1      -3.495   6.795 129.571  0.00  0.00    +0.007 A 
ATOM     19  C   LIG A   1      -2.744   6.166 128.572  0.00  0.00    +0.046 A 
BRANCH  14  21
ATOM     20  C   LIG A   1      -2.472   3.047 126.813  0.00  0.00    +0.277 C 
ATOM     21  O   LIG A   1      -2.042   4.281 127.380  0.00  0.00    -0.495 OA
ENDBRANCH  14  21
ENDBRANCH  13  17
ENDBRANCH   1  13
TORSDOF 7
ENDMDL
MODEL 2
REMARK VINA RESULT:      -6.5      2.766      8.785
REMARK  Name = NuBBE_2094
REMARK  10 active torsions:
REMARK  status: ('A' for Active; 'I' for Inactive)
REMARK    1  A    between atoms: C_1  and  O_2
REMARK    2  A    between atoms: O_2  and  C_3
REMARK    3  A    between atoms: C_6  and  C_7
REMARK    4  A    between atoms: C_7  and  C_8
REMARK    5  A    between atoms: C_9  and  C_10
REMARK    6  A    between atoms: C_11  and  C_12
REMARK    7  A    between atoms: N_14  and  C_15
REMARK    8  A    between atoms: C_15  and  C_16
REMARK    9  A    between atoms: C_16  and  C_17
REMARK   10  A    between atoms: C_16  and  C_18
REMARK                            x       y       z     vdW  Elec       q    Type
REMARK                         _______ _______ _______ _____ _____    ______ ____
ROOT
ATOM      1  C   LIG A   1      -9.777   5.280 130.677  0.00  0.00    -0.022 C 
ATOM      2  C   LIG A   1      -9.230   6.134 131.555  0.00  0.00    -0.004 C 
ENDROOT
BRANCH   2   3
ATOM      3  C   LIG A   1      -7.814   6.190 131.840  0.00  0.00    +0.005 C 
ATOM      4  C   LIG A   1      -6.966   6.932 131.112  0.00  0.00    +0.067 C 
BRANCH   4   5
ATOM      5  C   LIG A   1      -5.509   6.951 131.424  0.00  0.00    +0.237 C 
ATOM      6  O   LIG A   1      -5.039   6.462 132.435  0.00  0.00    -0.271 OA
ATOM      7  N   LIG A   1      -4.779   7.582 130.449  0.00  0.00    -0.312 N 
ATOM      8  H   LIG A   1      -5.235   7.925 129.615  0.00  0.00    +0.149 HD
BRANCH   7   9
ATOM      9  C   LIG A   1      -3.338   7.746 130.534  0.00  0.00    +0.107 C 
BRANCH   9  10
ATOM     10  C   LIG A   1      -2.566   6.450 130.238  0.00  0.00    +0.000 C 
ATOM     11  C   LIG A   1      -2.101   6.393 128.780  0.00  0.00    +0.009 C 
ATOM     12  C   LIG A   1      -1.361   6.339 131.175  0.00  0.00    +0.009 C 
ENDBRANCH   9  10
ENDBRANCH   7   9
ENDBRANCH   4   5
ENDBRANCH   2   3
BRANCH   1  13
ATOM     13  C   LIG A   1     -11.247   5.256 130.355  0.00  0.00    +0.062 C 
BRANCH  13  17
ATOM     14  C   LIG A   1     -12.811   9.167 129.346  0.00  0.00    +0.120 A 
ATOM     15  C   LIG A   1     -12.019   8.466 128.439  0.00  0.00    +0.046 A 
ATOM     16  C   LIG A   1     -11.520   7.201 128.765  0.00  0.00    +0.007 A 
ATOM     17  C   LIG A   1     -11.796   6.621 130.010  0.00  0.00    -0.043 A 
ATOM     18  C   LIG A   1     -12.601   7.325 130.914  0.00  0.00    +0.007 A 
ATOM     19  C   LIG A   1     -13.099   8.590 130.585  0.00  0.00    +0.046 A 
BRANCH  14  21
ATOM     20  C   LIG A   1     -13.508  11.229 130.286  0.00  0.00    +0.277 C 
ATOM     21  O   LIG A   1     -13.354  10.406 129.134  0.00  0.00    -0.495 OA
ENDBRANCH  14  21
ENDBRANCH  13  17
ENDBRANCH   1  13
TORSDOF 7
ENDMDL
MODEL 3
REMARK VINA RESULT:      -6.3      2.345      8.675
REMARK  Name = NuBBE_2094
REMARK  10 active torsions:
REMARK  status: ('A' for Active; 'I' for Inactive)
REMARK    1  A    between atoms: C_1  and  O_2
REMARK    2  A    between atoms: O_2  and  C_3
REMARK    3  A    between atoms: C_6  and  C_7
REMARK    4  A    between atoms: C_7  and  C_8
REMARK    5  A    between atoms: C_9  and  C_10
REMARK    6  A    between atoms: C_11  and  C_12
REMARK    7  A    between atoms: N_14  and  C_15
REMARK    8  A    between atoms: C_15  and  C_16
REMARK    9  A    between atoms: C_16  and  C_17
REMARK   10  A    between atoms: C_16  and  C_18
REMARK                            x       y       z     vdW  Elec       q    Type
REMARK                         _______ _______ _______ _____ _____    ______ ____
ROOT
ATOM      1  C   LIG A   1      -8.037   5.948 131.399  0.00  0.00    -0.022 C 
ATOM      2  C   LIG A   1      -6.974   6.590 131.908  0.00  0.00    -0.004 C 
ENDROOT
BRANCH   2   3
ATOM      3  C   LIG A   1      -5.673   6.607 131.278  0.00  0.00    +0.005 C 
ATOM      4  C   LIG A   1      -5.352   5.776 130.276  0.00  0.00    +0.067 C 
BRANCH   4   5
ATOM      5  C   LIG A   1      -3.994   5.809 129.662  0.00  0.00    +0.237 C 
ATOM      6  O   LIG A   1      -3.117   6.569 130.031  0.00  0.00    -0.271 OA
ATOM      7  N   LIG A   1      -3.862   4.898 128.646  0.00  0.00    -0.312 N 
ATOM      8  H   LIG A   1      -4.622   4.269 128.426  0.00  0.00    +0.149 HD
BRANCH   7   9
ATOM      9  C   LIG A   1      -2.637   4.752 127.880  0.00  0.00    +0.107 C 
BRANCH   9  10
ATOM     10  C   LIG A   1      -2.771   3.766 126.709  0.00  0.00    +0.000 C 
ATOM     11  C   LIG A   1      -1.493   2.944 126.517  0.00  0.00    +0.009 C 
ATOM     12  C   LIG A   1      -3.960   2.833 126.951  0.00  0.00    +0.009 C 
ENDBRANCH   9  10
ENDBRANCH   7   9
ENDBRANCH   4   5
ENDBRANCH   2   3
BRANCH   1  13
ATOM     13  C   LIG A   1      -9.398   5.969 132.040  0.00  0.00    +0.062 C 
BRANCH  13  17
ATOM     14  C   LIG A   1     -12.374   7.909 129.560  0.00  0.00    +0.120 A 
ATOM     15  C   LIG A   1     -11.033   7.901 129.181  0.00  0.00    +0.046 A 
ATOM     16  C   LIG A   1     -10.076   7.269 129.981  0.00  0.00    +0.007 A 
ATOM     17  C   LIG A   1     -10.442   6.644 131.180  0.00  0.00    -0.043 A 
ATOM     18  C   LIG A   1     -11.792   6.646 131.552  0.00  0.00    +0.007 A 
ATOM     19  C   LIG A   1     -12.748   7.278 130.749  0.00  0.00    +0.046 A 
BRANCH  14  21
ATOM     20  C   LIG A   1     -13.401   9.916 128.826  0.00  0.00    +0.277 C 
ATOM     21  O   LIG A   1     -13.395   8.492 128.857  0.00  0.00    -0.495 OA
ENDBRANCH  14  21
ENDBRANCH  13  17
ENDBRANCH   1  13
TORSDOF 7
ENDMDL
MODEL 4
REMARK VINA RESULT:      -6.2      4.807      8.504
REMARK  Name = NuBBE_2094
REMARK  10 active torsions:
REMARK  status: ('A' for Active; 'I' for Inactive)
REMARK    1  A    between atoms: C_1  and  O_2
REMARK    2  A    between atoms: O_2  and  C_3
REMARK    3  A    between atoms: C_6  and  C_7
REMARK    4  A    between atoms: C_7  and  C_8
REMARK    5  A    between atoms: C_9  and  C_10
REMARK    6  A    between atoms: C_11  and  C_12
REMARK    7  A    between atoms: N_14  and  C_15
REMARK    8  A    between atoms: C_15  and  C_16
REMARK    9  A    between atoms: C_16  and  C_17
REMARK   10  A    between atoms: C_16  and  C_18
REMARK                            x       y       z     vdW  Elec       q    Type
REMARK                         _______ _______ _______ _____ _____    ______ ____
ROOT
ATOM      1  C   LIG A   1      -8.686   6.277 131.116  0.00  0.00    -0.022 C 
ATOM      2  C   LIG A   1      -8.848   5.623 132.276  0.00  0.00    -0.004 C 
ENDROOT
BRANCH   2   3
ATOM      3  C   LIG A   1      -8.115   5.938 133.482  0.00  0.00    +0.005 C 
ATOM      4  C   LIG A   1      -8.286   5.253 134.622  0.00  0.00    +0.067 C 
BRANCH   4   5
ATOM      5  C   LIG A   1      -7.526   5.618 135.852  0.00  0.00    +0.237 C 
ATOM      6  O   LIG A   1      -6.525   5.027 136.214  0.00  0.00    -0.271 OA
ATOM      7  N   LIG A   1      -8.089   6.680 136.512  0.00  0.00    -0.312 N 
ATOM      8  H   LIG A   1      -8.896   7.149 136.125  0.00  0.00    +0.149 HD
BRANCH   7   9
ATOM      9  C   LIG A   1      -7.542   7.211 137.749  0.00  0.00    +0.107 C 
BRANCH   9  10
ATOM     10  C   LIG A   1      -8.144   8.570 138.141  0.00  0.00    +0.000 C 
ATOM     11  C   LIG A   1      -7.104   9.691 138.056  0.00  0.00    +0.009 C 
ATOM     12  C   LIG A   1      -9.334   8.891 137.233  0.00  0.00    +0.009 C 
ENDBRANCH   9  10
ENDBRANCH   7   9
ENDBRANCH   4   5
ENDBRANCH   2   3
BRANCH   1  13
ATOM     13  C   LIG A   1      -9.482   5.970 129.877  0.00  0.00    +0.062 C 
BRANCH  13  17
ATOM     14  C   LIG A   1     -12.482   8.970 129.002  0.00  0.00    +0.120 A 
ATOM     15  C   LIG A   1     -11.447   8.720 128.102  0.00  0.00    +0.046 A 
ATOM     16  C   LIG A   1     -10.483   7.747 128.385  0.00  0.00    +0.007 A 
ATOM     17  C   LIG A   1     -10.532   7.015 129.579  0.00  0.00    -0.043 A 
ATOM     18  C   LIG A   1     -11.580   7.262 130.475  0.00  0.00    +0.007 A 
ATOM     19  C   LIG A   1     -12.543   8.236 130.188  0.00  0.00    +0.046 A 
BRANCH  14  21
ATOM     20  C   LIG A   1     -13.543  10.935 129.797  0.00  0.00    +0.277 C 
ATOM     21  O   LIG A   1     -13.479   9.892 128.829  0.00  0.00    -0.495 OA
ENDBRANCH  14  21
ENDBRANCH  13  17
ENDBRANCH   1  13
TORSDOF 7
ENDMDL
MODEL 5
REMARK VINA RESULT:      -6.2      4.662      6.643
REMARK  Name = NuBBE_2094
REMARK  10 active torsions:
REMARK  status: ('A' for Active; 'I' for Inactive)
REMARK    1  A    between atoms: C_1  and  O_2
REMARK    2  A    between atoms: O_2  and  C_3
REMARK    3  A    between atoms: C_6  and  C_7
REMARK    4  A    between atoms: C_7  and  C_8
REMARK    5  A    between atoms: C_9  and  C_10
REMARK    6  A    between atoms: C_11  and  C_12
REMARK    7  A    between atoms: N_14  and  C_15
REMARK    8  A    between atoms: C_15  and  C_16
REMARK    9  A    between atoms: C_16  and  C_17
REMARK   10  A    between atoms: C_16  and  C_18
REMARK                            x       y       z     vdW  Elec       q    Type
REMARK                         _______ _______ _______ _____ _____    ______ ____
ROOT
ATOM      1  C   LIG A   1      -8.334   5.551 133.439  0.00  0.00    -0.022 C 
ATOM      2  C   LIG A   1      -8.332   6.008 132.177  0.00  0.00    -0.004 C 
ENDROOT
BRANCH   2   3
ATOM      3  C   LIG A   1      -9.529   6.404 131.468  0.00  0.00    +0.005 C 
ATOM      4  C   LIG A   1     -10.752   6.271 132.000  0.00  0.00    +0.067 C 
BRANCH   4   5
ATOM      5  C   LIG A   1     -11.965   6.673 131.233  0.00  0.00    +0.237 C 
ATOM      6  O   LIG A   1     -13.007   7.010 131.765  0.00  0.00    -0.271 OA
ATOM      7  N   LIG A   1     -11.764   6.612 129.877  0.00  0.00    -0.312 N 
ATOM      8  H   LIG A   1     -10.856   6.366 129.509  0.00  0.00    +0.149 HD
BRANCH   7   9
ATOM      9  C   LIG A   1     -12.805   6.938 128.917  0.00  0.00    +0.107 C 
BRANCH   9  10
ATOM     10  C   LIG A   1     -12.543   8.254 128.168  0.00  0.00    +0.000 C 
ATOM     11  C   LIG A   1     -13.065   9.461 128.952  0.00  0.00    +0.009 C 
ATOM     12  C   LIG A   1     -11.043   8.412 127.905  0.00  0.00    +0.009 C 
ENDBRANCH   9  10
ENDBRANCH   7   9
ENDBRANCH   4   5
ENDBRANCH   2   3
BRANCH   1  13
ATOM     13  C   LIG A   1      -7.081   5.180 134.184  0.00  0.00    +0.062 C 
BRANCH  13  17
ATOM     14  C   LIG A   1      -7.172   6.333 138.359  0.00  0.00    +0.120 A 
ATOM     15  C   LIG A   1      -6.136   5.542 137.865  0.00  0.00    +0.046 A 
ATOM     16  C   LIG A   1      -6.107   5.176 136.515  0.00  0.00    +0.007 A 
ATOM     17  C   LIG A   1      -7.119   5.586 135.639  0.00  0.00    -0.043 A 
ATOM     18  C   LIG A   1      -8.153   6.389 136.137  0.00  0.00    +0.007 A 
ATOM     19  C   LIG A   1      -8.179   6.755 137.488  0.00  0.00    +0.046 A 
BRANCH  14  21
ATOM     20  C   LIG A   1      -6.381   7.751 140.086  0.00  0.00    +0.277 C 
ATOM     21  O   LIG A   1      -7.301   6.753 139.655  0.00  0.00    -0.495 OA
ENDBRANCH  14  21
ENDBRANCH  13  17
ENDBRANCH   1  13
TORSDOF 7
ENDMDL
MODEL 6
REMARK VINA RESULT:      -6.2      9.859     11.172
REMARK  Name = NuBBE_2094
REMARK  10 active torsions:
REMARK  status: ('A' for Active; 'I' for Inactive)
REMARK    1  A    between atoms: C_1  and  O_2
REMARK    2  A    between atoms: O_2  and  C_3
REMARK    3  A    between atoms: C_6  and  C_7
REMARK    4  A    between atoms: C_7  and  C_8
REMARK    5  A    between atoms: C_9  and  C_10
REMARK    6  A    between atoms: C_11  and  C_12
REMARK    7  A    between atoms: N_14  and  C_15
REMARK    8  A    between atoms: C_15  and  C_16
REMARK    9  A    between atoms: C_16  and  C_17
REMARK   10  A    between atoms: C_16  and  C_18
REMARK                            x       y       z     vdW  Elec       q    Type
REMARK                         _______ _______ _______ _____ _____    ______ ____
ROOT
ATOM      1  C   LIG A   1      -7.519  -2.540 130.599  0.00  0.00    -0.022 C 
ATOM      2  C   LIG A   1      -7.798  -3.419 129.624  0.00  0.00    -0.004 C 
ENDROOT
BRANCH   2   3
ATOM      3  C   LIG A   1      -7.868  -3.065 128.224  0.00  0.00    +0.005 C 
ATOM      4  C   LIG A   1      -8.805  -3.567 127.406  0.00  0.00    +0.067 C 
BRANCH   4   5
ATOM      5  C   LIG A   1      -8.836  -3.194 125.963  0.00  0.00    +0.237 C 
ATOM      6  O   LIG A   1      -9.860  -2.896 125.376  0.00  0.00    -0.271 OA
ATOM      7  N   LIG A   1      -7.590  -3.233 125.390  0.00  0.00    -0.312 N 
ATOM      8  H   LIG A   1      -6.779  -3.446 125.954  0.00  0.00    +0.149 HD
BRANCH   7   9
ATOM      9  C   LIG A   1      -7.364  -2.928 123.988  0.00  0.00    +0.107 C 
BRANCH   9  10
ATOM     10  C   LIG A   1      -5.985  -2.305 123.721  0.00  0.00    +0.000 C 
ATOM     11  C   LIG A   1      -5.559  -1.374 124.860  0.00  0.00    +0.009 C 
ATOM     12  C   LIG A   1      -4.944  -3.411 123.535  0.00  0.00    +0.009 C 
ENDBRANCH   9  10
ENDBRANCH   7   9
ENDBRANCH   4   5
ENDBRANCH   2   3
BRANCH   1  13
ATOM     13  C   LIG A   1      -7.406  -2.924 132.049  0.00  0.00    +0.062 C 
BRANCH  13  17
ATOM     14  C   LIG A   1      -3.467  -4.394 133.093  0.00  0.00    +0.120 A 
ATOM     15  C   LIG A   1      -3.637  -3.090 132.629  0.00  0.00    +0.046 A 
ATOM     16  C   LIG A   1      -4.911  -2.617 132.299  0.00  0.00    +0.007 A 
ATOM     17  C   LIG A   1      -6.035  -3.444 132.415  0.00  0.00    -0.043 A 
ATOM     18  C   LIG A   1      -5.861  -4.750 132.890  0.00  0.00    +0.007 A 
ATOM     19  C   LIG A   1      -4.586  -5.220 133.222  0.00  0.00    +0.046 A 
BRANCH  14  21
ATOM     20  C   LIG A   1      -1.896  -4.827 134.815  0.00  0.00    +0.277 C 
ATOM     21  O   LIG A   1      -2.273  -4.961 133.448  0.00  0.00    -0.495 OA
ENDBRANCH  14  21
ENDBRANCH  13  17
ENDBRANCH   1  13
TORSDOF 7
ENDMDL
MODEL 7
REMARK VINA RESULT:      -6.1      6.507      7.513
REMARK  Name = NuBBE_2094
REMARK  10 active torsions:
REMARK  status: ('A' for Active; 'I' for Inactive)
REMARK    1  A    between atoms: C_1  and  O_2
REMARK    2  A    between atoms: O_2  and  C_3
REMARK    3  A    between atoms: C_6  and  C_7
REMARK    4  A    between atoms: C_7  and  C_8
REMARK    5  A    between atoms: C_9  and  C_10
REMARK    6  A    between atoms: C_11  and  C_12
REMARK    7  A    between atoms: N_14  and  C_15
REMARK    8  A    between atoms: C_15  and  C_16
REMARK    9  A    between atoms: C_16  and  C_17
REMARK   10  A    between atoms: C_16  and  C_18
REMARK                            x       y       z     vdW  Elec       q    Type
REMARK                         _______ _______ _______ _____ _____    ______ ____
ROOT
ATOM      1  C   LIG A   1      -7.561  -0.870 131.076  0.00  0.00    -0.022 C 
ATOM      2  C   LIG A   1      -8.624  -0.242 131.602  0.00  0.00    -0.004 C 
ENDROOT
BRANCH   2   3
ATOM      3  C   LIG A   1      -8.643   1.168 131.922  0.00  0.00    +0.005 C 
ATOM      4  C   LIG A   1      -9.758   1.907 131.832  0.00  0.00    +0.067 C 
BRANCH   4   5
ATOM      5  C   LIG A   1      -9.736   3.363 132.151  0.00  0.00    +0.237 C 
ATOM      6  O   LIG A   1      -9.196   3.817 133.143  0.00  0.00    -0.271 OA
ATOM      7  N   LIG A   1     -10.395   4.110 131.208  0.00  0.00    -0.312 N 
ATOM      8  H   LIG A   1     -10.781   3.665 130.387  0.00  0.00    +0.149 HD
BRANCH   7   9
ATOM      9  C   LIG A   1     -10.527   5.553 131.307  0.00  0.00    +0.107 C 
BRANCH   9  10
ATOM     10  C   LIG A   1      -9.595   6.311 130.348  0.00  0.00    +0.000 C 
ATOM     11  C   LIG A   1     -10.297   7.519 129.720  0.00  0.00    +0.009 C 
ATOM     12  C   LIG A   1      -8.340   6.767 131.096  0.00  0.00    +0.009 C 
ENDBRANCH   9  10
ENDBRANCH   7   9
ENDBRANCH   4   5
ENDBRANCH   2   3
BRANCH   1  13
ATOM     13  C   LIG A   1      -7.563  -2.329 130.708  0.00  0.00    +0.062 C 
BRANCH  13  17
ATOM     14  C   LIG A   1      -8.711  -3.009 126.587  0.00  0.00    +0.120 A 
ATOM     15  C   LIG A   1      -7.983  -1.875 126.941  0.00  0.00    +0.046 A 
ATOM     16  C   LIG A   1      -7.609  -1.661 128.272  0.00  0.00    +0.007 A 
ATOM     17  C   LIG A   1      -7.967  -2.573 129.273  0.00  0.00    -0.043 A 
ATOM     18  C   LIG A   1      -8.691  -3.716 128.910  0.00  0.00    +0.007 A 
ATOM     19  C   LIG A   1      -9.063  -3.928 127.578  0.00  0.00    +0.046 A 
BRANCH  14  21
ATOM     20  C   LIG A   1      -8.101  -3.568 124.366  0.00  0.00    +0.277 C 
ATOM     21  O   LIG A   1      -9.128  -3.321 125.321  0.00  0.00    -0.495 OA
ENDBRANCH  14  21
ENDBRANCH  13  17
ENDBRANCH   1  13
TORSDOF 7
ENDMDL
MODEL 8
REMARK VINA RESULT:      -6.0      4.718      8.801
REMARK  Name = NuBBE_2094
REMARK  10 active torsions:
REMARK  status: ('A' for Active; 'I' for Inactive)
REMARK    1  A    between atoms: C_1  and  O_2
REMARK    2  A    between atoms: O_2  and  C_3
REMARK    3  A    between atoms: C_6  and  C_7
REMARK    4  A    between atoms: C_7  and  C_8
REMARK    5  A    between atoms: C_9  and  C_10
REMARK    6  A    between atoms: C_11  and  C_12
REMARK    7  A    between atoms: N_14  and  C_15
REMARK    8  A    between atoms: C_15  and  C_16
REMARK    9  A    between atoms: C_16  and  C_17
REMARK   10  A    between atoms: C_16  and  C_18
REMARK                            x       y       z     vdW  Elec       q    Type
REMARK                         _______ _______ _______ _____ _____    ______ ____
ROOT
ATOM      1  C   LIG A   1      -9.116   4.519 131.731  0.00  0.00    -0.022 C 
ATOM      2  C   LIG A   1      -9.797   3.565 131.078  0.00  0.00    -0.004 C 
ENDROOT
BRANCH   2   3
ATOM      3  C   LIG A   1      -9.181   2.382 130.521  0.00  0.00    +0.005 C 
ATOM      4  C   LIG A   1      -8.827   2.301 129.230  0.00  0.00    +0.067 C 
BRANCH   4   5
ATOM      5  C   LIG A   1      -8.211   1.057 128.685  0.00  0.00    +0.237 C 
ATOM      6  O   LIG A   1      -8.177   0.799 127.496  0.00  0.00    -0.271 OA
ATOM      7  N   LIG A   1      -7.701   0.255 129.674  0.00  0.00    -0.312 N 
ATOM      8  H   LIG A   1      -7.727   0.558 130.638  0.00  0.00    +0.149 HD
BRANCH   7   9
ATOM      9  C   LIG A   1      -7.067  -1.022 129.396  0.00  0.00    +0.107 C 
BRANCH   9  10
ATOM     10  C   LIG A   1      -7.961  -2.225 129.734  0.00  0.00    +0.000 C 
ATOM     11  C   LIG A   1      -8.271  -3.062 128.490  0.00  0.00    +0.009 C 
ATOM     12  C   LIG A   1      -7.281  -3.096 130.793  0.00  0.00    +0.009 C 
ENDBRANCH   9  10
ENDBRANCH   7   9
ENDBRANCH   4   5
ENDBRANCH   2   3
BRANCH   1  13
ATOM     13  C   LIG A   1      -9.770   5.727 132.345  0.00  0.00    +0.062 C 
BRANCH  13  17
ATOM     14  C   LIG A   1     -12.038   8.044 129.472  0.00  0.00    +0.120 A 
ATOM     15  C   LIG A   1     -10.670   7.841 129.296  0.00  0.00    +0.046 A 
ATOM     16  C   LIG A   1      -9.942   7.088 130.222  0.00  0.00    +0.007 A 
ATOM     17  C   LIG A   1     -10.568   6.534 131.347  0.00  0.00    -0.043 A 
ATOM     18  C   LIG A   1     -11.944   6.733 131.514  0.00  0.00    +0.007 A 
ATOM     19  C   LIG A   1     -12.670   7.486 130.585  0.00  0.00    +0.046 A 
BRANCH  14  21
ATOM     20  C   LIG A   1     -13.291  10.025 129.112  0.00  0.00    +0.277 C 
ATOM     21  O   LIG A   1     -12.849   8.759 128.631  0.00  0.00    -0.495 OA
ENDBRANCH  14  21
ENDBRANCH  13  17
ENDBRANCH   1  13
TORSDOF 7
ENDMDL
MODEL 9
REMARK VINA RESULT:      -6.0      9.261     11.810
REMARK  Name = NuBBE_2094
REMARK  10 active torsions:
REMARK  status: ('A' for Active; 'I' for Inactive)
REMARK    1  A    between atoms: C_1  and  O_2
REMARK    2  A    between atoms: O_2  and  C_3
REMARK    3  A    between atoms: C_6  and  C_7
REMARK    4  A    between atoms: C_7  and  C_8
REMARK    5  A    between atoms: C_9  and  C_10
REMARK    6  A    between atoms: C_11  and  C_12
REMARK    7  A    between atoms: N_14  and  C_15
REMARK    8  A    between atoms: C_15  and  C_16
REMARK    9  A    between atoms: C_16  and  C_17
REMARK   10  A    between atoms: C_16  and  C_18
REMARK                            x       y       z     vdW  Elec       q    Type
REMARK                         _______ _______ _______ _____ _____    ______ ____
ROOT
ATOM      1  C   LIG A   1      -8.193  -3.220 126.663  0.00  0.00    -0.022 C 
ATOM      2  C   LIG A   1      -8.908  -3.706 127.689  0.00  0.00    -0.004 C 
ENDROOT
BRANCH   2   3
ATOM      3  C   LIG A   1      -8.519  -3.565 129.074  0.00  0.00    +0.005 C 
ATOM      4  C   LIG A   1      -7.234  -3.549 129.458  0.00  0.00    +0.067 C 
BRANCH   4   5
ATOM      5  C   LIG A   1      -6.870  -3.420 130.898  0.00  0.00    +0.237 C 
ATOM      6  O   LIG A   1      -7.565  -2.836 131.709  0.00  0.00    -0.271 OA
ATOM      7  N   LIG A   1      -5.674  -4.026 131.186  0.00  0.00    -0.312 N 
ATOM      8  H   LIG A   1      -5.174  -4.531 130.466  0.00  0.00    +0.149 HD
BRANCH   7   9
ATOM      9  C   LIG A   1      -5.096  -4.021 132.518  0.00  0.00    +0.107 C 
BRANCH   9  10
ATOM     10  C   LIG A   1      -5.406  -5.298 133.315  0.00  0.00    +0.000 C 
ATOM     11  C   LIG A   1      -4.143  -5.883 133.954  0.00  0.00    +0.009 C 
ATOM     12  C   LIG A   1      -6.446  -4.995 134.396  0.00  0.00    +0.009 C 
ENDBRANCH   9  10
ENDBRANCH   7   9
ENDBRANCH   4   5
ENDBRANCH   2   3
BRANCH   1  13
ATOM     13  C   LIG A   1      -8.625  -3.335 125.227  0.00  0.00    +0.062 C 
BRANCH  13  17
ATOM     14  C   LIG A   1      -9.535   0.489 123.406  0.00  0.00    +0.120 A 
ATOM     15  C   LIG A   1      -9.477  -0.668 122.632  0.00  0.00    +0.046 A 
ATOM     16  C   LIG A   1      -9.188  -1.902 123.223  0.00  0.00    +0.007 A 
ATOM     17  C   LIG A   1      -8.942  -1.997 124.599  0.00  0.00    -0.043 A 
ATOM     18  C   LIG A   1      -9.011  -0.833 125.375  0.00  0.00    +0.007 A 
ATOM     19  C   LIG A   1      -9.301   0.400 124.780  0.00  0.00    +0.046 A 
BRANCH  14  21
ATOM     20  C   LIG A   1      -8.684   2.575 122.665  0.00  0.00    +0.277 C 
ATOM     21  O   LIG A   1      -9.810   1.746 122.937  0.00  0.00    -0.495 OA
ENDBRANCH  14  21
ENDBRANCH  13  17
ENDBRANCH   1  13
TORSDOF 7
ENDMDL
