MODEL 1
REMARK VINA RESULT:      -7.8      0.000      0.000
REMARK  Name = NuBBE_1675
REMARK  4 active torsions:
REMARK  status: ('A' for Active; 'I' for Inactive)
REMARK    1  A    between atoms: C_1  and  N_2
REMARK    2  A    between atoms: C_17  and  C_25
REMARK    3  A    between atoms: C_22  and  C_23
REMARK    4  A    between atoms: C_25  and  O_26
REMARK                            x       y       z     vdW  Elec       q    Type
REMARK                         _______ _______ _______ _____ _____    ______ ____
ROOT
ATOM      1  C   LIG A   1      -7.429   3.601 129.240  0.00  0.00    +0.149 C 
ATOM      2  N   LIG A   1      -8.055   4.205 130.391  0.00  0.00    -0.345 N 
ATOM      3  C   LIG A   1      -9.055   5.121 130.380  0.00  0.00    +0.040 A 
ATOM      4  C   LIG A   1      -9.869   5.741 129.305  0.00  0.00    +0.105 C 
ATOM      5  N   LIG A   1      -9.704   7.383 129.469  0.00  0.00    -0.286 NA
ATOM      6  C   LIG A   1     -10.769   7.230 130.346  0.00  0.00    +0.068 C 
ATOM      7  C   LIG A   1     -10.417   6.514 131.786  0.00  0.00    +0.056 C 
ATOM      8  C   LIG A   1      -9.358   5.482 131.659  0.00  0.00    -0.016 A 
ATOM      9  C   LIG A   1      -8.534   4.743 132.529  0.00  0.00    +0.003 A 
ATOM     10  C   LIG A   1      -7.721   3.935 131.714  0.00  0.00    +0.049 A 
ATOM     11  C   LIG A   1      -6.774   3.054 132.262  0.00  0.00    +0.026 A 
ATOM     12  C   LIG A   1      -6.651   3.002 133.655  0.00  0.00    +0.002 A 
ATOM     13  C   LIG A   1      -7.444   3.798 134.477  0.00  0.00    +0.001 A 
ATOM     14  C   LIG A   1      -8.388   4.672 133.927  0.00  0.00    +0.010 A 
ATOM     15  C   LIG A   1     -11.745   6.743 128.685  0.00  0.00    +0.039 C 
ATOM     16  C   LIG A   1     -12.835   6.523 129.526  0.00  0.00    +0.024 C 
ATOM     17  C   LIG A   1     -11.629   5.169 129.775  0.00  0.00    +0.033 C 
ATOM     18  C   LIG A   1     -12.428   8.292 129.374  0.00  0.00    -0.056 C 
ATOM     19  C   LIG A   1     -13.335   9.253 129.634  0.00  0.00    -0.030 C 
ATOM     20  C   LIG A   1     -13.093  10.724 129.562  0.00  0.00    +0.035 C 
ATOM     21  C   LIG A   1     -10.638   8.594 128.938  0.00  0.00    +0.116 C 
ENDROOT
BRANCH  15  22
ATOM     22  C   LIG A   1     -12.131   7.337 127.190  0.00  0.00    +0.161 C 
BRANCH  22  23
ATOM     23  O   LIG A   1     -11.476   6.519 126.207  0.00  0.00    -0.395 OA
ATOM     24  H   LIG A   1     -11.166   7.118 125.507  0.00  0.00    +0.209 HD
ENDBRANCH  22  23
ENDBRANCH  15  22
TORSDOF 2
ENDMDL
MODEL 2
REMARK VINA RESULT:      -7.4      8.004     10.714
REMARK  Name = NuBBE_1675
REMARK  4 active torsions:
REMARK  status: ('A' for Active; 'I' for Inactive)
REMARK    1  A    between atoms: C_1  and  N_2
REMARK    2  A    between atoms: C_17  and  C_25
REMARK    3  A    between atoms: C_22  and  C_23
REMARK    4  A    between atoms: C_25  and  O_26
REMARK                            x       y       z     vdW  Elec       q    Type
REMARK                         _______ _______ _______ _____ _____    ______ ____
ROOT
ATOM      1  C   LIG A   1      -5.301  -0.597 125.752  0.00  0.00    +0.149 C 
ATOM      2  N   LIG A   1      -6.417  -1.420 126.151  0.00  0.00    -0.345 N 
ATOM      3  C   LIG A   1      -6.751  -1.773 127.417  0.00  0.00    +0.040 A 
ATOM      4  C   LIG A   1      -6.209  -1.429 128.756  0.00  0.00    +0.105 C 
ATOM      5  N   LIG A   1      -5.849  -2.863 129.508  0.00  0.00    -0.286 NA
ATOM      6  C   LIG A   1      -7.179  -2.793 129.900  0.00  0.00    +0.068 C 
ATOM      7  C   LIG A   1      -8.292  -3.076 128.720  0.00  0.00    +0.056 C 
ATOM      8  C   LIG A   1      -7.845  -2.585 127.393  0.00  0.00    -0.016 A 
ATOM      9  C   LIG A   1      -8.246  -2.737 126.052  0.00  0.00    +0.003 A 
ATOM     10  C   LIG A   1      -7.340  -1.989 125.279  0.00  0.00    +0.049 A 
ATOM     11  C   LIG A   1      -7.453  -1.913 123.881  0.00  0.00    +0.026 A 
ATOM     12  C   LIG A   1      -8.497  -2.611 123.266  0.00  0.00    +0.002 A 
ATOM     13  C   LIG A   1      -9.400  -3.361 124.014  0.00  0.00    +0.001 A 
ATOM     14  C   LIG A   1      -9.286  -3.432 125.407  0.00  0.00    +0.010 A 
ATOM     15  C   LIG A   1      -6.534  -1.227 130.938  0.00  0.00    +0.039 C 
ATOM     16  C   LIG A   1      -7.865  -1.079 131.324  0.00  0.00    +0.024 C 
ATOM     17  C   LIG A   1      -7.710  -0.574 129.571  0.00  0.00    +0.033 C 
ATOM     18  C   LIG A   1      -7.089  -2.542 132.080  0.00  0.00    -0.056 C 
ATOM     19  C   LIG A   1      -7.573  -3.099 133.206  0.00  0.00    -0.030 C 
ATOM     20  C   LIG A   1      -7.024  -4.309 133.888  0.00  0.00    +0.035 C 
ATOM     21  C   LIG A   1      -5.663  -3.212 131.077  0.00  0.00    +0.116 C 
ENDROOT
BRANCH  15  22
ATOM     22  C   LIG A   1      -5.426  -0.809 132.094  0.00  0.00    +0.161 C 
BRANCH  22  23
ATOM     23  O   LIG A   1      -4.479   0.089 131.493  0.00  0.00    -0.395 OA
ATOM     24  H   LIG A   1      -3.745  -0.457 131.165  0.00  0.00    +0.209 HD
ENDBRANCH  22  23
ENDBRANCH  15  22
TORSDOF 2
ENDMDL
MODEL 3
REMARK VINA RESULT:      -7.3      5.836      8.614
REMARK  Name = NuBBE_1675
REMARK  4 active torsions:
REMARK  status: ('A' for Active; 'I' for Inactive)
REMARK    1  A    between atoms: C_1  and  N_2
REMARK    2  A    between atoms: C_17  and  C_25
REMARK    3  A    between atoms: C_22  and  C_23
REMARK    4  A    between atoms: C_25  and  O_26
REMARK                            x       y       z     vdW  Elec       q    Type
REMARK                         _______ _______ _______ _____ _____    ______ ____
ROOT
ATOM      1  C   LIG A   1      -4.526   1.808 133.095  0.00  0.00    +0.149 C 
ATOM      2  N   LIG A   1      -5.942   1.690 132.846  0.00  0.00    -0.345 N 
ATOM      3  C   LIG A   1      -6.554   0.744 132.091  0.00  0.00    +0.040 A 
ATOM      4  C   LIG A   1      -6.076  -0.459 131.365  0.00  0.00    +0.105 C 
ATOM      5  N   LIG A   1      -6.573  -0.295 129.790  0.00  0.00    -0.286 NA
ATOM      6  C   LIG A   1      -7.726  -0.901 130.272  0.00  0.00    +0.068 C 
ATOM      7  C   LIG A   1      -8.683   0.034 131.232  0.00  0.00    +0.056 C 
ATOM      8  C   LIG A   1      -7.896   0.980 132.061  0.00  0.00    -0.016 A 
ATOM      9  C   LIG A   1      -8.158   2.113 132.856  0.00  0.00    +0.003 A 
ATOM     10  C   LIG A   1      -6.915   2.545 133.351  0.00  0.00    +0.049 A 
ATOM     11  C   LIG A   1      -6.809   3.663 134.197  0.00  0.00    +0.026 A 
ATOM     12  C   LIG A   1      -7.980   4.347 134.535  0.00  0.00    +0.002 A 
ATOM     13  C   LIG A   1      -9.219   3.935 134.050  0.00  0.00    +0.001 A 
ATOM     14  C   LIG A   1      -9.321   2.822 133.210  0.00  0.00    +0.010 A 
ATOM     15  C   LIG A   1      -6.512  -2.456 130.510  0.00  0.00    +0.039 C 
ATOM     16  C   LIG A   1      -7.625  -3.097 131.050  0.00  0.00    +0.024 C 
ATOM     17  C   LIG A   1      -7.033  -1.852 132.254  0.00  0.00    +0.033 C 
ATOM     18  C   LIG A   1      -7.781  -2.847 129.253  0.00  0.00    -0.056 C 
ATOM     19  C   LIG A   1      -8.608  -3.597 128.501  0.00  0.00    -0.030 C 
ATOM     20  C   LIG A   1      -8.823  -3.454 127.031  0.00  0.00    +0.035 C 
ATOM     21  C   LIG A   1      -6.774  -1.404 128.628  0.00  0.00    +0.116 C 
ENDROOT
BRANCH  15  22
ATOM     22  C   LIG A   1      -5.490  -3.441 129.660  0.00  0.00    +0.161 C 
BRANCH  22  23
ATOM     23  O   LIG A   1      -5.035  -4.476 130.547  0.00  0.00    -0.395 OA
ATOM     24  H   LIG A   1      -5.783  -4.692 131.130  0.00  0.00    +0.209 HD
ENDBRANCH  22  23
ENDBRANCH  15  22
TORSDOF 2
ENDMDL
MODEL 4
REMARK VINA RESULT:      -7.2      5.688      9.126
REMARK  Name = NuBBE_1675
REMARK  4 active torsions:
REMARK  status: ('A' for Active; 'I' for Inactive)
REMARK    1  A    between atoms: C_1  and  N_2
REMARK    2  A    between atoms: C_17  and  C_25
REMARK    3  A    between atoms: C_22  and  C_23
REMARK    4  A    between atoms: C_25  and  O_26
REMARK                            x       y       z     vdW  Elec       q    Type
REMARK                         _______ _______ _______ _____ _____    ______ ____
ROOT
ATOM      1  C   LIG A   1      -8.869   2.433 123.732  0.00  0.00    +0.149 C 
ATOM      2  N   LIG A   1      -7.552   3.022 123.705  0.00  0.00    -0.345 N 
ATOM      3  C   LIG A   1      -6.723   3.200 124.764  0.00  0.00    +0.040 A 
ATOM      4  C   LIG A   1      -6.797   2.831 126.199  0.00  0.00    +0.105 C 
ATOM      5  N   LIG A   1      -6.587   4.232 127.063  0.00  0.00    -0.286 NA
ATOM      6  C   LIG A   1      -5.243   3.909 126.930  0.00  0.00    +0.068 C 
ATOM      7  C   LIG A   1      -4.601   4.110 125.427  0.00  0.00    +0.056 C 
ATOM      8  C   LIG A   1      -5.582   3.819 124.352  0.00  0.00    -0.016 A 
ATOM      9  C   LIG A   1      -5.673   4.023 122.961  0.00  0.00    +0.003 A 
ATOM     10  C   LIG A   1      -6.919   3.507 122.566  0.00  0.00    +0.049 A 
ATOM     11  C   LIG A   1      -7.337   3.540 121.224  0.00  0.00    +0.026 A 
ATOM     12  C   LIG A   1      -6.476   4.108 120.280  0.00  0.00    +0.002 A 
ATOM     13  C   LIG A   1      -5.240   4.628 120.655  0.00  0.00    +0.001 A 
ATOM     14  C   LIG A   1      -4.827   4.592 121.991  0.00  0.00    +0.010 A 
ATOM     15  C   LIG A   1      -5.748   2.384 128.099  0.00  0.00    +0.039 C 
ATOM     16  C   LIG A   1      -4.421   1.984 127.958  0.00  0.00    +0.024 C 
ATOM     17  C   LIG A   1      -5.291   1.672 126.378  0.00  0.00    +0.033 C 
ATOM     18  C   LIG A   1      -4.583   3.482 128.981  0.00  0.00    -0.056 C 
ATOM     19  C   LIG A   1      -3.629   3.849 129.858  0.00  0.00    -0.030 C 
ATOM     20  C   LIG A   1      -3.659   5.066 130.722  0.00  0.00    +0.035 C 
ATOM     21  C   LIG A   1      -6.124   4.465 128.597  0.00  0.00    +0.116 C 
ENDROOT
BRANCH  15  22
ATOM     22  C   LIG A   1      -6.419   2.052 129.574  0.00  0.00    +0.161 C 
BRANCH  22  23
ATOM     23  O   LIG A   1      -7.635   1.319 129.351  0.00  0.00    -0.395 OA
ATOM     24  H   LIG A   1      -7.818   1.364 128.397  0.00  0.00    +0.209 HD
ENDBRANCH  22  23
ENDBRANCH  15  22
TORSDOF 2
ENDMDL
MODEL 5
REMARK VINA RESULT:      -7.2      3.436      4.394
REMARK  Name = NuBBE_1675
REMARK  4 active torsions:
REMARK  status: ('A' for Active; 'I' for Inactive)
REMARK    1  A    between atoms: C_1  and  N_2
REMARK    2  A    between atoms: C_17  and  C_25
REMARK    3  A    between atoms: C_22  and  C_23
REMARK    4  A    between atoms: C_25  and  O_26
REMARK                            x       y       z     vdW  Elec       q    Type
REMARK                         _______ _______ _______ _____ _____    ______ ____
ROOT
ATOM      1  C   LIG A   1      -4.436   3.129 129.780  0.00  0.00    +0.149 C 
ATOM      2  N   LIG A   1      -4.711   4.415 130.375  0.00  0.00    -0.345 N 
ATOM      3  C   LIG A   1      -5.934   4.939 130.639  0.00  0.00    +0.040 A 
ATOM      4  C   LIG A   1      -7.321   4.427 130.508  0.00  0.00    +0.105 C 
ATOM      5  N   LIG A   1      -8.148   5.520 129.574  0.00  0.00    -0.286 NA
ATOM      6  C   LIG A   1      -8.368   6.139 130.798  0.00  0.00    +0.068 C 
ATOM      7  C   LIG A   1      -7.065   6.890 131.468  0.00  0.00    +0.056 C 
ATOM      8  C   LIG A   1      -5.793   6.186 131.169  0.00  0.00    -0.016 A 
ATOM      9  C   LIG A   1      -4.416   6.462 131.274  0.00  0.00    +0.003 A 
ATOM     10  C   LIG A   1      -3.745   5.331 130.776  0.00  0.00    +0.049 A 
ATOM     11  C   LIG A   1      -2.342   5.264 130.741  0.00  0.00    +0.026 A 
ATOM     12  C   LIG A   1      -1.618   6.363 131.214  0.00  0.00    +0.002 A 
ATOM     13  C   LIG A   1      -2.265   7.493 131.705  0.00  0.00    +0.001 A 
ATOM     14  C   LIG A   1      -3.662   7.556 131.741  0.00  0.00    +0.010 A 
ATOM     15  C   LIG A   1      -9.439   4.504 131.152  0.00  0.00    +0.039 C 
ATOM     16  C   LIG A   1      -9.651   5.055 132.415  0.00  0.00    +0.024 C 
ATOM     17  C   LIG A   1      -7.919   4.468 132.321  0.00  0.00    +0.033 C 
ATOM     18  C   LIG A   1     -10.535   5.967 131.110  0.00  0.00    -0.056 C 
ATOM     19  C   LIG A   1     -11.605   6.737 131.383  0.00  0.00    -0.030 C 
ATOM     20  C   LIG A   1     -12.380   7.540 130.391  0.00  0.00    +0.035 C 
ATOM     21  C   LIG A   1      -9.737   5.795 129.431  0.00  0.00    +0.116 C 
ENDROOT
BRANCH  15  22
ATOM     22  C   LIG A   1     -10.715   3.638 130.551  0.00  0.00    +0.161 C 
BRANCH  22  23
ATOM     23  O   LIG A   1     -10.893   2.480 131.383  0.00  0.00    -0.395 OA
ATOM     24  H   LIG A   1     -10.877   1.707 130.794  0.00  0.00    +0.209 HD
ENDBRANCH  22  23
ENDBRANCH  15  22
TORSDOF 2
ENDMDL
MODEL 6
REMARK VINA RESULT:      -7.1      7.402     10.368
REMARK  Name = NuBBE_1675
REMARK  4 active torsions:
REMARK  status: ('A' for Active; 'I' for Inactive)
REMARK    1  A    between atoms: C_1  and  N_2
REMARK    2  A    between atoms: C_17  and  C_25
REMARK    3  A    between atoms: C_22  and  C_23
REMARK    4  A    between atoms: C_25  and  O_26
REMARK                            x       y       z     vdW  Elec       q    Type
REMARK                         _______ _______ _______ _____ _____    ______ ____
ROOT
ATOM      1  C   LIG A   1      -8.872   0.265 125.840  0.00  0.00    +0.149 C 
ATOM      2  N   LIG A   1      -7.793  -0.678 126.009  0.00  0.00    -0.345 N 
ATOM      3  C   LIG A   1      -7.276  -1.113 127.185  0.00  0.00    +0.040 A 
ATOM      4  C   LIG A   1      -7.625  -0.882 128.609  0.00  0.00    +0.105 C 
ATOM      5  N   LIG A   1      -6.252  -0.319 129.351  0.00  0.00    -0.286 NA
ATOM      6  C   LIG A   1      -5.993  -1.674 129.515  0.00  0.00    +0.068 C 
ATOM      7  C   LIG A   1      -5.564  -2.493 128.153  0.00  0.00    +0.056 C 
ATOM      8  C   LIG A   1      -6.246  -1.971 126.942  0.00  0.00    -0.016 A 
ATOM      9  C   LIG A   1      -6.115  -2.113 125.547  0.00  0.00    +0.003 A 
ATOM     10  C   LIG A   1      -7.104  -1.296 124.971  0.00  0.00    +0.049 A 
ATOM     11  C   LIG A   1      -7.263  -1.204 123.578  0.00  0.00    +0.026 A 
ATOM     12  C   LIG A   1      -6.401  -1.949 122.766  0.00  0.00    +0.002 A 
ATOM     13  C   LIG A   1      -5.413  -2.759 123.319  0.00  0.00    +0.001 A 
ATOM     14  C   LIG A   1      -5.259  -2.849 124.707  0.00  0.00    +0.010 A 
ATOM     15  C   LIG A   1      -7.576  -1.580 130.711  0.00  0.00    +0.039 C 
ATOM     16  C   LIG A   1      -7.394  -2.952 130.871  0.00  0.00    +0.024 C 
ATOM     17  C   LIG A   1      -8.057  -2.647 129.192  0.00  0.00    +0.033 C 
ATOM     18  C   LIG A   1      -6.085  -1.985 131.687  0.00  0.00    -0.056 C 
ATOM     19  C   LIG A   1      -5.347  -2.495 132.691  0.00  0.00    -0.030 C 
ATOM     20  C   LIG A   1      -4.239  -1.793 133.405  0.00  0.00    +0.035 C 
ATOM     21  C   LIG A   1      -5.830  -0.304 130.914  0.00  0.00    +0.116 C 
ENDROOT
BRANCH  15  22
ATOM     22  C   LIG A   1      -8.137  -0.793 132.054  0.00  0.00    +0.161 C 
BRANCH  22  23
ATOM     23  O   LIG A   1      -9.355  -0.119 131.694  0.00  0.00    -0.395 OA
ATOM     24  H   LIG A   1      -9.472   0.606 132.332  0.00  0.00    +0.209 HD
ENDBRANCH  22  23
ENDBRANCH  15  22
TORSDOF 2
ENDMDL
MODEL 7
REMARK VINA RESULT:      -7.1      5.739      7.181
REMARK  Name = NuBBE_1675
REMARK  4 active torsions:
REMARK  status: ('A' for Active; 'I' for Inactive)
REMARK    1  A    between atoms: C_1  and  N_2
REMARK    2  A    between atoms: C_17  and  C_25
REMARK    3  A    between atoms: C_22  and  C_23
REMARK    4  A    between atoms: C_25  and  O_26
REMARK                            x       y       z     vdW  Elec       q    Type
REMARK                         _______ _______ _______ _____ _____    ______ ____
ROOT
ATOM      1  C   LIG A   1      -2.613   7.268 128.172  0.00  0.00    +0.149 C 
ATOM      2  N   LIG A   1      -2.947   6.071 128.904  0.00  0.00    -0.345 N 
ATOM      3  C   LIG A   1      -3.763   5.070 128.488  0.00  0.00    +0.040 A 
ATOM      4  C   LIG A   1      -4.495   4.799 127.226  0.00  0.00    +0.105 C 
ATOM      5  N   LIG A   1      -6.090   4.594 127.634  0.00  0.00    -0.286 NA
ATOM      6  C   LIG A   1      -5.694   3.276 127.824  0.00  0.00    +0.068 C 
ATOM      7  C   LIG A   1      -4.763   2.989 129.151  0.00  0.00    +0.056 C 
ATOM      8  C   LIG A   1      -3.863   4.126 129.466  0.00  0.00    -0.016 A 
ATOM      9  C   LIG A   1      -3.052   4.527 130.545  0.00  0.00    +0.003 A 
ATOM     10  C   LIG A   1      -2.473   5.753 130.172  0.00  0.00    +0.049 A 
ATOM     11  C   LIG A   1      -1.591   6.439 131.023  0.00  0.00    +0.026 A 
ATOM     12  C   LIG A   1      -1.301   5.871 132.268  0.00  0.00    +0.002 A 
ATOM     13  C   LIG A   1      -1.868   4.660 132.655  0.00  0.00    +0.001 A 
ATOM     14  C   LIG A   1      -2.745   3.979 131.804  0.00  0.00    +0.010 A 
ATOM     15  C   LIG A   1      -5.432   3.332 125.855  0.00  0.00    +0.039 C 
ATOM     16  C   LIG A   1      -4.975   2.023 125.993  0.00  0.00    +0.024 C 
ATOM     17  C   LIG A   1      -3.704   3.154 126.667  0.00  0.00    +0.033 C 
ATOM     18  C   LIG A   1      -6.770   2.158 126.269  0.00  0.00    -0.056 C 
ATOM     19  C   LIG A   1      -7.590   1.098 126.138  0.00  0.00    -0.030 C 
ATOM     20  C   LIG A   1      -9.066   1.102 126.365  0.00  0.00    +0.035 C 
ATOM     21  C   LIG A   1      -7.294   3.857 126.842  0.00  0.00    +0.116 C 
ENDROOT
BRANCH  15  22
ATOM     22  C   LIG A   1      -6.250   3.637 124.449  0.00  0.00    +0.161 C 
BRANCH  22  23
ATOM     23  O   LIG A   1      -5.890   4.956 124.006  0.00  0.00    -0.395 OA
ATOM     24  H   LIG A   1      -4.937   4.936 123.814  0.00  0.00    +0.209 HD
ENDBRANCH  22  23
ENDBRANCH  15  22
TORSDOF 2
ENDMDL
MODEL 8
REMARK VINA RESULT:      -7.1      6.501      9.858
REMARK  Name = NuBBE_1675
REMARK  4 active torsions:
REMARK  status: ('A' for Active; 'I' for Inactive)
REMARK    1  A    between atoms: C_1  and  N_2
REMARK    2  A    between atoms: C_17  and  C_25
REMARK    3  A    between atoms: C_22  and  C_23
REMARK    4  A    between atoms: C_25  and  O_26
REMARK                            x       y       z     vdW  Elec       q    Type
REMARK                         _______ _______ _______ _____ _____    ______ ____
ROOT
ATOM      1  C   LIG A   1      -4.305   4.590 121.595  0.00  0.00    +0.149 C 
ATOM      2  N   LIG A   1      -5.680   4.201 121.794  0.00  0.00    -0.345 N 
ATOM      3  C   LIG A   1      -6.239   3.770 122.951  0.00  0.00    +0.040 A 
ATOM      4  C   LIG A   1      -5.738   3.617 124.340  0.00  0.00    +0.105 C 
ATOM      5  N   LIG A   1      -6.013   2.039 124.775  0.00  0.00    -0.286 NA
ATOM      6  C   LIG A   1      -7.251   2.540 125.154  0.00  0.00    +0.068 C 
ATOM      7  C   LIG A   1      -8.272   2.938 123.925  0.00  0.00    +0.056 C 
ATOM      8  C   LIG A   1      -7.550   3.463 122.739  0.00  0.00    -0.016 A 
ATOM      9  C   LIG A   1      -7.850   3.736 121.391  0.00  0.00    +0.003 A 
ATOM     10  C   LIG A   1      -6.661   4.209 120.808  0.00  0.00    +0.049 A 
ATOM     11  C   LIG A   1      -6.604   4.587 119.456  0.00  0.00    +0.026 A 
ATOM     12  C   LIG A   1      -7.770   4.477 118.692  0.00  0.00    +0.002 A 
ATOM     13  C   LIG A   1      -8.955   4.005 119.251  0.00  0.00    +0.001 A 
ATOM     14  C   LIG A   1      -9.008   3.631 120.598  0.00  0.00    +0.010 A 
ATOM     15  C   LIG A   1      -6.169   3.507 126.510  0.00  0.00    +0.039 C 
ATOM     16  C   LIG A   1      -7.378   4.080 126.900  0.00  0.00    +0.024 C 
ATOM     17  C   LIG A   1      -6.881   4.810 125.296  0.00  0.00    +0.033 C 
ATOM     18  C   LIG A   1      -7.281   2.316 127.339  0.00  0.00    -0.056 C 
ATOM     19  C   LIG A   1      -8.042   1.784 128.314  0.00  0.00    -0.030 C 
ATOM     20  C   LIG A   1      -8.052   0.351 128.730  0.00  0.00    +0.035 C 
ATOM     21  C   LIG A   1      -6.120   1.353 126.237  0.00  0.00    +0.116 C 
ENDROOT
BRANCH  15  22
ATOM     22  C   LIG A   1      -5.101   3.238 127.744  0.00  0.00    +0.161 C 
BRANCH  22  23
ATOM     23  O   LIG A   1      -3.841   3.824 127.373  0.00  0.00    -0.395 OA
ATOM     24  H   LIG A   1      -4.028   4.458 126.661  0.00  0.00    +0.209 HD
ENDBRANCH  22  23
ENDBRANCH  15  22
TORSDOF 2
ENDMDL
MODEL 9
REMARK VINA RESULT:      -6.9      4.599      7.122
REMARK  Name = NuBBE_1675
REMARK  4 active torsions:
REMARK  status: ('A' for Active; 'I' for Inactive)
REMARK    1  A    between atoms: C_1  and  N_2
REMARK    2  A    between atoms: C_17  and  C_25
REMARK    3  A    between atoms: C_22  and  C_23
REMARK    4  A    between atoms: C_25  and  O_26
REMARK                            x       y       z     vdW  Elec       q    Type
REMARK                         _______ _______ _______ _____ _____    ______ ____
ROOT
ATOM      1  C   LIG A   1      -6.591  -1.516 128.444  0.00  0.00    +0.149 C 
ATOM      2  N   LIG A   1      -6.619  -1.652 129.880  0.00  0.00    -0.345 N 
ATOM      3  C   LIG A   1      -7.011  -0.711 130.775  0.00  0.00    +0.040 A 
ATOM      4  C   LIG A   1      -7.578   0.655 130.647  0.00  0.00    +0.105 C 
ATOM      5  N   LIG A   1      -6.588   1.666 131.512  0.00  0.00    -0.286 NA
ATOM      6  C   LIG A   1      -7.416   1.295 132.564  0.00  0.00    +0.068 C 
ATOM      7  C   LIG A   1      -7.225  -0.242 133.121  0.00  0.00    +0.056 C 
ATOM      8  C   LIG A   1      -6.866  -1.193 132.040  0.00  0.00    -0.016 A 
ATOM      9  C   LIG A   1      -6.384  -2.514 131.952  0.00  0.00    +0.003 A 
ATOM     10  C   LIG A   1      -6.241  -2.793 130.581  0.00  0.00    +0.049 A 
ATOM     11  C   LIG A   1      -5.783  -4.041 130.128  0.00  0.00    +0.026 A 
ATOM     12  C   LIG A   1      -5.463  -5.012 131.083  0.00  0.00    +0.002 A 
ATOM     13  C   LIG A   1      -5.594  -4.751 132.444  0.00  0.00    +0.001 A 
ATOM     14  C   LIG A   1      -6.053  -3.508 132.891  0.00  0.00    +0.010 A 
ATOM     15  C   LIG A   1      -8.776   2.300 131.521  0.00  0.00    +0.039 C 
ATOM     16  C   LIG A   1      -9.664   1.914 132.523  0.00  0.00    +0.024 C 
ATOM     17  C   LIG A   1      -9.275   0.449 131.496  0.00  0.00    +0.033 C 
ATOM     18  C   LIG A   1      -8.461   3.149 133.110  0.00  0.00    -0.056 C 
ATOM     19  C   LIG A   1      -8.703   3.921 134.186  0.00  0.00    -0.030 C 
ATOM     20  C   LIG A   1      -7.774   4.940 134.756  0.00  0.00    +0.035 C 
ATOM     21  C   LIG A   1      -6.866   3.133 132.137  0.00  0.00    +0.116 C 
ENDROOT
BRANCH  15  22
ATOM     22  C   LIG A   1      -9.066   3.797 130.878  0.00  0.00    +0.161 C 
BRANCH  22  23
ATOM     23  O   LIG A   1      -9.599   3.613 129.555  0.00  0.00    -0.395 OA
ATOM     24  H   LIG A   1      -9.636   4.493 129.144  0.00  0.00    +0.209 HD
ENDBRANCH  22  23
ENDBRANCH  15  22
TORSDOF 2
ENDMDL
