MODEL 1
REMARK VINA RESULT:      -8.8      0.000      0.000
REMARK  Name = NuBBE_1095
REMARK  9 active torsions:
REMARK  status: ('A' for Active; 'I' for Inactive)
REMARK    1  A    between atoms: C_1  and  C_2
REMARK    2  A    between atoms: C_4  and  C_5
REMARK    3  A    between atoms: C_6  and  C_14
REMARK    4  A    between atoms: C_23  and  C_24
REMARK    5  A    between atoms: C_28  and  O_30
REMARK    6  A    between atoms: O_30  and  C_31
REMARK    7  A    between atoms: C_31  and  C_33
REMARK    8  A    between atoms: C_34  and  C_35
REMARK    9  A    between atoms: C_34  and  C_36
REMARK                            x       y       z     vdW  Elec       q    Type
REMARK                         _______ _______ _______ _____ _____    ______ ____
ROOT
ATOM      1  C   LIG A   1      -8.141   1.766 127.433  0.00  0.00    +0.018 C 
ATOM      2  C   LIG A   1      -7.302   1.433 126.181  0.00  0.00    +0.041 C 
ATOM      3  C   LIG A   1      -6.471   2.704 125.677  0.00  0.00    +0.125 C 
ATOM      4  C   LIG A   1      -5.328   3.233 126.519  0.00  0.00    +0.042 C 
ATOM      5  C   LIG A   1      -4.265   4.004 125.654  0.00  0.00    +0.018 C 
ATOM      6  C   LIG A   1      -5.972   4.322 127.495  0.00  0.00    +0.218 C 
ATOM      7  O   LIG A   1      -7.323   4.817 127.077  0.00  0.00    -0.454 OA
ATOM      8  C   LIG A   1      -7.946   4.550 125.885  0.00  0.00    +0.340 C 
ATOM      9  O   LIG A   1      -9.098   4.839 125.652  0.00  0.00    -0.248 OA
ATOM     10  C   LIG A   1      -7.024   4.032 124.861  0.00  0.00    +0.260 C 
ATOM     11  O   LIG A   1      -6.598   2.819 124.301  0.00  0.00    -0.351 OA
ATOM     12  C   LIG A   1      -4.490   2.070 127.103  0.00  0.00    +0.014 C 
ATOM     13  C   LIG A   1      -5.236   0.824 127.565  0.00  0.00    +0.006 C 
ATOM     14  C   LIG A   1      -6.222   0.322 126.478  0.00  0.00    +0.011 C 
ATOM     15  C   LIG A   1      -6.745  -1.150 126.701  0.00  0.00    -0.006 C 
ATOM     16  C   LIG A   1      -7.456  -1.336 128.070  0.00  0.00    +0.016 C 
ATOM     17  C   LIG A   1      -7.736  -1.596 125.566  0.00  0.00    +0.016 C 
ATOM     18  C   LIG A   1      -8.806  -0.515 125.310  0.00  0.00    +0.050 C 
ATOM     19  C   LIG A   1      -8.286   0.910 125.071  0.00  0.00    +0.186 C 
ATOM     20  C   LIG A   1      -7.084  -2.227 124.274  0.00  0.00    +0.031 C 
ATOM     21  C   LIG A   1      -8.172  -2.919 123.416  0.00  0.00    +0.019 C 
ATOM     22  C   LIG A   1      -6.310  -1.278 123.349  0.00  0.00    +0.019 C 
ATOM     23  C   LIG A   1      -6.085  -3.313 124.695  0.00  0.00    +0.162 C 
ATOM     24  O   LIG A   1      -5.845  -4.315 124.024  0.00  0.00    -0.292 OA
ATOM     25  C   LIG A   1      -5.285  -3.097 125.917  0.00  0.00    +0.043 C 
ATOM     26  C   LIG A   1      -5.567  -2.116 126.779  0.00  0.00    -0.016 C 
ENDROOT
BRANCH   6  27
ATOM     27  C   LIG A   1      -6.038   4.026 128.975  0.00  0.00    +0.031 A 
ATOM     28  C   LIG A   1      -7.225   3.946 129.776  0.00  0.00    +0.048 A 
ATOM     29  C   LIG A   1      -6.828   3.729 131.071  0.00  0.00    +0.195 A 
ATOM     30  O   LIG A   1      -5.475   3.721 131.146  0.00  0.00    -0.471 OA
ATOM     31  C   LIG A   1      -5.004   3.927 129.887  0.00  0.00    +0.202 A 
ENDBRANCH   6  27
BRANCH  19  32
ATOM     32  O   LIG A   1      -9.439   1.789 125.033  0.00  0.00    -0.461 OA
BRANCH  32  33
ATOM     33  C   LIG A   1     -10.313   1.628 124.005  0.00  0.00    +0.304 C 
ATOM     34  O   LIG A   1     -11.492   1.333 124.119  0.00  0.00    -0.251 OA
ATOM     35  C   LIG A   1      -9.643   1.904 122.690  0.00  0.00    +0.136 C 
ENDBRANCH  32  33
ENDBRANCH  19  32
TORSDOF 3
ENDMDL
MODEL 2
REMARK VINA RESULT:      -8.7      4.321      6.768
REMARK  Name = NuBBE_1095
REMARK  9 active torsions:
REMARK  status: ('A' for Active; 'I' for Inactive)
REMARK    1  A    between atoms: C_1  and  C_2
REMARK    2  A    between atoms: C_4  and  C_5
REMARK    3  A    between atoms: C_6  and  C_14
REMARK    4  A    between atoms: C_23  and  C_24
REMARK    5  A    between atoms: C_28  and  O_30
REMARK    6  A    between atoms: O_30  and  C_31
REMARK    7  A    between atoms: C_31  and  C_33
REMARK    8  A    between atoms: C_34  and  C_35
REMARK    9  A    between atoms: C_34  and  C_36
REMARK                            x       y       z     vdW  Elec       q    Type
REMARK                         _______ _______ _______ _____ _____    ______ ____
ROOT
ATOM      1  C   LIG A   1      -7.471   4.490 129.234  0.00  0.00    +0.018 C 
ATOM      2  C   LIG A   1      -6.914   3.841 130.519  0.00  0.00    +0.041 C 
ATOM      3  C   LIG A   1      -6.991   4.844 131.763  0.00  0.00    +0.125 C 
ATOM      4  C   LIG A   1      -8.341   5.230 132.332  0.00  0.00    +0.042 C 
ATOM      5  C   LIG A   1      -8.246   5.656 133.842  0.00  0.00    +0.018 C 
ATOM      6  C   LIG A   1      -8.793   6.539 131.535  0.00  0.00    +0.218 C 
ATOM      7  O   LIG A   1      -7.687   7.243 130.808  0.00  0.00    -0.454 OA
ATOM      8  C   LIG A   1      -6.349   6.963 130.911  0.00  0.00    +0.340 C 
ATOM      9  O   LIG A   1      -5.506   7.449 130.191  0.00  0.00    -0.248 OA
ATOM     10  C   LIG A   1      -6.025   6.146 132.091  0.00  0.00    +0.260 C 
ATOM     11  O   LIG A   1      -5.789   4.811 132.454  0.00  0.00    -0.351 OA
ATOM     12  C   LIG A   1      -9.282   4.003 132.399  0.00  0.00    +0.014 C 
ATOM     13  C   LIG A   1      -9.219   3.001 131.252  0.00  0.00    +0.006 C 
ATOM     14  C   LIG A   1      -7.757   2.579 130.951  0.00  0.00    +0.011 C 
ATOM     15  C   LIG A   1      -7.622   1.283 130.060  0.00  0.00    -0.006 C 
ATOM     16  C   LIG A   1      -8.340   1.417 128.689  0.00  0.00    +0.016 C 
ATOM     17  C   LIG A   1      -6.118   0.911 129.796  0.00  0.00    +0.016 C 
ATOM     18  C   LIG A   1      -5.314   2.147 129.342  0.00  0.00    +0.050 C 
ATOM     19  C   LIG A   1      -5.435   3.395 130.228  0.00  0.00    +0.186 C 
ATOM     20  C   LIG A   1      -5.418   0.006 130.883  0.00  0.00    +0.031 C 
ATOM     21  C   LIG A   1      -4.084  -0.551 130.328  0.00  0.00    +0.019 C 
ATOM     22  C   LIG A   1      -5.111   0.655 132.239  0.00  0.00    +0.019 C 
ATOM     23  C   LIG A   1      -6.318  -1.199 131.187  0.00  0.00    +0.162 C 
ATOM     24  O   LIG A   1      -5.888  -2.305 131.513  0.00  0.00    -0.292 OA
ATOM     25  C   LIG A   1      -7.780  -1.002 131.197  0.00  0.00    +0.043 C 
ATOM     26  C   LIG A   1      -8.342   0.115 130.726  0.00  0.00    -0.016 C 
ENDROOT
BRANCH   6  27
ATOM     27  C   LIG A   1      -9.969   6.448 130.590  0.00  0.00    +0.031 A 
ATOM     28  C   LIG A   1     -11.344   6.273 130.957  0.00  0.00    +0.048 A 
ATOM     29  C   LIG A   1     -12.065   6.171 129.794  0.00  0.00    +0.195 A 
ATOM     30  O   LIG A   1     -11.231   6.217 128.727  0.00  0.00    -0.471 OA
ATOM     31  C   LIG A   1      -9.968   6.356 129.211  0.00  0.00    +0.202 A 
ENDBRANCH   6  27
BRANCH  19  32
ATOM     32  O   LIG A   1      -4.760   4.480 129.539  0.00  0.00    -0.461 OA
BRANCH  32  33
ATOM     33  C   LIG A   1      -3.416   4.588 129.713  0.00  0.00    +0.304 C 
ATOM     34  O   LIG A   1      -2.839   4.567 130.788  0.00  0.00    -0.251 OA
ATOM     35  C   LIG A   1      -2.716   4.698 128.388  0.00  0.00    +0.136 C 
ENDBRANCH  32  33
ENDBRANCH  19  32
TORSDOF 3
ENDMDL
MODEL 3
REMARK VINA RESULT:      -8.5      2.426      7.676
REMARK  Name = NuBBE_1095
REMARK  9 active torsions:
REMARK  status: ('A' for Active; 'I' for Inactive)
REMARK    1  A    between atoms: C_1  and  C_2
REMARK    2  A    between atoms: C_4  and  C_5
REMARK    3  A    between atoms: C_6  and  C_14
REMARK    4  A    between atoms: C_23  and  C_24
REMARK    5  A    between atoms: C_28  and  O_30
REMARK    6  A    between atoms: O_30  and  C_31
REMARK    7  A    between atoms: C_31  and  C_33
REMARK    8  A    between atoms: C_34  and  C_35
REMARK    9  A    between atoms: C_34  and  C_36
REMARK                            x       y       z     vdW  Elec       q    Type
REMARK                         _______ _______ _______ _____ _____    ______ ____
ROOT
ATOM      1  C   LIG A   1      -5.504   2.176 128.913  0.00  0.00    +0.018 C 
ATOM      2  C   LIG A   1      -5.930   3.659 128.927  0.00  0.00    +0.041 C 
ATOM      3  C   LIG A   1      -5.479   4.411 127.589  0.00  0.00    +0.125 C 
ATOM      4  C   LIG A   1      -6.135   4.052 126.271  0.00  0.00    +0.042 C 
ATOM      5  C   LIG A   1      -6.075   5.237 125.239  0.00  0.00    +0.018 C 
ATOM      6  C   LIG A   1      -5.247   2.880 125.645  0.00  0.00    +0.218 C 
ATOM      7  O   LIG A   1      -3.879   2.745 126.241  0.00  0.00    -0.454 OA
ATOM      8  C   LIG A   1      -3.293   3.619 127.121  0.00  0.00    +0.340 C 
ATOM      9  O   LIG A   1      -2.253   3.392 127.697  0.00  0.00    -0.248 OA
ATOM     10  C   LIG A   1      -3.966   4.926 127.163  0.00  0.00    +0.260 C 
ATOM     11  O   LIG A   1      -4.914   5.634 127.918  0.00  0.00    -0.351 OA
ATOM     12  C   LIG A   1      -7.660   3.855 126.451  0.00  0.00    +0.014 C 
ATOM     13  C   LIG A   1      -8.139   3.174 127.727  0.00  0.00    +0.006 C 
ATOM     14  C   LIG A   1      -7.498   3.818 128.985  0.00  0.00    +0.011 C 
ATOM     15  C   LIG A   1      -8.211   3.447 130.343  0.00  0.00    -0.006 C 
ATOM     16  C   LIG A   1      -8.257   1.916 130.600  0.00  0.00    +0.016 C 
ATOM     17  C   LIG A   1      -7.515   4.133 131.574  0.00  0.00    +0.016 C 
ATOM     18  C   LIG A   1      -5.985   3.940 131.522  0.00  0.00    +0.050 C 
ATOM     19  C   LIG A   1      -5.299   4.326 130.204  0.00  0.00    +0.186 C 
ATOM     20  C   LIG A   1      -8.006   5.589 131.935  0.00  0.00    +0.031 C 
ATOM     21  C   LIG A   1      -7.492   5.987 133.341  0.00  0.00    +0.019 C 
ATOM     22  C   LIG A   1      -7.612   6.717 130.971  0.00  0.00    +0.019 C 
ATOM     23  C   LIG A   1      -9.539   5.602 131.995  0.00  0.00    +0.162 C 
ATOM     24  O   LIG A   1     -10.185   6.336 132.740  0.00  0.00    -0.292 OA
ATOM     25  C   LIG A   1     -10.288   4.770 131.033  0.00  0.00    +0.043 C 
ATOM     26  C   LIG A   1      -9.683   3.843 130.285  0.00  0.00    -0.016 C 
ENDROOT
BRANCH   6  27
ATOM     27  C   LIG A   1      -5.836   1.493 125.546  0.00  0.00    +0.031 A 
ATOM     28  C   LIG A   1      -5.312   0.300 126.146  0.00  0.00    +0.048 A 
ATOM     29  C   LIG A   1      -6.111  -0.741 125.747  0.00  0.00    +0.195 A 
ATOM     30  O   LIG A   1      -7.066  -0.292 124.897  0.00  0.00    -0.471 OA
ATOM     31  C   LIG A   1      -6.880   1.048 124.757  0.00  0.00    +0.202 A 
ENDBRANCH   6  27
BRANCH  19  32
ATOM     32  O   LIG A   1      -3.914   3.904 130.300  0.00  0.00    -0.461 OA
BRANCH  32  33
ATOM     33  C   LIG A   1      -3.030   4.785 130.841  0.00  0.00    +0.304 C 
ATOM     34  O   LIG A   1      -2.731   5.868 130.364  0.00  0.00    -0.251 OA
ATOM     35  C   LIG A   1      -2.491   4.265 132.143  0.00  0.00    +0.136 C 
ENDBRANCH  32  33
ENDBRANCH  19  32
TORSDOF 3
ENDMDL
MODEL 4
REMARK VINA RESULT:      -8.5      2.637      5.284
REMARK  Name = NuBBE_1095
REMARK  9 active torsions:
REMARK  status: ('A' for Active; 'I' for Inactive)
REMARK    1  A    between atoms: C_1  and  C_2
REMARK    2  A    between atoms: C_4  and  C_5
REMARK    3  A    between atoms: C_6  and  C_14
REMARK    4  A    between atoms: C_23  and  C_24
REMARK    5  A    between atoms: C_28  and  O_30
REMARK    6  A    between atoms: O_30  and  C_31
REMARK    7  A    between atoms: C_31  and  C_33
REMARK    8  A    between atoms: C_34  and  C_35
REMARK    9  A    between atoms: C_34  and  C_36
REMARK                            x       y       z     vdW  Elec       q    Type
REMARK                         _______ _______ _______ _____ _____    ______ ____
ROOT
ATOM      1  C   LIG A   1      -5.236   0.725 128.269  0.00  0.00    +0.018 C 
ATOM      2  C   LIG A   1      -6.520  -0.130 128.329  0.00  0.00    +0.041 C 
ATOM      3  C   LIG A   1      -7.238  -0.011 129.754  0.00  0.00    +0.125 C 
ATOM      4  C   LIG A   1      -7.879   1.299 130.163  0.00  0.00    +0.042 C 
ATOM      5  C   LIG A   1      -9.030   1.091 131.214  0.00  0.00    +0.018 C 
ATOM      6  C   LIG A   1      -6.740   2.127 130.918  0.00  0.00    +0.218 C 
ATOM      7  O   LIG A   1      -5.571   1.309 131.376  0.00  0.00    -0.454 OA
ATOM      8  C   LIG A   1      -5.486  -0.059 131.352  0.00  0.00    +0.340 C 
ATOM      9  O   LIG A   1      -4.468  -0.670 131.584  0.00  0.00    -0.248 OA
ATOM     10  C   LIG A   1      -6.794  -0.711 131.185  0.00  0.00    +0.260 C 
ATOM     11  O   LIG A   1      -7.605  -1.275 130.189  0.00  0.00    -0.351 OA
ATOM     12  C   LIG A   1      -8.638   1.936 128.973  0.00  0.00    +0.014 C 
ATOM     13  C   LIG A   1      -8.009   1.818 127.590  0.00  0.00    +0.006 C 
ATOM     14  C   LIG A   1      -7.595   0.354 127.281  0.00  0.00    +0.011 C 
ATOM     15  C   LIG A   1      -7.298   0.068 125.758  0.00  0.00    -0.006 C 
ATOM     16  C   LIG A   1      -6.180   0.980 125.181  0.00  0.00    +0.016 C 
ATOM     17  C   LIG A   1      -6.887  -1.429 125.515  0.00  0.00    +0.016 C 
ATOM     18  C   LIG A   1      -5.811  -1.878 126.525  0.00  0.00    +0.050 C 
ATOM     19  C   LIG A   1      -6.121  -1.616 128.005  0.00  0.00    +0.186 C 
ATOM     20  C   LIG A   1      -8.068  -2.450 125.280  0.00  0.00    +0.031 C 
ATOM     21  C   LIG A   1      -7.511  -3.784 124.723  0.00  0.00    +0.019 C 
ATOM     22  C   LIG A   1      -8.945  -2.794 126.491  0.00  0.00    +0.019 C 
ATOM     23  C   LIG A   1      -9.020  -1.881 124.219  0.00  0.00    +0.162 C 
ATOM     24  O   LIG A   1      -9.662  -2.579 123.436  0.00  0.00    -0.292 OA
ATOM     25  C   LIG A   1      -9.265  -0.426 124.201  0.00  0.00    +0.043 C 
ATOM     26  C   LIG A   1      -8.517   0.422 124.913  0.00  0.00    -0.016 C 
ENDROOT
BRANCH   6  27
ATOM     27  C   LIG A   1      -6.191   3.374 130.265  0.00  0.00    +0.031 A 
ATOM     28  C   LIG A   1      -4.816   3.638 129.954  0.00  0.00    +0.048 A 
ATOM     29  C   LIG A   1      -4.753   4.907 129.438  0.00  0.00    +0.195 A 
ATOM     30  O   LIG A   1      -5.982   5.475 129.453  0.00  0.00    -0.471 OA
ATOM     31  C   LIG A   1      -6.840   4.560 129.977  0.00  0.00    +0.202 A 
ENDBRANCH   6  27
BRANCH  19  32
ATOM     32  O   LIG A   1      -4.925  -1.940 128.760  0.00  0.00    -0.461 OA
BRANCH  32  33
ATOM     33  C   LIG A   1      -4.817  -3.206 129.243  0.00  0.00    +0.304 C 
ATOM     34  O   LIG A   1      -5.747  -3.903 129.615  0.00  0.00    -0.251 OA
ATOM     35  C   LIG A   1      -3.386  -3.663 129.222  0.00  0.00    +0.136 C 
ENDBRANCH  32  33
ENDBRANCH  19  32
TORSDOF 3
ENDMDL
MODEL 5
REMARK VINA RESULT:      -8.5      1.819      2.725
REMARK  Name = NuBBE_1095
REMARK  9 active torsions:
REMARK  status: ('A' for Active; 'I' for Inactive)
REMARK    1  A    between atoms: C_1  and  C_2
REMARK    2  A    between atoms: C_4  and  C_5
REMARK    3  A    between atoms: C_6  and  C_14
REMARK    4  A    between atoms: C_23  and  C_24
REMARK    5  A    between atoms: C_28  and  O_30
REMARK    6  A    between atoms: O_30  and  C_31
REMARK    7  A    between atoms: C_31  and  C_33
REMARK    8  A    between atoms: C_34  and  C_35
REMARK    9  A    between atoms: C_34  and  C_36
REMARK                            x       y       z     vdW  Elec       q    Type
REMARK                         _______ _______ _______ _____ _____    ______ ____
ROOT
ATOM      1  C   LIG A   1      -8.009   2.939 126.313  0.00  0.00    +0.018 C 
ATOM      2  C   LIG A   1      -6.858   1.912 126.274  0.00  0.00    +0.041 C 
ATOM      3  C   LIG A   1      -5.629   2.373 127.189  0.00  0.00    +0.125 C 
ATOM      4  C   LIG A   1      -5.787   2.404 128.696  0.00  0.00    +0.042 C 
ATOM      5  C   LIG A   1      -4.409   2.248 129.437  0.00  0.00    +0.018 C 
ATOM      6  C   LIG A   1      -6.312   3.871 129.050  0.00  0.00    +0.218 C 
ATOM      7  O   LIG A   1      -6.116   4.886 127.965  0.00  0.00    -0.454 OA
ATOM      8  C   LIG A   1      -5.398   4.704 126.812  0.00  0.00    +0.340 C 
ATOM      9  O   LIG A   1      -5.395   5.492 125.893  0.00  0.00    -0.248 OA
ATOM     10  C   LIG A   1      -4.499   3.540 126.875  0.00  0.00    +0.260 C 
ATOM     11  O   LIG A   1      -4.444   2.191 126.492  0.00  0.00    -0.351 OA
ATOM     12  C   LIG A   1      -6.566   1.163 129.193  0.00  0.00    +0.014 C 
ATOM     13  C   LIG A   1      -7.724   0.665 128.337  0.00  0.00    +0.006 C 
ATOM     14  C   LIG A   1      -7.302   0.512 126.851  0.00  0.00    +0.011 C 
ATOM     15  C   LIG A   1      -8.295  -0.346 125.976  0.00  0.00    -0.006 C 
ATOM     16  C   LIG A   1      -9.741   0.223 125.973  0.00  0.00    +0.016 C 
ATOM     17  C   LIG A   1      -7.808  -0.463 124.486  0.00  0.00    +0.016 C 
ATOM     18  C   LIG A   1      -7.410   0.917 123.925  0.00  0.00    +0.050 C 
ATOM     19  C   LIG A   1      -6.425   1.734 124.773  0.00  0.00    +0.186 C 
ATOM     20  C   LIG A   1      -6.809  -1.642 124.166  0.00  0.00    +0.031 C 
ATOM     21  C   LIG A   1      -6.695  -1.838 122.634  0.00  0.00    +0.019 C 
ATOM     22  C   LIG A   1      -5.382  -1.516 124.716  0.00  0.00    +0.019 C 
ATOM     23  C   LIG A   1      -7.370  -2.947 124.746  0.00  0.00    +0.162 C 
ATOM     24  O   LIG A   1      -7.179  -4.053 124.243  0.00  0.00    -0.292 OA
ATOM     25  C   LIG A   1      -8.086  -2.894 126.035  0.00  0.00    +0.043 C 
ATOM     26  C   LIG A   1      -8.461  -1.735 126.584  0.00  0.00    -0.016 C 
ENDROOT
BRANCH   6  27
ATOM     27  C   LIG A   1      -7.720   4.035 129.573  0.00  0.00    +0.031 A 
ATOM     28  C   LIG A   1      -8.280   3.392 130.726  0.00  0.00    +0.048 A 
ATOM     29  C   LIG A   1      -9.599   3.762 130.798  0.00  0.00    +0.195 A 
ATOM     30  O   LIG A   1      -9.917   4.549 129.742  0.00  0.00    -0.471 OA
ATOM     31  C   LIG A   1      -8.791   4.688 128.992  0.00  0.00    +0.202 A 
ENDBRANCH   6  27
BRANCH  19  32
ATOM     32  O   LIG A   1      -6.325   3.050 124.170  0.00  0.00    -0.461 OA
BRANCH  32  33
ATOM     33  C   LIG A   1      -6.993   3.254 123.003  0.00  0.00    +0.304 C 
ATOM     34  O   LIG A   1      -8.192   3.456 122.902  0.00  0.00    -0.251 OA
ATOM     35  C   LIG A   1      -6.045   3.240 121.839  0.00  0.00    +0.136 C 
ENDBRANCH  32  33
ENDBRANCH  19  32
TORSDOF 3
ENDMDL
MODEL 6
REMARK VINA RESULT:      -8.0      2.205      3.155
REMARK  Name = NuBBE_1095
REMARK  9 active torsions:
REMARK  status: ('A' for Active; 'I' for Inactive)
REMARK    1  A    between atoms: C_1  and  C_2
REMARK    2  A    between atoms: C_4  and  C_5
REMARK    3  A    between atoms: C_6  and  C_14
REMARK    4  A    between atoms: C_23  and  C_24
REMARK    5  A    between atoms: C_28  and  O_30
REMARK    6  A    between atoms: O_30  and  C_31
REMARK    7  A    between atoms: C_31  and  C_33
REMARK    8  A    between atoms: C_34  and  C_35
REMARK    9  A    between atoms: C_34  and  C_36
REMARK                            x       y       z     vdW  Elec       q    Type
REMARK                         _______ _______ _______ _____ _____    ______ ____
ROOT
ATOM      1  C   LIG A   1      -6.849   3.642 128.516  0.00  0.00    +0.018 C 
ATOM      2  C   LIG A   1      -6.081   2.469 127.871  0.00  0.00    +0.041 C 
ATOM      3  C   LIG A   1      -4.784   2.979 127.084  0.00  0.00    +0.125 C 
ATOM      4  C   LIG A   1      -3.614   3.551 127.858  0.00  0.00    +0.042 C 
ATOM      5  C   LIG A   1      -2.259   3.404 127.074  0.00  0.00    +0.018 C 
ATOM      6  C   LIG A   1      -3.889   5.121 127.970  0.00  0.00    +0.218 C 
ATOM      7  O   LIG A   1      -4.904   5.650 127.002  0.00  0.00    -0.454 OA
ATOM      8  C   LIG A   1      -5.461   4.955 125.960  0.00  0.00    +0.340 C 
ATOM      9  O   LIG A   1      -6.389   5.368 125.301  0.00  0.00    -0.248 OA
ATOM     10  C   LIG A   1      -4.710   3.738 125.616  0.00  0.00    +0.260 C 
ATOM     11  O   LIG A   1      -4.723   2.354 125.848  0.00  0.00    -0.351 OA
ATOM     12  C   LIG A   1      -3.342   2.720 129.136  0.00  0.00    +0.014 C 
ATOM     13  C   LIG A   1      -4.545   2.184 129.901  0.00  0.00    +0.006 C 
ATOM     14  C   LIG A   1      -5.538   1.458 128.954  0.00  0.00    +0.011 C 
ATOM     15  C   LIG A   1      -6.599   0.553 129.691  0.00  0.00    -0.006 C 
ATOM     16  C   LIG A   1      -7.458   1.344 130.716  0.00  0.00    +0.016 C 
ATOM     17  C   LIG A   1      -7.569  -0.153 128.675  0.00  0.00    +0.016 C 
ATOM     18  C   LIG A   1      -8.119   0.853 127.644  0.00  0.00    +0.050 C 
ATOM     19  C   LIG A   1      -7.076   1.714 126.916  0.00  0.00    +0.186 C 
ATOM     20  C   LIG A   1      -7.083  -1.534 128.086  0.00  0.00    +0.031 C 
ATOM     21  C   LIG A   1      -8.263  -2.258 127.391  0.00  0.00    +0.019 C 
ATOM     22  C   LIG A   1      -5.920  -1.495 127.085  0.00  0.00    +0.019 C 
ATOM     23  C   LIG A   1      -6.616  -2.436 129.237  0.00  0.00    +0.162 C 
ATOM     24  O   LIG A   1      -6.711  -3.661 129.223  0.00  0.00    -0.292 OA
ATOM     25  C   LIG A   1      -5.917  -1.814 130.379  0.00  0.00    +0.043 C 
ATOM     26  C   LIG A   1      -5.889  -0.489 130.550  0.00  0.00    -0.016 C 
ENDROOT
BRANCH   6  27
ATOM     27  C   LIG A   1      -4.206   5.710 129.324  0.00  0.00    +0.031 A 
ATOM     28  C   LIG A   1      -3.257   6.175 130.294  0.00  0.00    +0.048 A 
ATOM     29  C   LIG A   1      -3.965   6.562 131.403  0.00  0.00    +0.195 A 
ATOM     30  O   LIG A   1      -5.286   6.324 131.216  0.00  0.00    -0.471 OA
ATOM     31  C   LIG A   1      -5.423   5.785 129.975  0.00  0.00    +0.202 A 
ENDBRANCH   6  27
BRANCH  19  32
ATOM     32  O   LIG A   1      -7.799   2.702 126.138  0.00  0.00    -0.461 OA
BRANCH  32  33
ATOM     33  C   LIG A   1      -8.422   2.273 125.009  0.00  0.00    +0.304 C 
ATOM     34  O   LIG A   1      -9.621   2.341 124.794  0.00  0.00    -0.251 OA
ATOM     35  C   LIG A   1      -7.424   1.733 124.025  0.00  0.00    +0.136 C 
ENDBRANCH  32  33
ENDBRANCH  19  32
TORSDOF 3
ENDMDL
MODEL 7
REMARK VINA RESULT:      -8.0      3.381      4.834
REMARK  Name = NuBBE_1095
REMARK  9 active torsions:
REMARK  status: ('A' for Active; 'I' for Inactive)
REMARK    1  A    between atoms: C_1  and  C_2
REMARK    2  A    between atoms: C_4  and  C_5
REMARK    3  A    between atoms: C_6  and  C_14
REMARK    4  A    between atoms: C_23  and  C_24
REMARK    5  A    between atoms: C_28  and  O_30
REMARK    6  A    between atoms: O_30  and  C_31
REMARK    7  A    between atoms: C_31  and  C_33
REMARK    8  A    between atoms: C_34  and  C_35
REMARK    9  A    between atoms: C_34  and  C_36
REMARK                            x       y       z     vdW  Elec       q    Type
REMARK                         _______ _______ _______ _____ _____    ______ ____
ROOT
ATOM      1  C   LIG A   1      -7.847   0.350 129.315  0.00  0.00    +0.018 C 
ATOM      2  C   LIG A   1      -6.587  -0.420 128.865  0.00  0.00    +0.041 C 
ATOM      3  C   LIG A   1      -5.977   0.189 127.517  0.00  0.00    +0.125 C 
ATOM      4  C   LIG A   1      -5.345   1.566 127.535  0.00  0.00    +0.042 C 
ATOM      5  C   LIG A   1      -4.282   1.742 126.391  0.00  0.00    +0.018 C 
ATOM      6  C   LIG A   1      -6.523   2.593 127.203  0.00  0.00    +0.218 C 
ATOM      7  O   LIG A   1      -7.738   1.972 126.583  0.00  0.00    -0.454 OA
ATOM      8  C   LIG A   1      -7.846   0.679 126.141  0.00  0.00    +0.340 C 
ATOM      9  O   LIG A   1      -8.890   0.176 125.793  0.00  0.00    -0.248 OA
ATOM     10  C   LIG A   1      -6.541   0.021 125.971  0.00  0.00    +0.260 C 
ATOM     11  O   LIG A   1      -5.668  -0.845 126.646  0.00  0.00    -0.351 OA
ATOM     12  C   LIG A   1      -4.486   1.760 128.809  0.00  0.00    +0.014 C 
ATOM     13  C   LIG A   1      -5.010   1.167 130.111  0.00  0.00    +0.006 C 
ATOM     14  C   LIG A   1      -5.426  -0.317 129.929  0.00  0.00    +0.011 C 
ATOM     15  C   LIG A   1      -5.612  -1.113 131.279  0.00  0.00    -0.006 C 
ATOM     16  C   LIG A   1      -6.666  -0.466 132.219  0.00  0.00    +0.016 C 
ATOM     17  C   LIG A   1      -6.030  -2.606 131.022  0.00  0.00    +0.016 C 
ATOM     18  C   LIG A   1      -7.188  -2.689 130.006  0.00  0.00    +0.050 C 
ATOM     19  C   LIG A   1      -6.987  -1.930 128.687  0.00  0.00    +0.186 C 
ATOM     20  C   LIG A   1      -4.854  -3.635 130.799  0.00  0.00    +0.031 C 
ATOM     21  C   LIG A   1      -5.392  -5.084 130.905  0.00  0.00    +0.019 C 
ATOM     22  C   LIG A   1      -4.078  -3.532 129.479  0.00  0.00    +0.019 C 
ATOM     23  C   LIG A   1      -3.814  -3.458 131.914  0.00  0.00    +0.162 C 
ATOM     24  O   LIG A   1      -3.127  -4.377 132.356  0.00  0.00    -0.292 OA
ATOM     25  C   LIG A   1      -3.541  -2.096 132.412  0.00  0.00    +0.043 C 
ATOM     26  C   LIG A   1      -4.326  -1.061 132.096  0.00  0.00    -0.016 C 
ENDROOT
BRANCH   6  27
ATOM     27  C   LIG A   1      -6.997   3.533 128.286  0.00  0.00    +0.031 A 
ATOM     28  C   LIG A   1      -8.331   3.631 128.805  0.00  0.00    +0.048 A 
ATOM     29  C   LIG A   1      -8.338   4.655 129.717  0.00  0.00    +0.195 A 
ATOM     30  O   LIG A   1      -7.117   5.239 129.767  0.00  0.00    -0.471 OA
ATOM     31  C   LIG A   1      -6.321   4.579 128.884  0.00  0.00    +0.202 A 
ENDBRANCH   6  27
BRANCH  19  32
ATOM     32  O   LIG A   1      -8.243  -1.985 127.963  0.00  0.00    -0.461 OA
BRANCH  32  33
ATOM     33  C   LIG A   1      -8.587  -3.175 127.401  0.00  0.00    +0.304 C 
ATOM     34  O   LIG A   1      -9.206  -4.066 127.959  0.00  0.00    -0.251 OA
ATOM     35  C   LIG A   1      -8.138  -3.236 125.969  0.00  0.00    +0.136 C 
ENDBRANCH  32  33
ENDBRANCH  19  32
TORSDOF 3
ENDMDL
MODEL 8
REMARK VINA RESULT:      -8.0      4.104      8.346
REMARK  Name = NuBBE_1095
REMARK  9 active torsions:
REMARK  status: ('A' for Active; 'I' for Inactive)
REMARK    1  A    between atoms: C_1  and  C_2
REMARK    2  A    between atoms: C_4  and  C_5
REMARK    3  A    between atoms: C_6  and  C_14
REMARK    4  A    between atoms: C_23  and  C_24
REMARK    5  A    between atoms: C_28  and  O_30
REMARK    6  A    between atoms: O_30  and  C_31
REMARK    7  A    between atoms: C_31  and  C_33
REMARK    8  A    between atoms: C_34  and  C_35
REMARK    9  A    between atoms: C_34  and  C_36
REMARK                            x       y       z     vdW  Elec       q    Type
REMARK                         _______ _______ _______ _____ _____    ______ ____
ROOT
ATOM      1  C   LIG A   1      -5.084   2.297 130.619  0.00  0.00    +0.018 C 
ATOM      2  C   LIG A   1      -5.200   3.831 130.500  0.00  0.00    +0.041 C 
ATOM      3  C   LIG A   1      -6.404   4.255 129.535  0.00  0.00    +0.125 C 
ATOM      4  C   LIG A   1      -7.835   4.003 129.966  0.00  0.00    +0.042 C 
ATOM      5  C   LIG A   1      -8.843   4.992 129.276  0.00  0.00    +0.018 C 
ATOM      6  C   LIG A   1      -8.206   2.547 129.422  0.00  0.00    +0.218 C 
ATOM      7  O   LIG A   1      -7.295   2.027 128.351  0.00  0.00    -0.454 OA
ATOM      8  C   LIG A   1      -6.316   2.742 127.710  0.00  0.00    +0.340 C 
ATOM      9  O   LIG A   1      -5.503   2.243 126.966  0.00  0.00    -0.248 OA
ATOM     10  C   LIG A   1      -6.462   4.195 127.883  0.00  0.00    +0.260 C 
ATOM     11  O   LIG A   1      -5.971   5.248 128.670  0.00  0.00    -0.351 OA
ATOM     12  C   LIG A   1      -8.024   4.340 131.465  0.00  0.00    +0.014 C 
ATOM     13  C   LIG A   1      -6.890   3.986 132.418  0.00  0.00    +0.006 C 
ATOM     14  C   LIG A   1      -5.526   4.505 131.889  0.00  0.00    +0.011 C 
ATOM     15  C   LIG A   1      -4.373   4.527 132.967  0.00  0.00    -0.006 C 
ATOM     16  C   LIG A   1      -4.107   3.131 133.593  0.00  0.00    +0.016 C 
ATOM     17  C   LIG A   1      -3.024   5.064 132.366  0.00  0.00    +0.016 C 
ATOM     18  C   LIG A   1      -2.702   4.373 131.025  0.00  0.00    +0.050 C 
ATOM     19  C   LIG A   1      -3.822   4.376 129.976  0.00  0.00    +0.186 C 
ATOM     20  C   LIG A   1      -2.819   6.629 132.392  0.00  0.00    +0.031 C 
ATOM     21  C   LIG A   1      -1.338   6.973 132.096  0.00  0.00    +0.019 C 
ATOM     22  C   LIG A   1      -3.679   7.461 131.431  0.00  0.00    +0.019 C 
ATOM     23  C   LIG A   1      -3.131   7.154 133.799  0.00  0.00    +0.162 C 
ATOM     24  O   LIG A   1      -2.577   8.131 134.300  0.00  0.00    -0.292 OA
ATOM     25  C   LIG A   1      -4.229   6.524 134.558  0.00  0.00    +0.043 C 
ATOM     26  C   LIG A   1      -4.792   5.380 134.160  0.00  0.00    -0.016 C 
ENDROOT
BRANCH   6  27
ATOM     27  C   LIG A   1      -8.419   1.430 130.416  0.00  0.00    +0.031 A 
ATOM     28  C   LIG A   1      -7.762   0.154 130.417  0.00  0.00    +0.048 A 
ATOM     29  C   LIG A   1      -8.300  -0.578 131.445  0.00  0.00    +0.195 A 
ATOM     30  O   LIG A   1      -9.282   0.128 132.053  0.00  0.00    -0.471 OA
ATOM     31  C   LIG A   1      -9.370   1.325 131.413  0.00  0.00    +0.202 A 
ENDBRANCH   6  27
BRANCH  19  32
ATOM     32  O   LIG A   1      -3.387   3.533 128.878  0.00  0.00    -0.461 OA
BRANCH  32  33
ATOM     33  C   LIG A   1      -2.695   4.128 127.870  0.00  0.00    +0.304 C 
ATOM     34  O   LIG A   1      -2.617   5.331 127.681  0.00  0.00    -0.251 OA
ATOM     35  C   LIG A   1      -1.992   3.101 127.029  0.00  0.00    +0.136 C 
ENDBRANCH  32  33
ENDBRANCH  19  32
TORSDOF 3
ENDMDL
MODEL 9
REMARK VINA RESULT:      -7.9      2.151      6.943
REMARK  Name = NuBBE_1095
REMARK  9 active torsions:
REMARK  status: ('A' for Active; 'I' for Inactive)
REMARK    1  A    between atoms: C_1  and  C_2
REMARK    2  A    between atoms: C_4  and  C_5
REMARK    3  A    between atoms: C_6  and  C_14
REMARK    4  A    between atoms: C_23  and  C_24
REMARK    5  A    between atoms: C_28  and  O_30
REMARK    6  A    between atoms: O_30  and  C_31
REMARK    7  A    between atoms: C_31  and  C_33
REMARK    8  A    between atoms: C_34  and  C_35
REMARK    9  A    between atoms: C_34  and  C_36
REMARK                            x       y       z     vdW  Elec       q    Type
REMARK                         _______ _______ _______ _____ _____    ______ ____
ROOT
ATOM      1  C   LIG A   1      -5.250   1.611 128.193  0.00  0.00    +0.018 C 
ATOM      2  C   LIG A   1      -6.340   2.671 128.457  0.00  0.00    +0.041 C 
ATOM      3  C   LIG A   1      -6.894   3.296 127.092  0.00  0.00    +0.125 C 
ATOM      4  C   LIG A   1      -7.711   2.434 126.151  0.00  0.00    +0.042 C 
ATOM      5  C   LIG A   1      -8.671   3.292 125.249  0.00  0.00    +0.018 C 
ATOM      6  C   LIG A   1      -6.660   1.758 125.155  0.00  0.00    +0.218 C 
ATOM      7  O   LIG A   1      -5.316   2.418 125.119  0.00  0.00    -0.454 OA
ATOM      8  C   LIG A   1      -4.986   3.607 125.717  0.00  0.00    +0.340 C 
ATOM      9  O   LIG A   1      -3.853   4.025 125.796  0.00  0.00    -0.248 OA
ATOM     10  C   LIG A   1      -6.164   4.401 126.101  0.00  0.00    +0.260 C 
ATOM     11  O   LIG A   1      -6.970   4.675 127.216  0.00  0.00    -0.351 OA
ATOM     12  C   LIG A   1      -8.708   1.551 126.940  0.00  0.00    +0.014 C 
ATOM     13  C   LIG A   1      -8.237   0.962 128.263  0.00  0.00    +0.006 C 
ATOM     14  C   LIG A   1      -7.602   2.049 129.171  0.00  0.00    +0.011 C 
ATOM     15  C   LIG A   1      -7.440   1.625 130.682  0.00  0.00    -0.006 C 
ATOM     16  C   LIG A   1      -6.584   0.341 130.858  0.00  0.00    +0.016 C 
ATOM     17  C   LIG A   1      -6.795   2.770 131.543  0.00  0.00    +0.016 C 
ATOM     18  C   LIG A   1      -5.543   3.345 130.850  0.00  0.00    +0.050 C 
ATOM     19  C   LIG A   1      -5.718   3.776 129.387  0.00  0.00    +0.186 C 
ATOM     20  C   LIG A   1      -7.789   3.836 132.148  0.00  0.00    +0.031 C 
ATOM     21  C   LIG A   1      -7.068   4.677 133.231  0.00  0.00    +0.019 C 
ATOM     22  C   LIG A   1      -8.438   4.821 131.166  0.00  0.00    +0.019 C 
ATOM     23  C   LIG A   1      -8.947   3.107 132.842  0.00  0.00    +0.162 C 
ATOM     24  O   LIG A   1      -9.539   3.550 133.824  0.00  0.00    -0.292 OA
ATOM     25  C   LIG A   1      -9.455   1.859 132.239  0.00  0.00    +0.043 C 
ATOM     26  C   LIG A   1      -8.795   1.231 131.262  0.00  0.00    -0.016 C 
ENDROOT
BRANCH   6  27
ATOM     27  C   LIG A   1      -6.430   0.267 125.241  0.00  0.00    +0.031 A 
ATOM     28  C   LIG A   1      -5.296  -0.387 125.830  0.00  0.00    +0.048 A 
ATOM     29  C   LIG A   1      -5.455  -1.734 125.629  0.00  0.00    +0.195 A 
ATOM     30  O   LIG A   1      -6.581  -1.966 124.912  0.00  0.00    -0.471 OA
ATOM     31  C   LIG A   1      -7.149  -0.757 124.656  0.00  0.00    +0.202 A 
ENDBRANCH   6  27
BRANCH  19  32
ATOM     32  O   LIG A   1      -4.402   4.112 128.876  0.00  0.00    -0.461 OA
BRANCH  32  33
ATOM     33  C   LIG A   1      -4.020   5.415 128.945  0.00  0.00    +0.304 C 
ATOM     34  O   LIG A   1      -4.762   6.358 129.170  0.00  0.00    -0.251 OA
ATOM     35  C   LIG A   1      -2.537   5.545 128.749  0.00  0.00    +0.136 C 
ENDBRANCH  32  33
ENDBRANCH  19  32
TORSDOF 3
ENDMDL
