MODEL 1
REMARK VINA RESULT:      -7.5      0.000      0.000
REMARK  Name = NuBBE_14
REMARK  10 active torsions:
REMARK  status: ('A' for Active; 'I' for Inactive)
REMARK    1  A    between atoms: C_3  and  O_32
REMARK    2  A    between atoms: C_4  and  O_5
REMARK    3  A    between atoms: O_5  and  C_6
REMARK    4  A    between atoms: C_8  and  C_9
REMARK    5  A    between atoms: C_15  and  C_21
REMARK    6  A    between atoms: C_23  and  O_24
REMARK    7  A    between atoms: O_24  and  C_25
REMARK    8  A    between atoms: C_26  and  O_29
REMARK    9  A    between atoms: O_29  and  C_30
REMARK   10  A    between atoms: O_32  and  C_33
REMARK                            x       y       z     vdW  Elec       q    Type
REMARK                         _______ _______ _______ _____ _____    ______ ____
ROOT
ATOM      1  C   LIG A   1      -8.720   2.435 123.215  0.00  0.00    +0.154 C 
ATOM      2  C   LIG A   1      -7.635   1.845 124.126  0.00  0.00    +0.056 C 
ATOM      3  C   LIG A   1      -7.615   2.497 125.484  0.00  0.00    +0.167 C 
ATOM      4  O   LIG A   1      -8.733   1.940 126.179  0.00  0.00    -0.371 OA
ATOM      5  C   LIG A   1      -8.903   0.573 125.730  0.00  0.00    +0.154 C 
ATOM      6  C   LIG A   1      -8.112   0.443 124.421  0.00  0.00    +0.056 C 
ATOM      7  C   LIG A   1      -8.991   0.117 123.241  0.00  0.00    +0.167 C 
ATOM      8  O   LIG A   1      -9.591   1.347 122.839  0.00  0.00    -0.371 OA
ENDROOT
BRANCH   1  13
ATOM      9  C   LIG A   1      -8.418   4.116 119.787  0.00  0.00    +0.050 A 
ATOM     10  C   LIG A   1      -7.041   4.313 119.667  0.00  0.00    +0.162 A 
ATOM     11  C   LIG A   1      -6.212   3.944 120.738  0.00  0.00    +0.162 A 
ATOM     12  C   LIG A   1      -6.753   3.335 121.878  0.00  0.00    +0.055 A 
ATOM     13  C   LIG A   1      -8.137   3.113 121.988  0.00  0.00    -0.015 A 
ATOM     14  C   LIG A   1      -8.956   3.530 120.935  0.00  0.00    +0.010 A 
BRANCH  11  15
ATOM     15  O   LIG A   1      -4.841   4.039 120.709  0.00  0.00    -0.491 OA
ATOM     16  C   LIG A   1      -4.326   4.914 121.713  0.00  0.00    +0.277 C 
ENDBRANCH  11  15
BRANCH  10  17
ATOM     17  O   LIG A   1      -6.435   4.808 118.542  0.00  0.00    -0.491 OA
ATOM     18  C   LIG A   1      -5.983   6.154 118.587  0.00  0.00    +0.277 C 
ENDBRANCH  10  17
ENDBRANCH   1  13
BRANCH   5  19
ATOM     19  C   LIG A   1      -8.417  -0.404 126.787  0.00  0.00    -0.015 A 
ATOM     20  C   LIG A   1      -7.897   0.037 128.019  0.00  0.00    +0.055 A 
ATOM     21  C   LIG A   1      -7.469  -0.869 129.007  0.00  0.00    +0.162 A 
ATOM     22  C   LIG A   1      -7.548  -2.254 128.752  0.00  0.00    +0.162 A 
ATOM     23  C   LIG A   1      -8.073  -2.686 127.535  0.00  0.00    +0.050 A 
ATOM     24  C   LIG A   1      -8.486  -1.783 126.562  0.00  0.00    +0.010 A 
BRANCH  21  25
ATOM     25  O   LIG A   1      -7.001  -0.254 130.140  0.00  0.00    -0.491 OA
ATOM     26  C   LIG A   1      -5.744   0.414 130.067  0.00  0.00    +0.277 C 
ENDBRANCH  21  25
BRANCH  22  27
ATOM     27  O   LIG A   1      -7.110  -3.125 129.708  0.00  0.00    -0.491 OA
ATOM     28  C   LIG A   1      -5.729  -3.445 129.749  0.00  0.00    +0.277 C 
ENDBRANCH  22  27
ENDBRANCH   5  19
TORSDOF 6
ENDMDL
MODEL 2
REMARK VINA RESULT:      -7.2      2.090      2.849
REMARK  Name = NuBBE_14
REMARK  10 active torsions:
REMARK  status: ('A' for Active; 'I' for Inactive)
REMARK    1  A    between atoms: C_3  and  O_32
REMARK    2  A    between atoms: C_4  and  O_5
REMARK    3  A    between atoms: O_5  and  C_6
REMARK    4  A    between atoms: C_8  and  C_9
REMARK    5  A    between atoms: C_15  and  C_21
REMARK    6  A    between atoms: C_23  and  O_24
REMARK    7  A    between atoms: O_24  and  C_25
REMARK    8  A    between atoms: C_26  and  O_29
REMARK    9  A    between atoms: O_29  and  C_30
REMARK   10  A    between atoms: O_32  and  C_33
REMARK                            x       y       z     vdW  Elec       q    Type
REMARK                         _______ _______ _______ _____ _____    ______ ____
ROOT
ATOM      1  C   LIG A   1      -7.274   0.743 124.086  0.00  0.00    +0.154 C 
ATOM      2  C   LIG A   1      -6.678   0.648 125.497  0.00  0.00    +0.056 C 
ATOM      3  C   LIG A   1      -7.723   0.817 126.568  0.00  0.00    +0.167 C 
ATOM      4  O   LIG A   1      -8.423  -0.428 126.603  0.00  0.00    -0.371 OA
ATOM      5  C   LIG A   1      -7.480  -1.481 126.285  0.00  0.00    +0.154 C 
ATOM      6  C   LIG A   1      -6.268  -0.798 125.636  0.00  0.00    +0.056 C 
ATOM      7  C   LIG A   1      -6.046  -1.239 124.212  0.00  0.00    +0.167 C 
ATOM      8  O   LIG A   1      -6.975  -0.502 123.418  0.00  0.00    -0.371 OA
ENDROOT
BRANCH   1  13
ATOM      9  C   LIG A   1      -5.947   2.906 121.216  0.00  0.00    +0.050 A 
ATOM     10  C   LIG A   1      -5.628   4.102 121.862  0.00  0.00    +0.162 A 
ATOM     11  C   LIG A   1      -5.900   4.220 123.233  0.00  0.00    +0.162 A 
ATOM     12  C   LIG A   1      -6.426   3.136 123.949  0.00  0.00    +0.055 A 
ATOM     13  C   LIG A   1      -6.723   1.923 123.305  0.00  0.00    -0.015 A 
ATOM     14  C   LIG A   1      -6.493   1.835 121.929  0.00  0.00    +0.010 A 
BRANCH  11  15
ATOM     15  O   LIG A   1      -5.578   5.327 123.982  0.00  0.00    -0.491 OA
ATOM     16  C   LIG A   1      -6.041   5.237 125.329  0.00  0.00    +0.277 C 
ENDBRANCH  11  15
BRANCH  10  17
ATOM     17  O   LIG A   1      -5.020   5.163 121.245  0.00  0.00    -0.491 OA
ATOM     18  C   LIG A   1      -5.250   5.324 119.852  0.00  0.00    +0.277 C 
ENDBRANCH  10  17
ENDBRANCH   1  13
BRANCH   5  19
ATOM     19  C   LIG A   1      -7.095  -2.254 127.535  0.00  0.00    -0.015 A 
ATOM     20  C   LIG A   1      -5.780  -2.241 128.037  0.00  0.00    +0.055 A 
ATOM     21  C   LIG A   1      -5.429  -2.937 129.208  0.00  0.00    +0.162 A 
ATOM     22  C   LIG A   1      -6.416  -3.681 129.889  0.00  0.00    +0.162 A 
ATOM     23  C   LIG A   1      -7.719  -3.683 129.394  0.00  0.00    +0.050 A 
ATOM     24  C   LIG A   1      -8.054  -2.997 128.232  0.00  0.00    +0.010 A 
BRANCH  21  25
ATOM     25  O   LIG A   1      -4.106  -2.800 129.544  0.00  0.00    -0.491 OA
ATOM     26  C   LIG A   1      -3.188  -3.774 129.053  0.00  0.00    +0.277 C 
ENDBRANCH  21  25
BRANCH  22  27
ATOM     27  O   LIG A   1      -6.061  -4.371 131.013  0.00  0.00    -0.491 OA
ATOM     28  C   LIG A   1      -6.099  -3.697 132.260  0.00  0.00    +0.277 C 
ENDBRANCH  22  27
ENDBRANCH   5  19
TORSDOF 6
ENDMDL
MODEL 3
REMARK VINA RESULT:      -7.2      6.122      7.908
REMARK  Name = NuBBE_14
REMARK  10 active torsions:
REMARK  status: ('A' for Active; 'I' for Inactive)
REMARK    1  A    between atoms: C_3  and  O_32
REMARK    2  A    between atoms: C_4  and  O_5
REMARK    3  A    between atoms: O_5  and  C_6
REMARK    4  A    between atoms: C_8  and  C_9
REMARK    5  A    between atoms: C_15  and  C_21
REMARK    6  A    between atoms: C_23  and  O_24
REMARK    7  A    between atoms: O_24  and  C_25
REMARK    8  A    between atoms: C_26  and  O_29
REMARK    9  A    between atoms: O_29  and  C_30
REMARK   10  A    between atoms: O_32  and  C_33
REMARK                            x       y       z     vdW  Elec       q    Type
REMARK                         _______ _______ _______ _____ _____    ______ ____
ROOT
ATOM      1  C   LIG A   1      -9.326   5.121 130.967  0.00  0.00    +0.154 C 
ATOM      2  C   LIG A   1      -8.724   4.399 129.753  0.00  0.00    +0.056 C 
ATOM      3  C   LIG A   1      -7.236   4.607 129.648  0.00  0.00    +0.167 C 
ATOM      4  O   LIG A   1      -6.671   3.752 130.644  0.00  0.00    -0.371 OA
ATOM      5  C   LIG A   1      -7.509   2.576 130.752  0.00  0.00    +0.154 C 
ATOM      6  C   LIG A   1      -8.847   2.932 130.089  0.00  0.00    +0.056 C 
ATOM      7  C   LIG A   1     -10.004   2.889 131.054  0.00  0.00    +0.167 C 
ATOM      8  O   LIG A   1      -9.959   4.114 131.785  0.00  0.00    -0.371 OA
ENDROOT
BRANCH   1  13
ATOM      9  C   LIG A   1     -12.426   7.370 130.904  0.00  0.00    +0.050 A 
ATOM     10  C   LIG A   1     -12.207   8.154 129.770  0.00  0.00    +0.162 A 
ATOM     11  C   LIG A   1     -11.012   7.985 129.054  0.00  0.00    +0.162 A 
ATOM     12  C   LIG A   1     -10.087   7.005 129.437  0.00  0.00    +0.055 A 
ATOM     13  C   LIG A   1     -10.319   6.196 130.563  0.00  0.00    -0.015 A 
ATOM     14  C   LIG A   1     -11.490   6.409 131.296  0.00  0.00    +0.010 A 
BRANCH  11  15
ATOM     15  O   LIG A   1     -10.716   8.660 127.893  0.00  0.00    -0.491 OA
ATOM     16  C   LIG A   1     -10.976   7.887 126.722  0.00  0.00    +0.277 C 
ENDBRANCH  11  15
BRANCH  10  17
ATOM     17  O   LIG A   1     -13.113   9.059 129.281  0.00  0.00    -0.491 OA
ATOM     18  C   LIG A   1     -13.196  10.316 129.938  0.00  0.00    +0.277 C 
ENDBRANCH  10  17
ENDBRANCH   1  13
BRANCH   5  19
ATOM     19  C   LIG A   1      -6.847   1.380 130.089  0.00  0.00    -0.015 A 
ATOM     20  C   LIG A   1      -7.599   0.292 129.606  0.00  0.00    +0.055 A 
ATOM     21  C   LIG A   1      -6.988  -0.804 128.970  0.00  0.00    +0.162 A 
ATOM     22  C   LIG A   1      -5.585  -0.823 128.827  0.00  0.00    +0.162 A 
ATOM     23  C   LIG A   1      -4.845   0.261 129.298  0.00  0.00    +0.050 A 
ATOM     24  C   LIG A   1      -5.458   1.336 129.931  0.00  0.00    +0.010 A 
BRANCH  21  25
ATOM     25  O   LIG A   1      -7.882  -1.761 128.561  0.00  0.00    -0.491 OA
ATOM     26  C   LIG A   1      -8.123  -2.864 129.430  0.00  0.00    +0.277 C 
ENDBRANCH  21  25
BRANCH  22  27
ATOM     27  O   LIG A   1      -4.998  -1.901 128.228  0.00  0.00    -0.491 OA
ATOM     28  C   LIG A   1      -4.302  -2.830 129.043  0.00  0.00    +0.277 C 
ENDBRANCH  22  27
ENDBRANCH   5  19
TORSDOF 6
ENDMDL
MODEL 4
REMARK VINA RESULT:      -7.1      6.900      8.637
REMARK  Name = NuBBE_14
REMARK  10 active torsions:
REMARK  status: ('A' for Active; 'I' for Inactive)
REMARK    1  A    between atoms: C_3  and  O_32
REMARK    2  A    between atoms: C_4  and  O_5
REMARK    3  A    between atoms: O_5  and  C_6
REMARK    4  A    between atoms: C_8  and  C_9
REMARK    5  A    between atoms: C_15  and  C_21
REMARK    6  A    between atoms: C_23  and  O_24
REMARK    7  A    between atoms: O_24  and  C_25
REMARK    8  A    between atoms: C_26  and  O_29
REMARK    9  A    between atoms: O_29  and  C_30
REMARK   10  A    between atoms: O_32  and  C_33
REMARK                            x       y       z     vdW  Elec       q    Type
REMARK                         _______ _______ _______ _____ _____    ______ ____
ROOT
ATOM      1  C   LIG A   1      -9.085   5.531 131.417  0.00  0.00    +0.154 C 
ATOM      2  C   LIG A   1      -9.353   4.063 131.058  0.00  0.00    +0.056 C 
ATOM      3  C   LIG A   1      -8.281   3.489 130.170  0.00  0.00    +0.167 C 
ATOM      4  O   LIG A   1      -7.172   3.245 131.038  0.00  0.00    -0.371 OA
ATOM      5  C   LIG A   1      -7.693   2.877 132.338  0.00  0.00    +0.154 C 
ATOM      6  C   LIG A   1      -9.164   3.317 132.357  0.00  0.00    +0.056 C 
ATOM      7  C   LIG A   1      -9.444   4.363 133.406  0.00  0.00    +0.167 C 
ATOM      8  O   LIG A   1      -9.006   5.605 132.857  0.00  0.00    -0.371 OA
ENDROOT
BRANCH   1  13
ATOM      9  C   LIG A   1     -12.403   7.402 131.013  0.00  0.00    +0.050 A 
ATOM     10  C   LIG A   1     -12.191   8.142 129.848  0.00  0.00    +0.162 A 
ATOM     11  C   LIG A   1     -10.938   8.071 129.222  0.00  0.00    +0.162 A 
ATOM     12  C   LIG A   1      -9.939   7.227 129.726  0.00  0.00    +0.055 A 
ATOM     13  C   LIG A   1     -10.160   6.461 130.884  0.00  0.00    -0.015 A 
ATOM     14  C   LIG A   1     -11.396   6.578 131.525  0.00  0.00    +0.010 A 
BRANCH  11  15
ATOM     15  O   LIG A   1     -10.637   8.711 128.043  0.00  0.00    -0.491 OA
ATOM     16  C   LIG A   1     -10.870   7.894 126.896  0.00  0.00    +0.277 C 
ENDBRANCH  11  15
BRANCH  10  17
ATOM     17  O   LIG A   1     -13.155   8.908 129.246  0.00  0.00    -0.491 OA
ATOM     18  C   LIG A   1     -13.302  10.246 129.703  0.00  0.00    +0.277 C 
ENDBRANCH  10  17
ENDBRANCH   1  13
BRANCH   5  19
ATOM     19  C   LIG A   1      -7.544   1.384 132.575  0.00  0.00    -0.015 A 
ATOM     20  C   LIG A   1      -6.550   0.867 133.427  0.00  0.00    +0.055 A 
ATOM     21  C   LIG A   1      -6.426  -0.514 133.665  0.00  0.00    +0.162 A 
ATOM     22  C   LIG A   1      -7.310  -1.406 133.023  0.00  0.00    +0.162 A 
ATOM     23  C   LIG A   1      -8.300  -0.889 132.187  0.00  0.00    +0.050 A 
ATOM     24  C   LIG A   1      -8.408   0.478 131.953  0.00  0.00    +0.010 A 
BRANCH  21  25
ATOM     25  O   LIG A   1      -5.407  -0.827 134.528  0.00  0.00    -0.491 OA
ATOM     26  C   LIG A   1      -5.656  -0.712 135.927  0.00  0.00    +0.277 C 
ENDBRANCH  21  25
BRANCH  22  27
ATOM     27  O   LIG A   1      -7.170  -2.746 133.243  0.00  0.00    -0.491 OA
ATOM     28  C   LIG A   1      -8.023  -3.369 134.188  0.00  0.00    +0.277 C 
ENDBRANCH  22  27
ENDBRANCH   5  19
TORSDOF 6
ENDMDL
MODEL 5
REMARK VINA RESULT:      -7.0      5.991     10.189
REMARK  Name = NuBBE_14
REMARK  10 active torsions:
REMARK  status: ('A' for Active; 'I' for Inactive)
REMARK    1  A    between atoms: C_3  and  O_32
REMARK    2  A    between atoms: C_4  and  O_5
REMARK    3  A    between atoms: O_5  and  C_6
REMARK    4  A    between atoms: C_8  and  C_9
REMARK    5  A    between atoms: C_15  and  C_21
REMARK    6  A    between atoms: C_23  and  O_24
REMARK    7  A    between atoms: O_24  and  C_25
REMARK    8  A    between atoms: C_26  and  O_29
REMARK    9  A    between atoms: O_29  and  C_30
REMARK   10  A    between atoms: O_32  and  C_33
REMARK                            x       y       z     vdW  Elec       q    Type
REMARK                         _______ _______ _______ _____ _____    ______ ____
ROOT
ATOM      1  C   LIG A   1      -7.932   2.694 130.857  0.00  0.00    +0.154 C 
ATOM      2  C   LIG A   1      -9.221   3.128 130.148  0.00  0.00    +0.056 C 
ATOM      3  C   LIG A   1     -10.372   3.287 131.106  0.00  0.00    +0.167 C 
ATOM      4  O   LIG A   1     -10.129   4.526 131.775  0.00  0.00    -0.371 OA
ATOM      5  C   LIG A   1      -9.478   5.420 130.840  0.00  0.00    +0.154 C 
ATOM      6  C   LIG A   1      -8.946   4.543 129.699  0.00  0.00    +0.056 C 
ATOM      7  C   LIG A   1      -7.443   4.588 129.583  0.00  0.00    +0.167 C 
ATOM      8  O   LIG A   1      -6.941   3.709 130.588  0.00  0.00    -0.371 OA
ENDROOT
BRANCH   1  13
ATOM      9  C   LIG A   1      -7.516  -0.514 128.806  0.00  0.00    +0.050 A 
ATOM     10  C   LIG A   1      -6.606  -1.246 129.571  0.00  0.00    +0.162 A 
ATOM     11  C   LIG A   1      -6.084  -0.664 130.736  0.00  0.00    +0.162 A 
ATOM     12  C   LIG A   1      -6.515   0.603 131.152  0.00  0.00    +0.055 A 
ATOM     13  C   LIG A   1      -7.451   1.330 130.396  0.00  0.00    -0.015 A 
ATOM     14  C   LIG A   1      -7.926   0.759 129.212  0.00  0.00    +0.010 A 
BRANCH  11  15
ATOM     15  O   LIG A   1      -5.228  -1.312 131.595  0.00  0.00    -0.491 OA
ATOM     16  C   LIG A   1      -3.926  -0.727 131.623  0.00  0.00    +0.277 C 
ENDBRANCH  11  15
BRANCH  10  17
ATOM     17  O   LIG A   1      -6.220  -2.527 129.278  0.00  0.00    -0.491 OA
ATOM     18  C   LIG A   1      -7.198  -3.549 129.417  0.00  0.00    +0.277 C 
ENDBRANCH  10  17
ENDBRANCH   1  13
BRANCH   5  19
ATOM     19  C   LIG A   1     -10.450   6.475 130.340  0.00  0.00    -0.015 A 
ATOM     20  C   LIG A   1     -10.263   7.127 129.106  0.00  0.00    +0.055 A 
ATOM     21  C   LIG A   1     -11.176   8.087 128.632  0.00  0.00    +0.162 A 
ATOM     22  C   LIG A   1     -12.299   8.417 129.419  0.00  0.00    +0.162 A 
ATOM     23  C   LIG A   1     -12.486   7.762 130.635  0.00  0.00    +0.050 A 
ATOM     24  C   LIG A   1     -11.574   6.820 131.098  0.00  0.00    +0.010 A 
BRANCH  21  25
ATOM     25  O   LIG A   1     -10.831   8.606 127.410  0.00  0.00    -0.491 OA
ATOM     26  C   LIG A   1     -10.979   7.772 126.264  0.00  0.00    +0.277 C 
ENDBRANCH  21  25
BRANCH  22  27
ATOM     27  O   LIG A   1     -13.168   9.366 128.961  0.00  0.00    -0.491 OA
ATOM     28  C   LIG A   1     -13.339  10.550 129.723  0.00  0.00    +0.277 C 
ENDBRANCH  22  27
ENDBRANCH   5  19
TORSDOF 6
ENDMDL
MODEL 6
REMARK VINA RESULT:      -7.0      7.807     10.124
REMARK  Name = NuBBE_14
REMARK  10 active torsions:
REMARK  status: ('A' for Active; 'I' for Inactive)
REMARK    1  A    between atoms: C_3  and  O_32
REMARK    2  A    between atoms: C_4  and  O_5
REMARK    3  A    between atoms: O_5  and  C_6
REMARK    4  A    between atoms: C_8  and  C_9
REMARK    5  A    between atoms: C_15  and  C_21
REMARK    6  A    between atoms: C_23  and  O_24
REMARK    7  A    between atoms: O_24  and  C_25
REMARK    8  A    between atoms: C_26  and  O_29
REMARK    9  A    between atoms: O_29  and  C_30
REMARK   10  A    between atoms: O_32  and  C_33
REMARK                            x       y       z     vdW  Elec       q    Type
REMARK                         _______ _______ _______ _____ _____    ______ ____
ROOT
ATOM      1  C   LIG A   1      -9.276   5.733 130.940  0.00  0.00    +0.154 C 
ATOM      2  C   LIG A   1      -9.181   5.796 132.471  0.00  0.00    +0.056 C 
ATOM      3  C   LIG A   1      -9.526   4.480 133.117  0.00  0.00    +0.167 C 
ATOM      4  O   LIG A   1      -8.376   3.655 132.915  0.00  0.00    -0.371 OA
ATOM      5  C   LIG A   1      -7.204   4.506 132.947  0.00  0.00    +0.154 C 
ATOM      6  C   LIG A   1      -7.705   5.944 132.750  0.00  0.00    +0.056 C 
ATOM      7  C   LIG A   1      -7.171   6.578 131.491  0.00  0.00    +0.167 C 
ATOM      8  O   LIG A   1      -7.972   6.078 130.423  0.00  0.00    -0.371 OA
ENDROOT
BRANCH   1  13
ATOM      9  C   LIG A   1     -12.527   7.725 130.569  0.00  0.00    +0.050 A 
ATOM     10  C   LIG A   1     -12.361   8.345 129.329  0.00  0.00    +0.162 A 
ATOM     11  C   LIG A   1     -11.156   8.155 128.637  0.00  0.00    +0.162 A 
ATOM     12  C   LIG A   1     -10.165   7.310 129.154  0.00  0.00    +0.055 A 
ATOM     13  C   LIG A   1     -10.342   6.664 130.390  0.00  0.00    -0.015 A 
ATOM     14  C   LIG A   1     -11.527   6.901 131.093  0.00  0.00    +0.010 A 
BRANCH  11  15
ATOM     15  O   LIG A   1     -10.905   8.669 127.387  0.00  0.00    -0.491 OA
ATOM     16  C   LIG A   1     -10.958   7.678 126.360  0.00  0.00    +0.277 C 
ENDBRANCH  11  15
BRANCH  10  17
ATOM     17  O   LIG A   1     -13.327   9.101 128.719  0.00  0.00    -0.491 OA
ATOM     18  C   LIG A   1     -13.524  10.421 129.207  0.00  0.00    +0.277 C 
ENDBRANCH  10  17
ENDBRANCH   1  13
BRANCH   5  19
ATOM     19  C   LIG A   1      -6.454   4.340 134.257  0.00  0.00    -0.015 A 
ATOM     20  C   LIG A   1      -6.470   5.337 135.250  0.00  0.00    +0.055 A 
ATOM     21  C   LIG A   1      -5.794   5.173 136.474  0.00  0.00    +0.162 A 
ATOM     22  C   LIG A   1      -5.069   3.986 136.706  0.00  0.00    +0.162 A 
ATOM     23  C   LIG A   1      -5.064   2.996 135.724  0.00  0.00    +0.050 A 
ATOM     24  C   LIG A   1      -5.728   3.171 134.515  0.00  0.00    +0.010 A 
BRANCH  21  25
ATOM     25  O   LIG A   1      -5.931   6.246 137.317  0.00  0.00    -0.491 OA
ATOM     26  C   LIG A   1      -7.125   6.340 138.090  0.00  0.00    +0.277 C 
ENDBRANCH  21  25
BRANCH  22  27
ATOM     27  O   LIG A   1      -4.398   3.844 137.887  0.00  0.00    -0.491 OA
ATOM     28  C   LIG A   1      -5.044   3.168 138.953  0.00  0.00    +0.277 C 
ENDBRANCH  22  27
ENDBRANCH   5  19
TORSDOF 6
ENDMDL
MODEL 7
REMARK VINA RESULT:      -6.9      4.660      7.797
REMARK  Name = NuBBE_14
REMARK  10 active torsions:
REMARK  status: ('A' for Active; 'I' for Inactive)
REMARK    1  A    between atoms: C_3  and  O_32
REMARK    2  A    between atoms: C_4  and  O_5
REMARK    3  A    between atoms: O_5  and  C_6
REMARK    4  A    between atoms: C_8  and  C_9
REMARK    5  A    between atoms: C_15  and  C_21
REMARK    6  A    between atoms: C_23  and  O_24
REMARK    7  A    between atoms: O_24  and  C_25
REMARK    8  A    between atoms: C_26  and  O_29
REMARK    9  A    between atoms: O_29  and  C_30
REMARK   10  A    between atoms: O_32  and  C_33
REMARK                            x       y       z     vdW  Elec       q    Type
REMARK                         _______ _______ _______ _____ _____    ______ ____
ROOT
ATOM      1  C   LIG A   1      -4.425   4.567 126.917  0.00  0.00    +0.154 C 
ATOM      2  C   LIG A   1      -5.560   3.628 127.348  0.00  0.00    +0.056 C 
ATOM      3  C   LIG A   1      -6.886   4.030 126.758  0.00  0.00    +0.167 C 
ATOM      4  O   LIG A   1      -6.830   3.604 125.395  0.00  0.00    -0.371 OA
ATOM      5  C   LIG A   1      -6.038   2.392 125.337  0.00  0.00    +0.154 C 
ATOM      6  C   LIG A   1      -5.253   2.322 126.654  0.00  0.00    +0.056 C 
ATOM      7  C   LIG A   1      -3.761   2.378 126.446  0.00  0.00    +0.167 C 
ATOM      8  O   LIG A   1      -3.439   3.753 126.244  0.00  0.00    -0.371 OA
ENDROOT
BRANCH   1  13
ATOM      9  C   LIG A   1      -1.954   6.526 129.091  0.00  0.00    +0.050 A 
ATOM     10  C   LIG A   1      -2.632   6.621 130.307  0.00  0.00    +0.162 A 
ATOM     11  C   LIG A   1      -3.927   6.090 130.400  0.00  0.00    +0.162 A 
ATOM     12  C   LIG A   1      -4.502   5.424 129.309  0.00  0.00    +0.055 A 
ATOM     13  C   LIG A   1      -3.809   5.305 128.092  0.00  0.00    -0.015 A 
ATOM     14  C   LIG A   1      -2.540   5.882 127.998  0.00  0.00    +0.010 A 
BRANCH  11  15
ATOM     15  O   LIG A   1      -4.664   6.076 131.560  0.00  0.00    -0.491 OA
ATOM     16  C   LIG A   1      -5.952   6.672 131.404  0.00  0.00    +0.277 C 
ENDBRANCH  11  15
BRANCH  10  17
ATOM     17  O   LIG A   1      -2.091   7.167 131.442  0.00  0.00    -0.491 OA
ATOM     18  C   LIG A   1      -0.928   6.546 131.971  0.00  0.00    +0.277 C 
ENDBRANCH  10  17
ENDBRANCH   1  13
BRANCH   5  19
ATOM     19  C   LIG A   1      -6.928   1.177 125.141  0.00  0.00    -0.015 A 
ATOM     20  C   LIG A   1      -8.219   1.286 124.591  0.00  0.00    +0.055 A 
ATOM     21  C   LIG A   1      -9.035   0.158 124.388  0.00  0.00    +0.162 A 
ATOM     22  C   LIG A   1      -8.553  -1.115 124.758  0.00  0.00    +0.162 A 
ATOM     23  C   LIG A   1      -7.270  -1.221 125.293  0.00  0.00    +0.050 A 
ATOM     24  C   LIG A   1      -6.475  -0.098 125.497  0.00  0.00    +0.010 A 
BRANCH  21  25
ATOM     25  O   LIG A   1     -10.253   0.461 123.836  0.00  0.00    -0.491 OA
ATOM     26  C   LIG A   1     -10.327   0.606 122.420  0.00  0.00    +0.277 C 
ENDBRANCH  21  25
BRANCH  22  27
ATOM     27  O   LIG A   1      -9.359  -2.203 124.577  0.00  0.00    -0.491 OA
ATOM     28  C   LIG A   1      -9.201  -2.972 123.396  0.00  0.00    +0.277 C 
ENDBRANCH  22  27
ENDBRANCH   5  19
TORSDOF 6
ENDMDL
MODEL 8
REMARK VINA RESULT:      -6.9      8.397     11.662
REMARK  Name = NuBBE_14
REMARK  10 active torsions:
REMARK  status: ('A' for Active; 'I' for Inactive)
REMARK    1  A    between atoms: C_3  and  O_32
REMARK    2  A    between atoms: C_4  and  O_5
REMARK    3  A    between atoms: O_5  and  C_6
REMARK    4  A    between atoms: C_8  and  C_9
REMARK    5  A    between atoms: C_15  and  C_21
REMARK    6  A    between atoms: C_23  and  O_24
REMARK    7  A    between atoms: O_24  and  C_25
REMARK    8  A    between atoms: C_26  and  O_29
REMARK    9  A    between atoms: O_29  and  C_30
REMARK   10  A    between atoms: O_32  and  C_33
REMARK                            x       y       z     vdW  Elec       q    Type
REMARK                         _______ _______ _______ _____ _____    ______ ____
ROOT
ATOM      1  C   LIG A   1      -5.700   5.708 130.799  0.00  0.00    +0.154 C 
ATOM      2  C   LIG A   1      -5.271   6.635 131.945  0.00  0.00    +0.056 C 
ATOM      3  C   LIG A   1      -4.581   5.887 133.054  0.00  0.00    +0.167 C 
ATOM      4  O   LIG A   1      -3.267   5.618 132.559  0.00  0.00    -0.371 OA
ATOM      5  C   LIG A   1      -2.876   6.721 131.706  0.00  0.00    +0.154 C 
ATOM      6  C   LIG A   1      -4.165   7.476 131.353  0.00  0.00    +0.056 C 
ATOM      7  C   LIG A   1      -4.463   7.459 129.876  0.00  0.00    +0.167 C 
ATOM      8  O   LIG A   1      -5.049   6.188 129.603  0.00  0.00    -0.371 OA
ENDROOT
BRANCH   1  13
ATOM      9  C   LIG A   1      -9.393   6.726 130.842  0.00  0.00    +0.050 A 
ATOM     10  C   LIG A   1     -10.027   5.582 130.352  0.00  0.00    +0.162 A 
ATOM     11  C   LIG A   1      -9.238   4.493 129.954  0.00  0.00    +0.162 A 
ATOM     12  C   LIG A   1      -7.845   4.533 130.102  0.00  0.00    +0.055 A 
ATOM     13  C   LIG A   1      -7.208   5.674 130.620  0.00  0.00    -0.015 A 
ATOM     14  C   LIG A   1      -8.002   6.771 130.967  0.00  0.00    +0.010 A 
BRANCH  11  15
ATOM     15  O   LIG A   1      -9.754   3.298 129.511  0.00  0.00    -0.491 OA
ATOM     16  C   LIG A   1      -8.742   2.350 129.172  0.00  0.00    +0.277 C 
ENDBRANCH  11  15
BRANCH  10  17
ATOM     17  O   LIG A   1     -11.387   5.438 130.275  0.00  0.00    -0.491 OA
ATOM     18  C   LIG A   1     -12.175   6.611 130.429  0.00  0.00    +0.277 C 
ENDBRANCH  10  17
ENDBRANCH   1  13
BRANCH   5  19
ATOM     19  C   LIG A   1      -1.868   7.614 132.409  0.00  0.00    -0.015 A 
ATOM     20  C   LIG A   1      -2.147   8.965 132.691  0.00  0.00    +0.055 A 
ATOM     21  C   LIG A   1      -1.223   9.786 133.363  0.00  0.00    +0.162 A 
ATOM     22  C   LIG A   1       0.021   9.247 133.752  0.00  0.00    +0.162 A 
ATOM     23  C   LIG A   1       0.290   7.907 133.480  0.00  0.00    +0.050 A 
ATOM     24  C   LIG A   1      -0.627   7.106 132.808  0.00  0.00    +0.010 A 
BRANCH  21  25
ATOM     25  O   LIG A   1      -1.675  11.067 133.554  0.00  0.00    -0.491 OA
ATOM     26  C   LIG A   1      -1.441  12.019 132.520  0.00  0.00    +0.277 C 
ENDBRANCH  21  25
BRANCH  22  27
ATOM     27  O   LIG A   1       0.920  10.057 134.385  0.00  0.00    -0.491 OA
ATOM     28  C   LIG A   1       0.860  10.159 135.798  0.00  0.00    +0.277 C 
ENDBRANCH  22  27
ENDBRANCH   5  19
TORSDOF 6
ENDMDL
MODEL 9
REMARK VINA RESULT:      -6.9      4.728      7.882
REMARK  Name = NuBBE_14
REMARK  10 active torsions:
REMARK  status: ('A' for Active; 'I' for Inactive)
REMARK    1  A    between atoms: C_3  and  O_32
REMARK    2  A    between atoms: C_4  and  O_5
REMARK    3  A    between atoms: O_5  and  C_6
REMARK    4  A    between atoms: C_8  and  C_9
REMARK    5  A    between atoms: C_15  and  C_21
REMARK    6  A    between atoms: C_23  and  O_24
REMARK    7  A    between atoms: O_24  and  C_25
REMARK    8  A    between atoms: C_26  and  O_29
REMARK    9  A    between atoms: O_29  and  C_30
REMARK   10  A    between atoms: O_32  and  C_33
REMARK                            x       y       z     vdW  Elec       q    Type
REMARK                         _______ _______ _______ _____ _____    ______ ____
ROOT
ATOM      1  C   LIG A   1      -6.448  -2.287 128.788  0.00  0.00    +0.154 C 
ATOM      2  C   LIG A   1      -7.033  -3.470 129.572  0.00  0.00    +0.056 C 
ATOM      3  C   LIG A   1      -5.965  -4.416 130.055  0.00  0.00    +0.167 C 
ATOM      4  O   LIG A   1      -5.366  -3.758 131.174  0.00  0.00    -0.371 OA
ATOM      5  C   LIG A   1      -6.393  -2.988 131.843  0.00  0.00    +0.154 C 
ATOM      6  C   LIG A   1      -7.554  -2.855 130.848  0.00  0.00    +0.056 C 
ATOM      7  C   LIG A   1      -7.828  -1.423 130.461  0.00  0.00    +0.167 C 
ATOM      8  O   LIG A   1      -6.852  -1.084 129.477  0.00  0.00    -0.371 OA
ENDROOT
BRANCH   1  13
ATOM      9  C   LIG A   1      -8.699  -2.351 125.689  0.00  0.00    +0.050 A 
ATOM     10  C   LIG A   1      -7.774  -2.301 124.644  0.00  0.00    +0.162 A 
ATOM     11  C   LIG A   1      -6.411  -2.190 124.955  0.00  0.00    +0.162 A 
ATOM     12  C   LIG A   1      -5.984  -2.190 126.290  0.00  0.00    +0.055 A 
ATOM     13  C   LIG A   1      -6.912  -2.267 127.342  0.00  0.00    -0.015 A 
ATOM     14  C   LIG A   1      -8.271  -2.328 127.019  0.00  0.00    +0.010 A 
BRANCH  11  15
ATOM     15  O   LIG A   1      -5.411  -2.190 124.011  0.00  0.00    -0.491 OA
ATOM     16  C   LIG A   1      -4.809  -3.474 123.843  0.00  0.00    +0.277 C 
ENDBRANCH  11  15
BRANCH  10  17
ATOM     17  O   LIG A   1      -8.114  -2.399 123.320  0.00  0.00    -0.491 OA
ATOM     18  C   LIG A   1      -9.036  -1.444 122.814  0.00  0.00    +0.277 C 
ENDBRANCH  10  17
ENDBRANCH   1  13
BRANCH   5  19
ATOM     19  C   LIG A   1      -6.823  -3.668 133.131  0.00  0.00    -0.015 A 
ATOM     20  C   LIG A   1      -6.062  -4.701 133.712  0.00  0.00    +0.055 A 
ATOM     21  C   LIG A   1      -6.448  -5.315 134.917  0.00  0.00    +0.162 A 
ATOM     22  C   LIG A   1      -7.636  -4.897 135.553  0.00  0.00    +0.162 A 
ATOM     23  C   LIG A   1      -8.381  -3.867 134.980  0.00  0.00    +0.050 A 
ATOM     24  C   LIG A   1      -7.995  -3.272 133.785  0.00  0.00    +0.010 A 
BRANCH  21  25
ATOM     25  O   LIG A   1      -5.579  -6.292 135.330  0.00  0.00    -0.491 OA
ATOM     26  C   LIG A   1      -4.291  -6.341 134.721  0.00  0.00    +0.277 C 
ENDBRANCH  21  25
BRANCH  22  27
ATOM     27  O   LIG A   1      -8.014  -5.513 136.712  0.00  0.00    -0.491 OA
ATOM     28  C   LIG A   1      -8.921  -6.601 136.633  0.00  0.00    +0.277 C 
ENDBRANCH  22  27
ENDBRANCH   5  19
TORSDOF 6
ENDMDL
