MODEL 1
REMARK VINA RESULT:      -7.2      0.000      0.000
REMARK  Name = NuBBE_2464
REMARK  17 active torsions:
REMARK  status: ('A' for Active; 'I' for Inactive)
REMARK    1  A    between atoms: C_1  and  O_2
REMARK    2  A    between atoms: O_2  and  C_3
REMARK    3  A    between atoms: C_4  and  O_5
REMARK    4  A    between atoms: O_5  and  C_6
REMARK    5  A    between atoms: C_9  and  C_11
REMARK    6  A    between atoms: C_14  and  O_15
REMARK    7  A    between atoms: O_15  and  C_16
REMARK    8  A    between atoms: C_17  and  O_18
REMARK    9  A    between atoms: O_18  and  C_19
REMARK   10  A    between atoms: C_21  and  C_23
REMARK   11  A    between atoms: C_23  and  O_24
REMARK   12  A    between atoms: O_24  and  C_25
REMARK   13  A    between atoms: C_25  and  C_26
REMARK   14  A    between atoms: C_28  and  C_30
REMARK   15  A    between atoms: C_30  and  O_31
REMARK   16  A    between atoms: O_31  and  C_32
REMARK   17  A    between atoms: C_32  and  C_33
REMARK                            x       y       z     vdW  Elec       q    Type
REMARK                         _______ _______ _______ _____ _____    ______ ____
ROOT
ATOM      1  C   LIG A   1      -7.882  -0.305 126.392  0.00  0.00    +0.162 A 
ATOM      2  C   LIG A   1      -6.516  -0.302 126.699  0.00  0.00    +0.162 A 
ATOM      3  C   LIG A   1      -5.752   0.825 126.358  0.00  0.00    +0.053 A 
ATOM      4  C   LIG A   1      -6.329   1.957 125.743  0.00  0.00    -0.033 A 
ATOM      5  C   LIG A   1      -5.481   3.199 125.498  0.00  0.00    +0.056 C 
ATOM      6  C   LIG A   1      -6.159   4.258 124.561  0.00  0.00    +0.045 C 
ATOM      7  C   LIG A   1      -7.705   4.354 124.743  0.00  0.00    +0.038 C 
ATOM      8  C   LIG A   1      -8.327   2.971 124.535  0.00  0.00    +0.042 C 
ATOM      9  C   LIG A   1      -7.676   1.905 125.374  0.00  0.00    -0.040 A 
ATOM     10  C   LIG A   1      -8.432   0.776 125.699  0.00  0.00    +0.053 A 
ENDROOT
BRANCH   5  11
ATOM     11  C   LIG A   1      -4.805   3.755 126.766  0.00  0.00    -0.036 A 
ATOM     12  C   LIG A   1      -3.411   3.752 126.786  0.00  0.00    +0.008 A 
ATOM     13  C   LIG A   1      -2.712   4.008 127.963  0.00  0.00    +0.050 A 
ATOM     14  C   LIG A   1      -3.360   4.338 129.162  0.00  0.00    +0.162 A 
ATOM     15  C   LIG A   1      -4.763   4.363 129.175  0.00  0.00    +0.162 A 
ATOM     16  C   LIG A   1      -5.466   4.098 127.969  0.00  0.00    +0.053 A 
BRANCH  14  17
ATOM     17  O   LIG A   1      -2.648   4.672 130.289  0.00  0.00    -0.491 OA
ATOM     18  C   LIG A   1      -2.287   6.049 130.414  0.00  0.00    +0.277 C 
ENDBRANCH  14  17
BRANCH  15  19
ATOM     19  O   LIG A   1      -5.573   4.683 130.239  0.00  0.00    -0.491 OA
ATOM     20  C   LIG A   1      -6.959   4.352 130.162  0.00  0.00    +0.277 C 
ENDBRANCH  15  19
ENDBRANCH   5  11
BRANCH   1  22
ATOM     21  C   LIG A   1      -8.994  -2.232 125.599  0.00  0.00    +0.277 C 
ATOM     22  O   LIG A   1      -8.651  -1.396 126.699  0.00  0.00    -0.491 OA
ENDBRANCH   1  22
BRANCH   2  23
ATOM     23  O   LIG A   1      -5.790  -1.281 127.329  0.00  0.00    -0.491 OA
ATOM     24  C   LIG A   1      -5.343  -2.378 126.541  0.00  0.00    +0.277 C 
ENDBRANCH   2  23
BRANCH   6  25
ATOM     25  C   LIG A   1      -5.830   3.906 123.071  0.00  0.00    +0.237 C 
BRANCH  25  26
ATOM     26  O   LIG A   1      -5.078   4.992 122.500  0.00  0.00    -0.465 OA
BRANCH  26  27
ATOM     27  C   LIG A   1      -5.001   5.054 121.155  0.00  0.00    +0.304 C 
ATOM     28  C   LIG A   1      -5.616   3.832 120.554  0.00  0.00    +0.136 C 
ATOM     29  O   LIG A   1      -4.596   6.024 120.501  0.00  0.00    -0.251 OA
ENDBRANCH  26  27
ENDBRANCH  25  26
ENDBRANCH   6  25
BRANCH   7  30
ATOM     30  C   LIG A   1      -8.182   4.978 126.068  0.00  0.00    +0.236 C 
BRANCH  30  31
ATOM     31  O   LIG A   1      -9.269   5.901 125.846  0.00  0.00    -0.465 OA
BRANCH  31  32
ATOM     32  C   LIG A   1      -9.817   6.455 126.968  0.00  0.00    +0.304 C 
ATOM     33  C   LIG A   1     -10.818   7.535 126.603  0.00  0.00    +0.136 C 
ATOM     34  O   LIG A   1      -9.569   6.134 128.101  0.00  0.00    -0.251 OA
ENDBRANCH  31  32
ENDBRANCH  30  31
ENDBRANCH   7  30
TORSDOF 11
ENDMDL
MODEL 2
REMARK VINA RESULT:      -7.2      2.530      5.065
REMARK  Name = NuBBE_2464
REMARK  17 active torsions:
REMARK  status: ('A' for Active; 'I' for Inactive)
REMARK    1  A    between atoms: C_1  and  O_2
REMARK    2  A    between atoms: O_2  and  C_3
REMARK    3  A    between atoms: C_4  and  O_5
REMARK    4  A    between atoms: O_5  and  C_6
REMARK    5  A    between atoms: C_9  and  C_11
REMARK    6  A    between atoms: C_14  and  O_15
REMARK    7  A    between atoms: O_15  and  C_16
REMARK    8  A    between atoms: C_17  and  O_18
REMARK    9  A    between atoms: O_18  and  C_19
REMARK   10  A    between atoms: C_21  and  C_23
REMARK   11  A    between atoms: C_23  and  O_24
REMARK   12  A    between atoms: O_24  and  C_25
REMARK   13  A    between atoms: C_25  and  C_26
REMARK   14  A    between atoms: C_28  and  C_30
REMARK   15  A    between atoms: C_30  and  O_31
REMARK   16  A    between atoms: O_31  and  C_32
REMARK   17  A    between atoms: C_32  and  C_33
REMARK                            x       y       z     vdW  Elec       q    Type
REMARK                         _______ _______ _______ _____ _____    ______ ____
ROOT
ATOM      1  C   LIG A   1      -6.896  -2.876 128.944  0.00  0.00    +0.162 A 
ATOM      2  C   LIG A   1      -5.632  -2.302 128.762  0.00  0.00    +0.162 A 
ATOM      3  C   LIG A   1      -5.406  -1.515 127.623  0.00  0.00    +0.053 A 
ATOM      4  C   LIG A   1      -6.425  -1.267 126.676  0.00  0.00    -0.033 A 
ATOM      5  C   LIG A   1      -6.163  -0.314 125.517  0.00  0.00    +0.056 C 
ATOM      6  C   LIG A   1      -7.262  -0.354 124.399  0.00  0.00    +0.045 C 
ATOM      7  C   LIG A   1      -8.703  -0.588 124.949  0.00  0.00    +0.038 C 
ATOM      8  C   LIG A   1      -8.727  -1.874 125.777  0.00  0.00    +0.042 C 
ATOM      9  C   LIG A   1      -7.656  -1.911 126.832  0.00  0.00    -0.040 A 
ATOM     10  C   LIG A   1      -7.874  -2.707 127.959  0.00  0.00    +0.053 A 
ENDROOT
BRANCH   5  11
ATOM     11  C   LIG A   1      -5.696   1.088 125.953  0.00  0.00    -0.036 A 
ATOM     12  C   LIG A   1      -5.429   1.267 127.310  0.00  0.00    +0.008 A 
ATOM     13  C   LIG A   1      -5.233   2.540 127.839  0.00  0.00    +0.050 A 
ATOM     14  C   LIG A   1      -5.233   3.691 127.039  0.00  0.00    +0.162 A 
ATOM     15  C   LIG A   1      -5.485   3.547 125.667  0.00  0.00    +0.162 A 
ATOM     16  C   LIG A   1      -5.687   2.244 125.138  0.00  0.00    +0.053 A 
BRANCH  14  17
ATOM     17  O   LIG A   1      -4.951   4.928 127.568  0.00  0.00    -0.491 OA
ATOM     18  C   LIG A   1      -4.796   4.979 128.988  0.00  0.00    +0.277 C 
ENDBRANCH  14  17
BRANCH  15  19
ATOM     19  O   LIG A   1      -5.505   4.547 124.722  0.00  0.00    -0.491 OA
ATOM     20  C   LIG A   1      -5.634   4.181 123.348  0.00  0.00    +0.277 C 
ENDBRANCH  15  19
ENDBRANCH   5  11
BRANCH   1  22
ATOM     21  C   LIG A   1      -7.476  -2.960 131.232  0.00  0.00    +0.277 C 
ATOM     22  O   LIG A   1      -7.143  -3.661 130.038  0.00  0.00    -0.491 OA
ENDBRANCH   1  22
BRANCH   2  23
ATOM     23  O   LIG A   1      -4.538  -2.392 129.587  0.00  0.00    -0.491 OA
ATOM     24  C   LIG A   1      -3.519  -3.318 129.229  0.00  0.00    +0.277 C 
ENDBRANCH   2  23
BRANCH   6  25
ATOM     25  C   LIG A   1      -6.905  -1.482 123.373  0.00  0.00    +0.237 C 
BRANCH  25  26
ATOM     26  O   LIG A   1      -5.661  -2.086 123.773  0.00  0.00    -0.465 OA
BRANCH  26  27
ATOM     27  C   LIG A   1      -5.624  -3.432 123.859  0.00  0.00    +0.304 C 
ATOM     28  C   LIG A   1      -4.248  -3.924 123.547  0.00  0.00    +0.136 C 
ATOM     29  O   LIG A   1      -6.550  -4.153 124.253  0.00  0.00    -0.251 OA
ENDBRANCH  26  27
ENDBRANCH  25  26
ENDBRANCH   6  25
BRANCH   7  30
ATOM     30  C   LIG A   1      -9.314   0.585 125.737  0.00  0.00    +0.236 C 
BRANCH  30  31
ATOM     31  O   LIG A   1     -10.002   1.500 124.858  0.00  0.00    -0.465 OA
BRANCH  31  32
ATOM     32  C   LIG A   1      -9.277   2.580 124.440  0.00  0.00    +0.304 C 
ATOM     33  C   LIG A   1      -8.972   2.483 122.956  0.00  0.00    +0.136 C 
ATOM     34  O   LIG A   1      -8.931   3.502 125.130  0.00  0.00    -0.251 OA
ENDBRANCH  31  32
ENDBRANCH  30  31
ENDBRANCH   7  30
TORSDOF 11
ENDMDL
MODEL 3
REMARK VINA RESULT:      -7.1      2.656      7.813
REMARK  Name = NuBBE_2464
REMARK  17 active torsions:
REMARK  status: ('A' for Active; 'I' for Inactive)
REMARK    1  A    between atoms: C_1  and  O_2
REMARK    2  A    between atoms: O_2  and  C_3
REMARK    3  A    between atoms: C_4  and  O_5
REMARK    4  A    between atoms: O_5  and  C_6
REMARK    5  A    between atoms: C_9  and  C_11
REMARK    6  A    between atoms: C_14  and  O_15
REMARK    7  A    between atoms: O_15  and  C_16
REMARK    8  A    between atoms: C_17  and  O_18
REMARK    9  A    between atoms: O_18  and  C_19
REMARK   10  A    between atoms: C_21  and  C_23
REMARK   11  A    between atoms: C_23  and  O_24
REMARK   12  A    between atoms: O_24  and  C_25
REMARK   13  A    between atoms: C_25  and  C_26
REMARK   14  A    between atoms: C_28  and  C_30
REMARK   15  A    between atoms: C_30  and  O_31
REMARK   16  A    between atoms: O_31  and  C_32
REMARK   17  A    between atoms: C_32  and  C_33
REMARK                            x       y       z     vdW  Elec       q    Type
REMARK                         _______ _______ _______ _____ _____    ______ ____
ROOT
ATOM      1  C   LIG A   1      -4.993   6.705 130.761  0.00  0.00    +0.162 A 
ATOM      2  C   LIG A   1      -4.700   5.423 130.282  0.00  0.00    +0.162 A 
ATOM      3  C   LIG A   1      -5.755   4.517 130.092  0.00  0.00    +0.053 A 
ATOM      4  C   LIG A   1      -7.097   4.875 130.346  0.00  0.00    -0.033 A 
ATOM      5  C   LIG A   1      -8.215   3.894 130.015  0.00  0.00    +0.056 C 
ATOM      6  C   LIG A   1      -9.611   4.297 130.607  0.00  0.00    +0.045 C 
ATOM      7  C   LIG A   1      -9.859   5.837 130.625  0.00  0.00    +0.038 C 
ATOM      8  C   LIG A   1      -8.728   6.525 131.392  0.00  0.00    +0.042 C 
ATOM      9  C   LIG A   1      -7.363   6.131 130.898  0.00  0.00    -0.040 A 
ATOM     10  C   LIG A   1      -6.310   7.026 131.101  0.00  0.00    +0.053 A 
ENDROOT
BRANCH   5  11
ATOM     11  C   LIG A   1      -8.216   3.417 128.551  0.00  0.00    -0.036 A 
ATOM     12  C   LIG A   1      -8.379   2.049 128.336  0.00  0.00    +0.008 A 
ATOM     13  C   LIG A   1      -8.159   1.491 127.080  0.00  0.00    +0.050 A 
ATOM     14  C   LIG A   1      -7.826   2.269 125.962  0.00  0.00    +0.162 A 
ATOM     15  C   LIG A   1      -7.668   3.651 126.139  0.00  0.00    +0.162 A 
ATOM     16  C   LIG A   1      -7.892   4.211 127.426  0.00  0.00    +0.053 A 
BRANCH  14  17
ATOM     17  O   LIG A   1      -7.699   1.708 124.714  0.00  0.00    -0.491 OA
ATOM     18  C   LIG A   1      -8.915   1.290 124.091  0.00  0.00    +0.277 C 
ENDBRANCH  14  17
BRANCH  15  19
ATOM     19  O   LIG A   1      -7.366   4.578 125.168  0.00  0.00    -0.491 OA
ATOM     20  C   LIG A   1      -5.997   4.770 124.812  0.00  0.00    +0.277 C 
ENDBRANCH  15  19
ENDBRANCH   5  11
BRANCH   1  22
ATOM     21  C   LIG A   1      -3.841   8.609 129.970  0.00  0.00    +0.277 C 
ATOM     22  O   LIG A   1      -3.984   7.607 130.971  0.00  0.00    -0.491 OA
ENDBRANCH   1  22
BRANCH   2  23
ATOM     23  O   LIG A   1      -3.473   4.909 129.939  0.00  0.00    -0.491 OA
ATOM     24  C   LIG A   1      -3.068   5.029 128.581  0.00  0.00    +0.277 C 
ENDBRANCH   2  23
BRANCH   6  25
ATOM     25  C   LIG A   1      -9.730   3.733 132.063  0.00  0.00    +0.237 C 
BRANCH  25  26
ATOM     26  O   LIG A   1      -8.855   2.596 132.185  0.00  0.00    -0.465 OA
BRANCH  26  27
ATOM     27  C   LIG A   1      -8.072   2.532 133.282  0.00  0.00    +0.304 C 
ATOM     28  C   LIG A   1      -8.254   3.763 134.109  0.00  0.00    +0.136 C 
ATOM     29  O   LIG A   1      -7.394   1.555 133.626  0.00  0.00    -0.251 OA
ENDBRANCH  26  27
ENDBRANCH  25  26
ENDBRANCH   6  25
BRANCH   7  30
ATOM     30  C   LIG A   1     -10.069   6.494 129.248  0.00  0.00    +0.236 C 
BRANCH  30  31
ATOM     31  O   LIG A   1     -10.407   7.891 129.384  0.00  0.00    -0.465 OA
BRANCH  31  32
ATOM     32  C   LIG A   1     -11.143   8.426 128.365  0.00  0.00    +0.304 C 
ATOM     33  C   LIG A   1     -12.452   8.992 128.885  0.00  0.00    +0.136 C 
ATOM     34  O   LIG A   1     -10.813   8.470 127.209  0.00  0.00    -0.251 OA
ENDBRANCH  31  32
ENDBRANCH  30  31
ENDBRANCH   7  30
TORSDOF 11
ENDMDL
MODEL 4
REMARK VINA RESULT:      -7.0      3.886      8.915
REMARK  Name = NuBBE_2464
REMARK  17 active torsions:
REMARK  status: ('A' for Active; 'I' for Inactive)
REMARK    1  A    between atoms: C_1  and  O_2
REMARK    2  A    between atoms: O_2  and  C_3
REMARK    3  A    between atoms: C_4  and  O_5
REMARK    4  A    between atoms: O_5  and  C_6
REMARK    5  A    between atoms: C_9  and  C_11
REMARK    6  A    between atoms: C_14  and  O_15
REMARK    7  A    between atoms: O_15  and  C_16
REMARK    8  A    between atoms: C_17  and  O_18
REMARK    9  A    between atoms: O_18  and  C_19
REMARK   10  A    between atoms: C_21  and  C_23
REMARK   11  A    between atoms: C_23  and  O_24
REMARK   12  A    between atoms: O_24  and  C_25
REMARK   13  A    between atoms: C_25  and  C_26
REMARK   14  A    between atoms: C_28  and  C_30
REMARK   15  A    between atoms: C_30  and  O_31
REMARK   16  A    between atoms: O_31  and  C_32
REMARK   17  A    between atoms: C_32  and  C_33
REMARK                            x       y       z     vdW  Elec       q    Type
REMARK                         _______ _______ _______ _____ _____    ______ ____
ROOT
ATOM      1  C   LIG A   1     -10.753   6.410 131.050  0.00  0.00    +0.162 A 
ATOM      2  C   LIG A   1      -9.744   7.111 130.380  0.00  0.00    +0.162 A 
ATOM      3  C   LIG A   1      -8.412   6.918 130.775  0.00  0.00    +0.053 A 
ATOM      4  C   LIG A   1      -8.065   6.019 131.807  0.00  0.00    -0.033 A 
ATOM      5  C   LIG A   1      -6.597   5.758 132.121  0.00  0.00    +0.056 C 
ATOM      6  C   LIG A   1      -6.361   4.975 133.459  0.00  0.00    +0.045 C 
ATOM      7  C   LIG A   1      -7.458   3.906 133.757  0.00  0.00    +0.038 C 
ATOM      8  C   LIG A   1      -8.833   4.576 133.758  0.00  0.00    +0.042 C 
ATOM      9  C   LIG A   1      -9.089   5.387 132.517  0.00  0.00    -0.040 A 
ATOM     10  C   LIG A   1     -10.417   5.593 132.133  0.00  0.00    +0.053 A 
ENDROOT
BRANCH   5  11
ATOM     11  C   LIG A   1      -5.772   5.286 130.909  0.00  0.00    -0.036 A 
ATOM     12  C   LIG A   1      -4.611   6.003 130.621  0.00  0.00    +0.008 A 
ATOM     13  C   LIG A   1      -3.930   5.810 129.423  0.00  0.00    +0.050 A 
ATOM     14  C   LIG A   1      -4.331   4.855 128.478  0.00  0.00    +0.162 A 
ATOM     15  C   LIG A   1      -5.488   4.106 128.740  0.00  0.00    +0.162 A 
ATOM     16  C   LIG A   1      -6.178   4.313 129.966  0.00  0.00    +0.053 A 
BRANCH  14  17
ATOM     17  O   LIG A   1      -3.594   4.621 127.342  0.00  0.00    -0.491 OA
ATOM     18  C   LIG A   1      -2.463   3.762 127.498  0.00  0.00    +0.277 C 
ENDBRANCH  14  17
BRANCH  15  19
ATOM     19  O   LIG A   1      -6.026   3.115 127.952  0.00  0.00    -0.491 OA
ATOM     20  C   LIG A   1      -7.063   3.463 127.035  0.00  0.00    +0.277 C 
ENDBRANCH  15  19
ENDBRANCH   5  11
BRANCH   1  22
ATOM     21  C   LIG A   1     -12.782   7.544 131.471  0.00  0.00    +0.277 C 
ATOM     22  O   LIG A   1     -12.064   6.588 130.698  0.00  0.00    -0.491 OA
ENDBRANCH   1  22
BRANCH   2  23
ATOM     23  O   LIG A   1      -9.879   7.988 129.331  0.00  0.00    -0.491 OA
ATOM     24  C   LIG A   1     -10.309   7.457 128.083  0.00  0.00    +0.277 C 
ENDBRANCH   2  23
BRANCH   6  25
ATOM     25  C   LIG A   1      -6.293   5.997 134.644  0.00  0.00    +0.237 C 
BRANCH  25  26
ATOM     26  O   LIG A   1      -6.111   5.262 135.869  0.00  0.00    -0.465 OA
BRANCH  26  27
ATOM     27  C   LIG A   1      -6.513   5.856 137.012  0.00  0.00    +0.304 C 
ATOM     28  C   LIG A   1      -7.873   6.447 136.827  0.00  0.00    +0.136 C 
ATOM     29  O   LIG A   1      -5.910   5.819 138.092  0.00  0.00    -0.251 OA
ENDBRANCH  26  27
ENDBRANCH  25  26
ENDBRANCH   6  25
BRANCH   7  30
ATOM     30  C   LIG A   1      -7.450   2.669 132.839  0.00  0.00    +0.236 C 
BRANCH  30  31
ATOM     31  O   LIG A   1      -8.623   1.856 133.053  0.00  0.00    -0.465 OA
BRANCH  31  32
ATOM     32  C   LIG A   1      -9.169   1.296 131.933  0.00  0.00    +0.304 C 
ATOM     33  C   LIG A   1      -9.067   2.243 130.751  0.00  0.00    +0.136 C 
ATOM     34  O   LIG A   1      -9.656   0.198 131.863  0.00  0.00    -0.251 OA
ENDBRANCH  31  32
ENDBRANCH  30  31
ENDBRANCH   7  30
TORSDOF 11
ENDMDL
MODEL 5
REMARK VINA RESULT:      -6.9      3.448      7.120
REMARK  Name = NuBBE_2464
REMARK  17 active torsions:
REMARK  status: ('A' for Active; 'I' for Inactive)
REMARK    1  A    between atoms: C_1  and  O_2
REMARK    2  A    between atoms: O_2  and  C_3
REMARK    3  A    between atoms: C_4  and  O_5
REMARK    4  A    between atoms: O_5  and  C_6
REMARK    5  A    between atoms: C_9  and  C_11
REMARK    6  A    between atoms: C_14  and  O_15
REMARK    7  A    between atoms: O_15  and  C_16
REMARK    8  A    between atoms: C_17  and  O_18
REMARK    9  A    between atoms: O_18  and  C_19
REMARK   10  A    between atoms: C_21  and  C_23
REMARK   11  A    between atoms: C_23  and  O_24
REMARK   12  A    between atoms: O_24  and  C_25
REMARK   13  A    between atoms: C_25  and  C_26
REMARK   14  A    between atoms: C_28  and  C_30
REMARK   15  A    between atoms: C_30  and  O_31
REMARK   16  A    between atoms: O_31  and  C_32
REMARK   17  A    between atoms: C_32  and  C_33
REMARK                            x       y       z     vdW  Elec       q    Type
REMARK                         _______ _______ _______ _____ _____    ______ ____
ROOT
ATOM      1  C   LIG A   1      -9.120  -1.998 125.579  0.00  0.00    +0.162 A 
ATOM      2  C   LIG A   1      -9.185  -0.608 125.426  0.00  0.00    +0.162 A 
ATOM      3  C   LIG A   1      -8.631   0.207 126.424  0.00  0.00    +0.053 A 
ATOM      4  C   LIG A   1      -7.990  -0.338 127.559  0.00  0.00    -0.033 A 
ATOM      5  C   LIG A   1      -7.304   0.587 128.556  0.00  0.00    +0.056 C 
ATOM      6  C   LIG A   1      -6.890  -0.115 129.896  0.00  0.00    +0.045 C 
ATOM      7  C   LIG A   1      -6.428  -1.593 129.708  0.00  0.00    +0.038 C 
ATOM      8  C   LIG A   1      -7.531  -2.384 129.001  0.00  0.00    +0.042 C 
ATOM      9  C   LIG A   1      -8.003  -1.724 127.734  0.00  0.00    -0.040 A 
ATOM     10  C   LIG A   1      -8.569  -2.534 126.747  0.00  0.00    +0.053 A 
ENDROOT
BRANCH   5  11
ATOM     11  C   LIG A   1      -6.246   1.513 127.925  0.00  0.00    -0.036 A 
ATOM     12  C   LIG A   1      -5.621   1.055 126.766  0.00  0.00    +0.008 A 
ATOM     13  C   LIG A   1      -4.497   1.699 126.258  0.00  0.00    +0.050 A 
ATOM     14  C   LIG A   1      -3.973   2.863 126.838  0.00  0.00    +0.162 A 
ATOM     15  C   LIG A   1      -4.586   3.360 127.999  0.00  0.00    +0.162 A 
ATOM     16  C   LIG A   1      -5.731   2.693 128.511  0.00  0.00    +0.053 A 
BRANCH  14  17
ATOM     17  O   LIG A   1      -2.916   3.531 126.269  0.00  0.00    -0.491 OA
ATOM     18  C   LIG A   1      -1.616   3.034 126.593  0.00  0.00    +0.277 C 
ENDBRANCH  14  17
BRANCH  15  19
ATOM     19  O   LIG A   1      -4.235   4.493 128.696  0.00  0.00    -0.491 OA
ATOM     20  C   LIG A   1      -3.381   4.354 129.832  0.00  0.00    +0.277 C 
ENDBRANCH  15  19
ENDBRANCH   5  11
BRANCH   1  22
ATOM     21  C   LIG A   1      -8.823  -3.116 123.519  0.00  0.00    +0.277 C 
ATOM     22  O   LIG A   1      -9.664  -2.820 124.629  0.00  0.00    -0.491 OA
ENDBRANCH   1  22
BRANCH   2  23
ATOM     23  O   LIG A   1      -9.724   0.101 124.381  0.00  0.00    -0.491 OA
ATOM     24  C   LIG A   1      -9.611   1.519 124.423  0.00  0.00    +0.277 C 
ENDBRANCH   2  23
BRANCH   6  25
ATOM     25  C   LIG A   1      -8.099  -0.069 130.890  0.00  0.00    +0.237 C 
BRANCH  25  26
ATOM     26  O   LIG A   1      -8.661   1.257 130.864  0.00  0.00    -0.465 OA
BRANCH  26  27
ATOM     27  C   LIG A   1      -8.530   2.007 131.977  0.00  0.00    +0.304 C 
ATOM     28  C   LIG A   1      -7.439   3.011 131.787  0.00  0.00    +0.136 C 
ATOM     29  O   LIG A   1      -9.273   1.963 132.966  0.00  0.00    -0.251 OA
ENDBRANCH  26  27
ENDBRANCH  25  26
ENDBRANCH   6  25
BRANCH   7  30
ATOM     30  C   LIG A   1      -5.074  -1.783 128.999  0.00  0.00    +0.236 C 
BRANCH  30  31
ATOM     31  O   LIG A   1      -4.711  -3.178 128.937  0.00  0.00    -0.465 OA
BRANCH  31  32
ATOM     32  C   LIG A   1      -4.243  -3.723 130.099  0.00  0.00    +0.304 C 
ATOM     33  C   LIG A   1      -5.231  -4.729 130.660  0.00  0.00    +0.136 C 
ATOM     34  O   LIG A   1      -3.187  -3.468 130.618  0.00  0.00    -0.251 OA
ENDBRANCH  31  32
ENDBRANCH  30  31
ENDBRANCH   7  30
TORSDOF 11
ENDMDL
MODEL 6
REMARK VINA RESULT:      -6.8      3.368      8.093
REMARK  Name = NuBBE_2464
REMARK  17 active torsions:
REMARK  status: ('A' for Active; 'I' for Inactive)
REMARK    1  A    between atoms: C_1  and  O_2
REMARK    2  A    between atoms: O_2  and  C_3
REMARK    3  A    between atoms: C_4  and  O_5
REMARK    4  A    between atoms: O_5  and  C_6
REMARK    5  A    between atoms: C_9  and  C_11
REMARK    6  A    between atoms: C_14  and  O_15
REMARK    7  A    between atoms: O_15  and  C_16
REMARK    8  A    between atoms: C_17  and  O_18
REMARK    9  A    between atoms: O_18  and  C_19
REMARK   10  A    between atoms: C_21  and  C_23
REMARK   11  A    between atoms: C_23  and  O_24
REMARK   12  A    between atoms: O_24  and  C_25
REMARK   13  A    between atoms: C_25  and  C_26
REMARK   14  A    between atoms: C_28  and  C_30
REMARK   15  A    between atoms: C_30  and  O_31
REMARK   16  A    between atoms: O_31  and  C_32
REMARK   17  A    between atoms: C_32  and  C_33
REMARK                            x       y       z     vdW  Elec       q    Type
REMARK                         _______ _______ _______ _____ _____    ______ ____
ROOT
ATOM      1  C   LIG A   1     -11.632   6.605 130.621  0.00  0.00    +0.162 A 
ATOM      2  C   LIG A   1     -11.036   6.393 129.371  0.00  0.00    +0.162 A 
ATOM      3  C   LIG A   1      -9.708   5.946 129.325  0.00  0.00    +0.053 A 
ATOM      4  C   LIG A   1      -8.971   5.680 130.500  0.00  0.00    -0.033 A 
ATOM      5  C   LIG A   1      -7.571   5.087 130.396  0.00  0.00    +0.056 C 
ATOM      6  C   LIG A   1      -6.767   5.113 131.742  0.00  0.00    +0.045 C 
ATOM      7  C   LIG A   1      -7.655   4.882 133.004  0.00  0.00    +0.038 C 
ATOM      8  C   LIG A   1      -8.783   5.917 133.027  0.00  0.00    +0.042 C 
ATOM      9  C   LIG A   1      -9.553   5.971 131.736  0.00  0.00    -0.040 A 
ATOM     10  C   LIG A   1     -10.872   6.432 131.781  0.00  0.00    +0.053 A 
ENDROOT
BRANCH   5  11
ATOM     11  C   LIG A   1      -7.507   3.771 129.598  0.00  0.00    -0.036 A 
ATOM     12  C   LIG A   1      -8.532   2.852 129.818  0.00  0.00    +0.008 A 
ATOM     13  C   LIG A   1      -8.442   1.551 129.332  0.00  0.00    +0.050 A 
ATOM     14  C   LIG A   1      -7.360   1.114 128.553  0.00  0.00    +0.162 A 
ATOM     15  C   LIG A   1      -6.317   2.017 128.301  0.00  0.00    +0.162 A 
ATOM     16  C   LIG A   1      -6.417   3.343 128.803  0.00  0.00    +0.053 A 
BRANCH  14  17
ATOM     17  O   LIG A   1      -7.334  -0.148 128.012  0.00  0.00    -0.491 OA
ATOM     18  C   LIG A   1      -7.270  -1.227 128.946  0.00  0.00    +0.277 C 
ENDBRANCH  14  17
BRANCH  15  19
ATOM     19  O   LIG A   1      -5.190   1.786 127.546  0.00  0.00    -0.491 OA
ATOM     20  C   LIG A   1      -5.131   2.331 126.228  0.00  0.00    +0.277 C 
ENDBRANCH  15  19
ENDBRANCH   5  11
BRANCH   1  22
ATOM     21  C   LIG A   1     -13.079   8.385 131.182  0.00  0.00    +0.277 C 
ATOM     22  O   LIG A   1     -12.923   7.055 130.699  0.00  0.00    -0.491 OA
ENDBRANCH   1  22
BRANCH   2  23
ATOM     23  O   LIG A   1     -11.601   6.552 128.130  0.00  0.00    -0.491 OA
ATOM     24  C   LIG A   1     -11.392   7.794 127.468  0.00  0.00    +0.277 C 
ENDBRANCH   2  23
BRANCH   6  25
ATOM     25  C   LIG A   1      -6.028   6.488 131.869  0.00  0.00    +0.237 C 
BRANCH  25  26
ATOM     26  O   LIG A   1      -5.767   6.989 130.545  0.00  0.00    -0.465 OA
BRANCH  26  27
ATOM     27  C   LIG A   1      -4.561   7.551 130.321  0.00  0.00    +0.304 C 
ATOM     28  C   LIG A   1      -3.696   7.393 131.529  0.00  0.00    +0.136 C 
ATOM     29  O   LIG A   1      -4.175   8.020 129.243  0.00  0.00    -0.251 OA
ENDBRANCH  26  27
ENDBRANCH  25  26
ENDBRANCH   6  25
BRANCH   7  30
ATOM     30  C   LIG A   1      -8.214   3.457 133.174  0.00  0.00    +0.236 C 
BRANCH  30  31
ATOM     31  O   LIG A   1      -7.192   2.550 133.638  0.00  0.00    -0.465 OA
BRANCH  31  32
ATOM     32  C   LIG A   1      -7.046   1.400 132.917  0.00  0.00    +0.304 C 
ATOM     33  C   LIG A   1      -5.817   1.471 132.031  0.00  0.00    +0.136 C 
ATOM     34  O   LIG A   1      -7.771   0.441 132.972  0.00  0.00    -0.251 OA
ENDBRANCH  31  32
ENDBRANCH  30  31
ENDBRANCH   7  30
TORSDOF 11
ENDMDL
MODEL 7
REMARK VINA RESULT:      -6.8      2.088      6.078
REMARK  Name = NuBBE_2464
REMARK  17 active torsions:
REMARK  status: ('A' for Active; 'I' for Inactive)
REMARK    1  A    between atoms: C_1  and  O_2
REMARK    2  A    between atoms: O_2  and  C_3
REMARK    3  A    between atoms: C_4  and  O_5
REMARK    4  A    between atoms: O_5  and  C_6
REMARK    5  A    between atoms: C_9  and  C_11
REMARK    6  A    between atoms: C_14  and  O_15
REMARK    7  A    between atoms: O_15  and  C_16
REMARK    8  A    between atoms: C_17  and  O_18
REMARK    9  A    between atoms: O_18  and  C_19
REMARK   10  A    between atoms: C_21  and  C_23
REMARK   11  A    between atoms: C_23  and  O_24
REMARK   12  A    between atoms: O_24  and  C_25
REMARK   13  A    between atoms: C_25  and  C_26
REMARK   14  A    between atoms: C_28  and  C_30
REMARK   15  A    between atoms: C_30  and  O_31
REMARK   16  A    between atoms: O_31  and  C_32
REMARK   17  A    between atoms: C_32  and  C_33
REMARK                            x       y       z     vdW  Elec       q    Type
REMARK                         _______ _______ _______ _____ _____    ______ ____
ROOT
ATOM      1  C   LIG A   1      -6.249   3.637 124.324  0.00  0.00    +0.162 A 
ATOM      2  C   LIG A   1      -7.514   3.296 124.819  0.00  0.00    +0.162 A 
ATOM      3  C   LIG A   1      -7.610   2.762 126.112  0.00  0.00    +0.053 A 
ATOM      4  C   LIG A   1      -6.473   2.587 126.932  0.00  0.00    -0.033 A 
ATOM      5  C   LIG A   1      -6.643   2.112 128.369  0.00  0.00    +0.056 C 
ATOM      6  C   LIG A   1      -5.303   1.688 129.063  0.00  0.00    +0.045 C 
ATOM      7  C   LIG A   1      -4.078   2.553 128.633  0.00  0.00    +0.038 C 
ATOM      8  C   LIG A   1      -3.935   2.511 127.110  0.00  0.00    +0.042 C 
ATOM      9  C   LIG A   1      -5.212   2.858 126.394  0.00  0.00    -0.040 A 
ATOM     10  C   LIG A   1      -5.116   3.374 125.099  0.00  0.00    +0.053 A 
ENDROOT
BRANCH   5  11
ATOM     11  C   LIG A   1      -7.590   2.989 129.210  0.00  0.00    -0.036 A 
ATOM     12  C   LIG A   1      -8.770   2.393 129.655  0.00  0.00    +0.008 A 
ATOM     13  C   LIG A   1      -9.791   3.157 130.212  0.00  0.00    +0.050 A 
ATOM     14  C   LIG A   1      -9.669   4.540 130.412  0.00  0.00    +0.162 A 
ATOM     15  C   LIG A   1      -8.489   5.170 129.989  0.00  0.00    +0.162 A 
ATOM     16  C   LIG A   1      -7.454   4.382 129.418  0.00  0.00    +0.053 A 
BRANCH  14  17
ATOM     17  O   LIG A   1     -10.654   5.259 131.044  0.00  0.00    -0.491 OA
ATOM     18  C   LIG A   1     -11.683   5.782 130.201  0.00  0.00    +0.277 C 
ENDBRANCH  14  17
BRANCH  15  19
ATOM     19  O   LIG A   1      -8.175   6.504 130.116  0.00  0.00    -0.491 OA
ATOM     20  C   LIG A   1      -7.248   6.890 131.131  0.00  0.00    +0.277 C 
ENDBRANCH  15  19
ENDBRANCH   5  11
BRANCH   1  22
ATOM     21  C   LIG A   1      -6.051   3.182 122.015  0.00  0.00    +0.277 C 
ATOM     22  O   LIG A   1      -6.120   4.146 123.060  0.00  0.00    -0.491 OA
ENDBRANCH   1  22
BRANCH   2  23
ATOM     23  O   LIG A   1      -8.729   3.433 124.195  0.00  0.00    -0.491 OA
ATOM     24  C   LIG A   1      -9.295   2.273 123.597  0.00  0.00    +0.277 C 
ENDBRANCH   2  23
BRANCH   6  25
ATOM     25  C   LIG A   1      -5.015   0.182 128.742  0.00  0.00    +0.237 C 
BRANCH  25  26
ATOM     26  O   LIG A   1      -6.159  -0.365 128.060  0.00  0.00    -0.465 OA
BRANCH  26  27
ATOM     27  C   LIG A   1      -5.931  -1.061 126.927  0.00  0.00    +0.304 C 
ATOM     28  C   LIG A   1      -6.789  -2.283 126.899  0.00  0.00    +0.136 C 
ATOM     29  O   LIG A   1      -5.211  -0.692 125.989  0.00  0.00    -0.251 OA
ENDBRANCH  26  27
ENDBRANCH  25  26
ENDBRANCH   6  25
BRANCH   7  30
ATOM     30  C   LIG A   1      -4.075   4.006 129.146  0.00  0.00    +0.236 C 
BRANCH  30  31
ATOM     31  O   LIG A   1      -3.012   4.769 128.539  0.00  0.00    -0.465 OA
BRANCH  31  32
ATOM     32  C   LIG A   1      -3.375   5.972 128.002  0.00  0.00    +0.304 C 
ATOM     33  C   LIG A   1      -2.269   6.996 128.174  0.00  0.00    +0.136 C 
ATOM     34  O   LIG A   1      -4.418   6.206 127.448  0.00  0.00    -0.251 OA
ENDBRANCH  31  32
ENDBRANCH  30  31
ENDBRANCH   7  30
TORSDOF 11
ENDMDL
MODEL 8
REMARK VINA RESULT:      -6.7      3.258      5.084
REMARK  Name = NuBBE_2464
REMARK  17 active torsions:
REMARK  status: ('A' for Active; 'I' for Inactive)
REMARK    1  A    between atoms: C_1  and  O_2
REMARK    2  A    between atoms: O_2  and  C_3
REMARK    3  A    between atoms: C_4  and  O_5
REMARK    4  A    between atoms: O_5  and  C_6
REMARK    5  A    between atoms: C_9  and  C_11
REMARK    6  A    between atoms: C_14  and  O_15
REMARK    7  A    between atoms: O_15  and  C_16
REMARK    8  A    between atoms: C_17  and  O_18
REMARK    9  A    between atoms: O_18  and  C_19
REMARK   10  A    between atoms: C_21  and  C_23
REMARK   11  A    between atoms: C_23  and  O_24
REMARK   12  A    between atoms: O_24  and  C_25
REMARK   13  A    between atoms: C_25  and  C_26
REMARK   14  A    between atoms: C_28  and  C_30
REMARK   15  A    between atoms: C_30  and  O_31
REMARK   16  A    between atoms: O_31  and  C_32
REMARK   17  A    between atoms: C_32  and  C_33
REMARK                            x       y       z     vdW  Elec       q    Type
REMARK                         _______ _______ _______ _____ _____    ______ ____
ROOT
ATOM      1  C   LIG A   1      -7.223  -1.421 123.731  0.00  0.00    +0.162 A 
ATOM      2  C   LIG A   1      -6.237  -2.064 124.490  0.00  0.00    +0.162 A 
ATOM      3  C   LIG A   1      -5.628  -1.359 125.539  0.00  0.00    +0.053 A 
ATOM      4  C   LIG A   1      -6.000  -0.036 125.862  0.00  0.00    -0.033 A 
ATOM      5  C   LIG A   1      -5.390   0.646 127.080  0.00  0.00    +0.056 C 
ATOM      6  C   LIG A   1      -5.667   2.187 127.154  0.00  0.00    +0.045 C 
ATOM      7  C   LIG A   1      -7.074   2.594 126.615  0.00  0.00    +0.038 C 
ATOM      8  C   LIG A   1      -7.236   2.083 125.182  0.00  0.00    +0.042 C 
ATOM      9  C   LIG A   1      -6.928   0.617 125.046  0.00  0.00    -0.040 A 
ATOM     10  C   LIG A   1      -7.524  -0.081 123.992  0.00  0.00    +0.053 A 
ENDROOT
BRANCH   5  11
ATOM     11  C   LIG A   1      -5.578  -0.137 128.394  0.00  0.00    -0.036 A 
ATOM     12  C   LIG A   1      -4.528  -0.088 129.310  0.00  0.00    +0.008 A 
ATOM     13  C   LIG A   1      -4.497  -0.941 130.409  0.00  0.00    +0.050 A 
ATOM     14  C   LIG A   1      -5.535  -1.843 130.687  0.00  0.00    +0.162 A 
ATOM     15  C   LIG A   1      -6.615  -1.909 129.794  0.00  0.00    +0.162 A 
ATOM     16  C   LIG A   1      -6.634  -1.035 128.673  0.00  0.00    +0.053 A 
BRANCH  14  17
ATOM     17  O   LIG A   1      -5.525  -2.613 131.824  0.00  0.00    -0.491 OA
ATOM     18  C   LIG A   1      -4.319  -2.581 132.590  0.00  0.00    +0.277 C 
ENDBRANCH  14  17
BRANCH  15  19
ATOM     19  O   LIG A   1      -7.730  -2.707 129.904  0.00  0.00    -0.491 OA
ATOM     20  C   LIG A   1      -8.270  -3.289 128.718  0.00  0.00    +0.277 C 
ENDBRANCH  15  19
ENDBRANCH   5  11
BRANCH   1  22
ATOM     21  C   LIG A   1      -9.003  -2.805 123.028  0.00  0.00    +0.277 C 
ATOM     22  O   LIG A   1      -7.827  -2.077 122.692  0.00  0.00    -0.491 OA
ENDBRANCH   1  22
BRANCH   2  23
ATOM     23  O   LIG A   1      -5.775  -3.350 124.358  0.00  0.00    -0.491 OA
ATOM     24  C   LIG A   1      -4.588  -3.546 123.598  0.00  0.00    +0.277 C 
ENDBRANCH   2  23
BRANCH   6  25
ATOM     25  C   LIG A   1      -4.561   2.944 126.345  0.00  0.00    +0.237 C 
BRANCH  25  26
ATOM     26  O   LIG A   1      -3.303   2.275 126.556  0.00  0.00    -0.465 OA
BRANCH  26  27
ATOM     27  C   LIG A   1      -2.222   3.048 126.786  0.00  0.00    +0.304 C 
ATOM     28  C   LIG A   1      -2.638   4.323 127.443  0.00  0.00    +0.136 C 
ATOM     29  O   LIG A   1      -1.045   2.712 126.598  0.00  0.00    -0.251 OA
ENDBRANCH  26  27
ENDBRANCH  25  26
ENDBRANCH   6  25
BRANCH   7  30
ATOM     30  C   LIG A   1      -8.270   2.170 127.488  0.00  0.00    +0.236 C 
BRANCH  30  31
ATOM     31  O   LIG A   1      -8.712   3.258 128.328  0.00  0.00    -0.465 OA
BRANCH  31  32
ATOM     32  C   LIG A   1      -9.082   2.915 129.598  0.00  0.00    +0.304 C 
ATOM     33  C   LIG A   1      -8.036   2.025 130.243  0.00  0.00    +0.136 C 
ATOM     34  O   LIG A   1     -10.086   3.272 130.156  0.00  0.00    -0.251 OA
ENDBRANCH  31  32
ENDBRANCH  30  31
ENDBRANCH   7  30
TORSDOF 11
ENDMDL
MODEL 9
REMARK VINA RESULT:      -6.7      3.192      7.557
REMARK  Name = NuBBE_2464
REMARK  17 active torsions:
REMARK  status: ('A' for Active; 'I' for Inactive)
REMARK    1  A    between atoms: C_1  and  O_2
REMARK    2  A    between atoms: O_2  and  C_3
REMARK    3  A    between atoms: C_4  and  O_5
REMARK    4  A    between atoms: O_5  and  C_6
REMARK    5  A    between atoms: C_9  and  C_11
REMARK    6  A    between atoms: C_14  and  O_15
REMARK    7  A    between atoms: O_15  and  C_16
REMARK    8  A    between atoms: C_17  and  O_18
REMARK    9  A    between atoms: O_18  and  C_19
REMARK   10  A    between atoms: C_21  and  C_23
REMARK   11  A    between atoms: C_23  and  O_24
REMARK   12  A    between atoms: O_24  and  C_25
REMARK   13  A    between atoms: C_25  and  C_26
REMARK   14  A    between atoms: C_28  and  C_30
REMARK   15  A    between atoms: C_30  and  O_31
REMARK   16  A    between atoms: O_31  and  C_32
REMARK   17  A    between atoms: C_32  and  C_33
REMARK                            x       y       z     vdW  Elec       q    Type
REMARK                         _______ _______ _______ _____ _____    ______ ____
ROOT
ATOM      1  C   LIG A   1      -8.969   2.146 131.383  0.00  0.00    +0.162 A 
ATOM      2  C   LIG A   1      -9.396   2.757 130.197  0.00  0.00    +0.162 A 
ATOM      3  C   LIG A   1      -8.611   2.610 129.044  0.00  0.00    +0.053 A 
ATOM      4  C   LIG A   1      -7.424   1.845 129.043  0.00  0.00    -0.033 A 
ATOM      5  C   LIG A   1      -6.669   1.622 127.739  0.00  0.00    +0.056 C 
ATOM      6  C   LIG A   1      -5.238   1.011 127.927  0.00  0.00    +0.045 C 
ATOM      7  C   LIG A   1      -5.147  -0.011 129.103  0.00  0.00    +0.038 C 
ATOM      8  C   LIG A   1      -5.624   0.658 130.394  0.00  0.00    +0.042 C 
ATOM      9  C   LIG A   1      -6.972   1.309 130.252  0.00  0.00    -0.040 A 
ATOM     10  C   LIG A   1      -7.746   1.469 131.404  0.00  0.00    +0.053 A 
ENDROOT
BRANCH   5  11
ATOM     11  C   LIG A   1      -7.525   1.002 126.618  0.00  0.00    -0.036 A 
ATOM     12  C   LIG A   1      -8.176  -0.196 126.915  0.00  0.00    +0.008 A 
ATOM     13  C   LIG A   1      -8.774  -0.952 125.911  0.00  0.00    +0.050 A 
ATOM     14  C   LIG A   1      -8.809  -0.529 124.574  0.00  0.00    +0.162 A 
ATOM     15  C   LIG A   1      -8.176   0.678 124.242  0.00  0.00    +0.162 A 
ATOM     16  C   LIG A   1      -7.566   1.441 125.274  0.00  0.00    +0.053 A 
BRANCH  14  17
ATOM     17  O   LIG A   1      -9.481  -1.249 123.616  0.00  0.00    -0.491 OA
ATOM     18  C   LIG A   1      -9.103  -2.621 123.487  0.00  0.00    +0.277 C 
ENDBRANCH  14  17
BRANCH  15  19
ATOM     19  O   LIG A   1      -8.121   1.266 123.000  0.00  0.00    -0.491 OA
ATOM     20  C   LIG A   1      -8.967   2.387 122.741  0.00  0.00    +0.277 C 
ENDBRANCH  15  19
ENDBRANCH   5  11
BRANCH   1  22
ATOM     21  C   LIG A   1      -9.207   3.229 133.468  0.00  0.00    +0.277 C 
ATOM     22  O   LIG A   1      -9.705   2.282 132.529  0.00  0.00    -0.491 OA
ENDBRANCH   1  22
BRANCH   2  23
ATOM     23  O   LIG A   1     -10.534   3.497 129.991  0.00  0.00    -0.491 OA
ATOM     24  C   LIG A   1     -10.477   4.886 130.294  0.00  0.00    +0.277 C 
ENDBRANCH   2  23
BRANCH   6  25
ATOM     25  C   LIG A   1      -4.213   2.171 128.164  0.00  0.00    +0.237 C 
BRANCH  25  26
ATOM     26  O   LIG A   1      -3.748   2.637 126.884  0.00  0.00    -0.465 OA
BRANCH  26  27
ATOM     27  C   LIG A   1      -2.511   3.173 126.831  0.00  0.00    +0.304 C 
ATOM     28  C   LIG A   1      -2.505   4.504 127.511  0.00  0.00    +0.136 C 
ATOM     29  O   LIG A   1      -1.500   2.606 126.397  0.00  0.00    -0.251 OA
ENDBRANCH  26  27
ENDBRANCH  25  26
ENDBRANCH   6  25
BRANCH   7  30
ATOM     30  C   LIG A   1      -5.870  -1.352 128.878  0.00  0.00    +0.236 C 
BRANCH  30  31
ATOM     31  O   LIG A   1      -5.851  -2.160 130.074  0.00  0.00    -0.465 OA
BRANCH  31  32
ATOM     32  C   LIG A   1      -7.050  -2.694 130.450  0.00  0.00    +0.304 C 
ATOM     33  C   LIG A   1      -7.934  -2.939 129.240  0.00  0.00    +0.136 C 
ATOM     34  O   LIG A   1      -7.378  -2.960 131.576  0.00  0.00    -0.251 OA
ENDBRANCH  31  32
ENDBRANCH  30  31
ENDBRANCH   7  30
TORSDOF 11
ENDMDL
