MODEL 1
REMARK VINA RESULT:      -8.3      0.000      0.000
REMARK  Name = NuBBE_1850
REMARK  6 active torsions:
REMARK  status: ('A' for Active; 'I' for Inactive)
REMARK    1  A    between atoms: C_1  and  C_2
REMARK    2  A    between atoms: C_6  and  C_23
REMARK    3  A    between atoms: C_6  and  O_26
REMARK    4  A    between atoms: C_12  and  C_14
REMARK    5  A    between atoms: C_23  and  C_24
REMARK    6  A    between atoms: O_26  and  C_27
REMARK                            x       y       z     vdW  Elec       q    Type
REMARK                         _______ _______ _______ _____ _____    ______ ____
ROOT
ATOM      1  C   LIG A   1      -7.835  -2.036 122.543  0.00  0.00    +0.016 C 
ATOM      2  C   LIG A   1      -7.673  -1.545 123.980  0.00  0.00    +0.065 C 
ATOM      3  C   LIG A   1      -7.793  -0.061 124.050  0.00  0.00    +0.000 C 
ATOM      4  C   LIG A   1      -6.941   0.876 123.622  0.00  0.00    +0.023 C 
ATOM      5  C   LIG A   1      -7.209   2.353 123.829  0.00  0.00    +0.153 C 
ATOM      6  C   LIG A   1      -8.534   2.640 124.627  0.00  0.00    +0.195 C 
ATOM      7  O   LIG A   1      -8.884   3.771 124.976  0.00  0.00    -0.289 OA
ATOM      8  C   LIG A   1      -9.418   1.501 124.995  0.00  0.00    +0.095 C 
ATOM      9  C   LIG A   1      -9.028   0.257 124.689  0.00  0.00    +0.128 C 
ATOM     10  O   LIG A   1      -9.745  -0.868 125.028  0.00  0.00    -0.483 OA
ATOM     11  C   LIG A   1      -8.836  -1.993 124.885  0.00  0.00    +0.211 C 
ENDROOT
BRANCH  11  12
ATOM     12  C   LIG A   1      -8.392  -2.495 126.256  0.00  0.00    -0.003 A 
ATOM     13  C   LIG A   1      -7.220  -2.010 126.863  0.00  0.00    +0.056 A 
ATOM     14  C   LIG A   1      -6.880  -2.476 128.113  0.00  0.00    +0.167 A 
ATOM     15  C   LIG A   1      -7.647  -3.401 128.774  0.00  0.00    +0.166 A 
ATOM     16  C   LIG A   1      -8.794  -3.920 128.215  0.00  0.00    +0.050 A 
ATOM     17  C   LIG A   1      -9.166  -3.464 126.942  0.00  0.00    +0.011 A 
ATOM     18  O   LIG A   1      -7.137  -3.716 129.995  0.00  0.00    -0.453 OA
ATOM     19  C   LIG A   1      -5.963  -2.876 130.024  0.00  0.00    +0.466 C 
ATOM     20  O   LIG A   1      -5.789  -2.093 128.827  0.00  0.00    -0.453 OA
ENDBRANCH  11  12
BRANCH   5  21
ATOM     21  O   LIG A   1      -6.061   2.939 124.465  0.00  0.00    -0.364 OA
ATOM     22  C   LIG A   1      -5.705   2.357 125.717  0.00  0.00    +0.195 C 
ENDBRANCH   5  21
BRANCH   5  23
ATOM     23  C   LIG A   1      -7.405   3.039 122.444  0.00  0.00    +0.074 C 
BRANCH  23  24
ATOM     24  C   LIG A   1      -6.175   3.724 121.888  0.00  0.00    -0.031 C 
ATOM     25  C   LIG A   1      -5.431   3.245 120.884  0.00  0.00    +0.004 C 
ENDBRANCH  23  24
ENDBRANCH   5  23
TORSDOF 4
ENDMDL
MODEL 2
REMARK VINA RESULT:      -8.2      2.333      7.671
REMARK  Name = NuBBE_1850
REMARK  6 active torsions:
REMARK  status: ('A' for Active; 'I' for Inactive)
REMARK    1  A    between atoms: C_1  and  C_2
REMARK    2  A    between atoms: C_6  and  C_23
REMARK    3  A    between atoms: C_6  and  O_26
REMARK    4  A    between atoms: C_12  and  C_14
REMARK    5  A    between atoms: C_23  and  C_24
REMARK    6  A    between atoms: O_26  and  C_27
REMARK                            x       y       z     vdW  Elec       q    Type
REMARK                         _______ _______ _______ _____ _____    ______ ____
ROOT
ATOM      1  C   LIG A   1      -7.914   1.842 126.415  0.00  0.00    +0.016 C 
ATOM      2  C   LIG A   1      -7.557   1.566 124.955  0.00  0.00    +0.065 C 
ATOM      3  C   LIG A   1      -7.875   0.157 124.588  0.00  0.00    +0.000 C 
ATOM      4  C   LIG A   1      -7.264  -0.971 124.963  0.00  0.00    +0.023 C 
ATOM      5  C   LIG A   1      -7.699  -2.326 124.441  0.00  0.00    +0.153 C 
ATOM      6  C   LIG A   1      -8.877  -2.244 123.403  0.00  0.00    +0.195 C 
ATOM      7  O   LIG A   1      -9.314  -3.225 122.795  0.00  0.00    -0.289 OA
ATOM      8  C   LIG A   1      -9.501  -0.924 123.118  0.00  0.00    +0.095 C 
ATOM      9  C   LIG A   1      -9.000   0.167 123.712  0.00  0.00    +0.128 C 
ATOM     10  O   LIG A   1      -9.470   1.440 123.481  0.00  0.00    -0.483 OA
ATOM     11  C   LIG A   1      -8.451   2.351 123.976  0.00  0.00    +0.211 C 
ENDROOT
BRANCH  11  12
ATOM     12  C   LIG A   1      -7.689   2.979 122.814  0.00  0.00    -0.003 A 
ATOM     13  C   LIG A   1      -8.338   3.304 121.609  0.00  0.00    +0.056 A 
ATOM     14  C   LIG A   1      -7.608   3.894 120.602  0.00  0.00    +0.167 A 
ATOM     15  C   LIG A   1      -6.270   4.165 120.740  0.00  0.00    +0.166 A 
ATOM     16  C   LIG A   1      -5.585   3.849 121.893  0.00  0.00    +0.050 A 
ATOM     17  C   LIG A   1      -6.302   3.247 122.937  0.00  0.00    +0.011 A 
ATOM     18  O   LIG A   1      -5.747   4.757 119.634  0.00  0.00    -0.453 OA
ATOM     19  C   LIG A   1      -6.914   4.830 118.787  0.00  0.00    +0.466 C 
ATOM     20  O   LIG A   1      -8.098   4.275 119.393  0.00  0.00    -0.453 OA
ENDBRANCH  11  12
BRANCH   5  21
ATOM     21  O   LIG A   1      -6.549  -2.995 123.898  0.00  0.00    -0.364 OA
ATOM     22  C   LIG A   1      -5.308  -2.324 124.108  0.00  0.00    +0.195 C 
ENDBRANCH   5  21
BRANCH   5  23
ATOM     23  C   LIG A   1      -8.250  -3.179 125.623  0.00  0.00    +0.074 C 
BRANCH  23  24
ATOM     24  C   LIG A   1      -7.786  -2.744 126.997  0.00  0.00    -0.031 C 
ATOM     25  C   LIG A   1      -8.388  -3.088 128.142  0.00  0.00    +0.004 C 
ENDBRANCH  23  24
ENDBRANCH   5  23
TORSDOF 4
ENDMDL
MODEL 3
REMARK VINA RESULT:      -7.9      3.229      5.570
REMARK  Name = NuBBE_1850
REMARK  6 active torsions:
REMARK  status: ('A' for Active; 'I' for Inactive)
REMARK    1  A    between atoms: C_1  and  C_2
REMARK    2  A    between atoms: C_6  and  C_23
REMARK    3  A    between atoms: C_6  and  O_26
REMARK    4  A    between atoms: C_12  and  C_14
REMARK    5  A    between atoms: C_23  and  C_24
REMARK    6  A    between atoms: O_26  and  C_27
REMARK                            x       y       z     vdW  Elec       q    Type
REMARK                         _______ _______ _______ _____ _____    ______ ____
ROOT
ATOM      1  C   LIG A   1      -4.903  -2.681 128.704  0.00  0.00    +0.016 C 
ATOM      2  C   LIG A   1      -6.098  -1.761 128.462  0.00  0.00    +0.065 C 
ATOM      3  C   LIG A   1      -6.805  -2.129 127.203  0.00  0.00    +0.000 C 
ATOM      4  C   LIG A   1      -6.411  -1.967 125.936  0.00  0.00    +0.023 C 
ATOM      5  C   LIG A   1      -7.296  -2.358 124.769  0.00  0.00    +0.153 C 
ATOM      6  C   LIG A   1      -8.703  -2.904 125.210  0.00  0.00    +0.195 C 
ATOM      7  O   LIG A   1      -9.600  -3.191 124.412  0.00  0.00    -0.289 OA
ATOM      8  C   LIG A   1      -8.988  -3.083 126.659  0.00  0.00    +0.095 C 
ATOM      9  C   LIG A   1      -8.058  -2.715 127.550  0.00  0.00    +0.128 C 
ATOM     10  O   LIG A   1      -8.240  -2.791 128.912  0.00  0.00    -0.483 OA
ATOM     11  C   LIG A   1      -7.209  -1.959 129.511  0.00  0.00    +0.211 C 
ENDROOT
BRANCH  11  12
ATOM     12  C   LIG A   1      -7.811  -0.655 130.025  0.00  0.00    -0.003 A 
ATOM     13  C   LIG A   1      -7.809   0.508 129.235  0.00  0.00    +0.056 A 
ATOM     14  C   LIG A   1      -8.390   1.651 129.737  0.00  0.00    +0.167 A 
ATOM     15  C   LIG A   1      -8.961   1.685 130.983  0.00  0.00    +0.166 A 
ATOM     16  C   LIG A   1      -8.973   0.578 131.803  0.00  0.00    +0.050 A 
ATOM     17  C   LIG A   1      -8.389  -0.601 131.319  0.00  0.00    +0.011 A 
ATOM     18  O   LIG A   1      -9.485   2.905 131.277  0.00  0.00    -0.453 OA
ATOM     19  C   LIG A   1      -9.178   3.631 130.067  0.00  0.00    +0.466 C 
ATOM     20  O   LIG A   1      -8.474   2.842 129.088  0.00  0.00    -0.453 OA
ENDBRANCH  11  12
BRANCH   5  21
ATOM     21  O   LIG A   1      -7.410  -1.229 123.887  0.00  0.00    -0.364 OA
ATOM     22  C   LIG A   1      -7.984  -0.063 124.474  0.00  0.00    +0.195 C 
ENDBRANCH   5  21
BRANCH   5  23
ATOM     23  C   LIG A   1      -6.626  -3.526 123.985  0.00  0.00    +0.074 C 
BRANCH  23  24
ATOM     24  C   LIG A   1      -5.113  -3.510 123.981  0.00  0.00    -0.031 C 
ATOM     25  C   LIG A   1      -4.346  -4.554 123.644  0.00  0.00    +0.004 C 
ENDBRANCH  23  24
ENDBRANCH   5  23
TORSDOF 4
ENDMDL
MODEL 4
REMARK VINA RESULT:      -7.5      3.112      5.540
REMARK  Name = NuBBE_1850
REMARK  6 active torsions:
REMARK  status: ('A' for Active; 'I' for Inactive)
REMARK    1  A    between atoms: C_1  and  C_2
REMARK    2  A    between atoms: C_6  and  C_23
REMARK    3  A    between atoms: C_6  and  O_26
REMARK    4  A    between atoms: C_12  and  C_14
REMARK    5  A    between atoms: C_23  and  C_24
REMARK    6  A    between atoms: O_26  and  C_27
REMARK                            x       y       z     vdW  Elec       q    Type
REMARK                         _______ _______ _______ _____ _____    ______ ____
ROOT
ATOM      1  C   LIG A   1      -5.526   4.254 122.439  0.00  0.00    +0.016 C 
ATOM      2  C   LIG A   1      -6.170   3.206 123.346  0.00  0.00    +0.065 C 
ATOM      3  C   LIG A   1      -6.040   3.592 124.779  0.00  0.00    +0.000 C 
ATOM      4  C   LIG A   1      -4.950   3.608 125.553  0.00  0.00    +0.023 C 
ATOM      5  C   LIG A   1      -5.018   3.984 127.020  0.00  0.00    +0.153 C 
ATOM      6  C   LIG A   1      -6.479   4.288 127.517  0.00  0.00    +0.195 C 
ATOM      7  O   LIG A   1      -6.758   4.525 128.696  0.00  0.00    -0.289 OA
ATOM      8  C   LIG A   1      -7.594   4.287 126.532  0.00  0.00    +0.095 C 
ATOM      9  C   LIG A   1      -7.330   3.967 125.260  0.00  0.00    +0.128 C 
ATOM     10  O   LIG A   1      -8.294   3.886 124.281  0.00  0.00    -0.483 OA
ATOM     11  C   LIG A   1      -7.700   3.150 123.178  0.00  0.00    +0.211 C 
ENDROOT
BRANCH  11  12
ATOM     12  C   LIG A   1      -8.262   1.732 123.122  0.00  0.00    -0.003 A 
ATOM     13  C   LIG A   1      -7.475   0.623 123.479  0.00  0.00    +0.056 A 
ATOM     14  C   LIG A   1      -8.040  -0.631 123.437  0.00  0.00    +0.167 A 
ATOM     15  C   LIG A   1      -9.341  -0.827 123.050  0.00  0.00    +0.166 A 
ATOM     16  C   LIG A   1     -10.148   0.225 122.673  0.00  0.00    +0.050 A 
ATOM     17  C   LIG A   1      -9.600   1.515 122.705  0.00  0.00    +0.011 A 
ATOM     18  O   LIG A   1      -9.700  -2.138 123.089  0.00  0.00    -0.453 OA
ATOM     19  C   LIG A   1      -8.472  -2.742 123.550  0.00  0.00    +0.466 C 
ATOM     20  O   LIG A   1      -7.410  -1.790 123.764  0.00  0.00    -0.453 OA
ENDBRANCH  11  12
BRANCH   5  21
ATOM     21  O   LIG A   1      -4.396   2.939 127.786  0.00  0.00    -0.364 OA
ATOM     22  C   LIG A   1      -5.012   1.660 127.670  0.00  0.00    +0.195 C 
ENDBRANCH   5  21
BRANCH   5  23
ATOM     23  C   LIG A   1      -4.221   5.303 127.250  0.00  0.00    +0.074 C 
BRANCH  23  24
ATOM     24  C   LIG A   1      -2.985   5.161 128.112  0.00  0.00    -0.031 C 
ATOM     25  C   LIG A   1      -2.264   6.190 128.576  0.00  0.00    +0.004 C 
ENDBRANCH  23  24
ENDBRANCH   5  23
TORSDOF 4
ENDMDL
MODEL 5
REMARK VINA RESULT:      -7.5      3.263      5.223
REMARK  Name = NuBBE_1850
REMARK  6 active torsions:
REMARK  status: ('A' for Active; 'I' for Inactive)
REMARK    1  A    between atoms: C_1  and  C_2
REMARK    2  A    between atoms: C_6  and  C_23
REMARK    3  A    between atoms: C_6  and  O_26
REMARK    4  A    between atoms: C_12  and  C_14
REMARK    5  A    between atoms: C_23  and  C_24
REMARK    6  A    between atoms: O_26  and  C_27
REMARK                            x       y       z     vdW  Elec       q    Type
REMARK                         _______ _______ _______ _____ _____    ______ ____
ROOT
ATOM      1  C   LIG A   1      -5.086   0.805 126.187  0.00  0.00    +0.016 C 
ATOM      2  C   LIG A   1      -6.523   0.731 126.700  0.00  0.00    +0.065 C 
ATOM      3  C   LIG A   1      -7.334  -0.206 125.872  0.00  0.00    +0.000 C 
ATOM      4  C   LIG A   1      -7.777  -0.058 124.619  0.00  0.00    +0.023 C 
ATOM      5  C   LIG A   1      -8.643  -1.106 123.950  0.00  0.00    +0.153 C 
ATOM      6  C   LIG A   1      -8.992  -2.318 124.889  0.00  0.00    +0.195 C 
ATOM      7  O   LIG A   1      -9.757  -3.230 124.564  0.00  0.00    -0.289 OA
ATOM      8  C   LIG A   1      -8.384  -2.381 126.246  0.00  0.00    +0.095 C 
ATOM      9  C   LIG A   1      -7.605  -1.370 126.650  0.00  0.00    +0.128 C 
ATOM     10  O   LIG A   1      -7.035  -1.304 127.902  0.00  0.00    -0.483 OA
ATOM     11  C   LIG A   1      -6.615   0.074 128.090  0.00  0.00    +0.211 C 
ENDROOT
BRANCH  11  12
ATOM     12  C   LIG A   1      -7.559   0.792 129.050  0.00  0.00    -0.003 A 
ATOM     13  C   LIG A   1      -8.140   2.027 128.711  0.00  0.00    +0.056 A 
ATOM     14  C   LIG A   1      -9.006   2.618 129.603  0.00  0.00    +0.167 A 
ATOM     15  C   LIG A   1      -9.310   2.040 130.809  0.00  0.00    +0.166 A 
ATOM     16  C   LIG A   1      -8.754   0.840 131.195  0.00  0.00    +0.050 A 
ATOM     17  C   LIG A   1      -7.867   0.214 130.308  0.00  0.00    +0.011 A 
ATOM     18  O   LIG A   1     -10.191   2.783 131.530  0.00  0.00    -0.453 OA
ATOM     19  C   LIG A   1     -10.409   3.893 130.632  0.00  0.00    +0.466 C 
ATOM     20  O   LIG A   1      -9.651   3.799 129.410  0.00  0.00    -0.453 OA
ENDBRANCH  11  12
BRANCH   5  21
ATOM     21  O   LIG A   1      -9.824  -0.463 123.442  0.00  0.00    -0.364 OA
ATOM     22  C   LIG A   1      -9.665   0.915 123.116  0.00  0.00    +0.195 C 
ENDBRANCH   5  21
BRANCH   5  23
ATOM     23  C   LIG A   1      -7.866  -1.725 122.749  0.00  0.00    +0.074 C 
BRANCH  23  24
ATOM     24  C   LIG A   1      -6.358  -1.681 122.872  0.00  0.00    -0.031 C 
ATOM     25  C   LIG A   1      -5.610  -2.680 123.356  0.00  0.00    +0.004 C 
ENDBRANCH  23  24
ENDBRANCH   5  23
TORSDOF 4
ENDMDL
MODEL 6
REMARK VINA RESULT:      -7.3      1.806      7.159
REMARK  Name = NuBBE_1850
REMARK  6 active torsions:
REMARK  status: ('A' for Active; 'I' for Inactive)
REMARK    1  A    between atoms: C_1  and  C_2
REMARK    2  A    between atoms: C_6  and  C_23
REMARK    3  A    between atoms: C_6  and  O_26
REMARK    4  A    between atoms: C_12  and  C_14
REMARK    5  A    between atoms: C_23  and  C_24
REMARK    6  A    between atoms: O_26  and  C_27
REMARK                            x       y       z     vdW  Elec       q    Type
REMARK                         _______ _______ _______ _____ _____    ______ ____
ROOT
ATOM      1  C   LIG A   1      -9.058  -3.684 126.923  0.00  0.00    +0.016 C 
ATOM      2  C   LIG A   1      -8.557  -2.241 126.923  0.00  0.00    +0.065 C 
ATOM      3  C   LIG A   1      -7.562  -2.025 128.011  0.00  0.00    +0.000 C 
ATOM      4  C   LIG A   1      -7.755  -1.970 129.333  0.00  0.00    +0.023 C 
ATOM      5  C   LIG A   1      -6.619  -1.686 130.295  0.00  0.00    +0.153 C 
ATOM      6  C   LIG A   1      -5.246  -1.419 129.575  0.00  0.00    +0.195 C 
ATOM      7  O   LIG A   1      -4.221  -1.081 130.174  0.00  0.00    -0.289 OA
ATOM      8  C   LIG A   1      -5.163  -1.567 128.097  0.00  0.00    +0.095 C 
ATOM      9  C   LIG A   1      -6.276  -1.865 127.415  0.00  0.00    +0.128 C 
ATOM     10  O   LIG A   1      -6.320  -1.975 126.044  0.00  0.00    -0.483 OA
ATOM     11  C   LIG A   1      -7.723  -1.911 125.670  0.00  0.00    +0.211 C 
ENDROOT
BRANCH  11  12
ATOM     12  C   LIG A   1      -8.047  -0.554 125.054  0.00  0.00    -0.003 A 
ATOM     13  C   LIG A   1      -7.170   0.058 124.140  0.00  0.00    +0.056 A 
ATOM     14  C   LIG A   1      -7.525   1.270 123.593  0.00  0.00    +0.167 A 
ATOM     15  C   LIG A   1      -8.702   1.896 123.919  0.00  0.00    +0.166 A 
ATOM     16  C   LIG A   1      -9.585   1.346 124.822  0.00  0.00    +0.050 A 
ATOM     17  C   LIG A   1      -9.251   0.112 125.396  0.00  0.00    +0.011 A 
ATOM     18  O   LIG A   1      -8.860   3.074 123.259  0.00  0.00    -0.453 OA
ATOM     19  C   LIG A   1      -7.646   3.112 122.477  0.00  0.00    +0.466 C 
ATOM     20  O   LIG A   1      -6.790   1.973 122.692  0.00  0.00    -0.453 OA
ENDBRANCH  11  12
BRANCH   5  21
ATOM     21  O   LIG A   1      -7.004  -0.591 131.142  0.00  0.00    -0.364 OA
ATOM     22  C   LIG A   1      -8.408  -0.360 131.226  0.00  0.00    +0.195 C 
ENDBRANCH   5  21
BRANCH   5  23
ATOM     23  C   LIG A   1      -6.379  -2.938 131.190  0.00  0.00    +0.074 C 
BRANCH  23  24
ATOM     24  C   LIG A   1      -6.090  -4.219 130.437  0.00  0.00    -0.031 C 
ATOM     25  C   LIG A   1      -5.490  -5.290 130.968  0.00  0.00    +0.004 C 
ENDBRANCH  23  24
ENDBRANCH   5  23
TORSDOF 4
ENDMDL
MODEL 7
REMARK VINA RESULT:      -7.2      4.392      6.663
REMARK  Name = NuBBE_1850
REMARK  6 active torsions:
REMARK  status: ('A' for Active; 'I' for Inactive)
REMARK    1  A    between atoms: C_1  and  C_2
REMARK    2  A    between atoms: C_6  and  C_23
REMARK    3  A    between atoms: C_6  and  O_26
REMARK    4  A    between atoms: C_12  and  C_14
REMARK    5  A    between atoms: C_23  and  C_24
REMARK    6  A    between atoms: O_26  and  C_27
REMARK                            x       y       z     vdW  Elec       q    Type
REMARK                         _______ _______ _______ _____ _____    ______ ____
ROOT
ATOM      1  C   LIG A   1      -7.951  -0.655 132.415  0.00  0.00    +0.016 C 
ATOM      2  C   LIG A   1      -8.337  -0.425 130.955  0.00  0.00    +0.065 C 
ATOM      3  C   LIG A   1      -8.454   1.031 130.660  0.00  0.00    +0.000 C 
ATOM      4  C   LIG A   1      -9.390   1.899 131.055  0.00  0.00    +0.023 C 
ATOM      5  C   LIG A   1      -9.375   3.348 130.608  0.00  0.00    +0.153 C 
ATOM      6  C   LIG A   1      -8.202   3.681 129.616  0.00  0.00    +0.195 C 
ATOM      7  O   LIG A   1      -8.068   4.779 129.068  0.00  0.00    -0.289 OA
ATOM      8  C   LIG A   1      -7.197   2.629 129.304  0.00  0.00    +0.095 C 
ATOM      9  C   LIG A   1      -7.357   1.408 129.830  0.00  0.00    +0.128 C 
ATOM     10  O   LIG A   1      -6.516   0.351 129.566  0.00  0.00    -0.483 OA
ATOM     11  C   LIG A   1      -7.221  -0.850 129.982  0.00  0.00    +0.211 C 
ENDROOT
BRANCH  11  12
ATOM     12  C   LIG A   1      -7.724  -1.618 128.764  0.00  0.00    -0.003 A 
ATOM     13  C   LIG A   1      -7.702  -1.043 127.480  0.00  0.00    +0.056 A 
ATOM     14  C   LIG A   1      -8.143  -1.791 126.412  0.00  0.00    +0.167 A 
ATOM     15  C   LIG A   1      -8.608  -3.073 126.568  0.00  0.00    +0.166 A 
ATOM     16  C   LIG A   1      -8.666  -3.674 127.806  0.00  0.00    +0.050 A 
ATOM     17  C   LIG A   1      -8.224  -2.936 128.913  0.00  0.00    +0.011 A 
ATOM     18  O   LIG A   1      -8.982  -3.632 125.387  0.00  0.00    -0.453 OA
ATOM     19  C   LIG A   1      -8.694  -2.553 124.471  0.00  0.00    +0.466 C 
ATOM     20  O   LIG A   1      -8.169  -1.377 125.118  0.00  0.00    -0.453 OA
ENDBRANCH  11  12
BRANCH   5  21
ATOM     21  O   LIG A   1     -10.660   3.663 130.047  0.00  0.00    -0.364 OA
ATOM     22  C   LIG A   1     -11.199   4.921 130.446  0.00  0.00    +0.195 C 
ENDBRANCH   5  21
BRANCH   5  23
ATOM     23  C   LIG A   1      -9.142   4.265 131.846  0.00  0.00    +0.074 C 
BRANCH  23  24
ATOM     24  C   LIG A   1      -9.075   3.543 133.174  0.00  0.00    -0.031 C 
ATOM     25  C   LIG A   1      -8.535   4.055 134.287  0.00  0.00    +0.004 C 
ENDBRANCH  23  24
ENDBRANCH   5  23
TORSDOF 4
ENDMDL
MODEL 8
REMARK VINA RESULT:      -7.1      2.221      6.442
REMARK  Name = NuBBE_1850
REMARK  6 active torsions:
REMARK  status: ('A' for Active; 'I' for Inactive)
REMARK    1  A    between atoms: C_1  and  C_2
REMARK    2  A    between atoms: C_6  and  C_23
REMARK    3  A    between atoms: C_6  and  O_26
REMARK    4  A    between atoms: C_12  and  C_14
REMARK    5  A    between atoms: C_23  and  C_24
REMARK    6  A    between atoms: O_26  and  C_27
REMARK                            x       y       z     vdW  Elec       q    Type
REMARK                         _______ _______ _______ _____ _____    ______ ____
ROOT
ATOM      1  C   LIG A   1     -10.151   1.111 124.624  0.00  0.00    +0.016 C 
ATOM      2  C   LIG A   1      -8.760   1.258 125.237  0.00  0.00    +0.065 C 
ATOM      3  C   LIG A   1      -8.069  -0.061 125.307  0.00  0.00    +0.000 C 
ATOM      4  C   LIG A   1      -8.321  -1.105 126.102  0.00  0.00    +0.023 C 
ATOM      5  C   LIG A   1      -7.470  -2.359 126.068  0.00  0.00    +0.153 C 
ATOM      6  C   LIG A   1      -6.266  -2.266 125.061  0.00  0.00    +0.195 C 
ATOM      7  O   LIG A   1      -5.405  -3.144 124.951  0.00  0.00    -0.289 OA
ATOM      8  C   LIG A   1      -6.136  -1.062 124.196  0.00  0.00    +0.095 C 
ATOM      9  C   LIG A   1      -7.016  -0.065 124.344  0.00  0.00    +0.128 C 
ATOM     10  O   LIG A   1      -6.957   1.112 123.632  0.00  0.00    -0.483 OA
ATOM     11  C   LIG A   1      -7.805   2.061 124.333  0.00  0.00    +0.211 C 
ENDROOT
BRANCH  11  12
ATOM     12  C   LIG A   1      -6.953   3.078 125.086  0.00  0.00    -0.003 A 
ATOM     13  C   LIG A   1      -6.615   2.886 126.438  0.00  0.00    +0.056 A 
ATOM     14  C   LIG A   1      -5.822   3.822 127.062  0.00  0.00    +0.167 A 
ATOM     15  C   LIG A   1      -5.361   4.934 126.405  0.00  0.00    +0.166 A 
ATOM     16  C   LIG A   1      -5.678   5.177 125.087  0.00  0.00    +0.050 A 
ATOM     17  C   LIG A   1      -6.486   4.242 124.425  0.00  0.00    +0.011 A 
ATOM     18  O   LIG A   1      -4.588   5.720 127.201  0.00  0.00    -0.453 OA
ATOM     19  C   LIG A   1      -4.614   4.967 128.434  0.00  0.00    +0.466 C 
ATOM     20  O   LIG A   1      -5.405   3.765 128.354  0.00  0.00    -0.453 OA
ENDBRANCH  11  12
BRANCH   5  21
ATOM     21  O   LIG A   1      -7.032  -2.646 127.406  0.00  0.00    -0.364 OA
ATOM     22  C   LIG A   1      -8.078  -2.865 128.348  0.00  0.00    +0.195 C 
ENDBRANCH   5  21
BRANCH   5  23
ATOM     23  C   LIG A   1      -8.336  -3.554 125.568  0.00  0.00    +0.074 C 
BRANCH  23  24
ATOM     24  C   LIG A   1      -9.457  -3.180 124.623  0.00  0.00    -0.031 C 
ATOM     25  C   LIG A   1      -9.356  -3.187 123.288  0.00  0.00    +0.004 C 
ENDBRANCH  23  24
ENDBRANCH   5  23
TORSDOF 4
ENDMDL
MODEL 9
REMARK VINA RESULT:      -6.9      4.773      8.249
REMARK  Name = NuBBE_1850
REMARK  6 active torsions:
REMARK  status: ('A' for Active; 'I' for Inactive)
REMARK    1  A    between atoms: C_1  and  C_2
REMARK    2  A    between atoms: C_6  and  C_23
REMARK    3  A    between atoms: C_6  and  O_26
REMARK    4  A    between atoms: C_12  and  C_14
REMARK    5  A    between atoms: C_23  and  C_24
REMARK    6  A    between atoms: O_26  and  C_27
REMARK                            x       y       z     vdW  Elec       q    Type
REMARK                         _______ _______ _______ _____ _____    ______ ____
ROOT
ATOM      1  C   LIG A   1      -4.059   2.120 129.255  0.00  0.00    +0.016 C 
ATOM      2  C   LIG A   1      -4.814   3.114 128.374  0.00  0.00    +0.065 C 
ATOM      3  C   LIG A   1      -4.561   4.514 128.816  0.00  0.00    +0.000 C 
ATOM      4  C   LIG A   1      -4.992   5.142 129.914  0.00  0.00    +0.023 C 
ATOM      5  C   LIG A   1      -4.673   6.602 130.175  0.00  0.00    +0.153 C 
ATOM      6  C   LIG A   1      -3.852   7.277 129.017  0.00  0.00    +0.195 C 
ATOM      7  O   LIG A   1      -3.572   8.478 128.995  0.00  0.00    -0.289 OA
ATOM      8  C   LIG A   1      -3.390   6.442 127.875  0.00  0.00    +0.095 C 
ATOM      9  C   LIG A   1      -3.740   5.150 127.838  0.00  0.00    +0.128 C 
ATOM     10  O   LIG A   1      -3.409   4.303 126.805  0.00  0.00    -0.483 OA
ATOM     11  C   LIG A   1      -4.275   3.142 126.931  0.00  0.00    +0.211 C 
ENDROOT
BRANCH  11  12
ATOM     12  C   LIG A   1      -5.366   3.176 125.865  0.00  0.00    -0.003 A 
ATOM     13  C   LIG A   1      -6.540   2.413 126.003  0.00  0.00    +0.056 A 
ATOM     14  C   LIG A   1      -7.505   2.502 125.025  0.00  0.00    +0.167 A 
ATOM     15  C   LIG A   1      -7.349   3.305 123.923  0.00  0.00    +0.166 A 
ATOM     16  C   LIG A   1      -6.210   4.057 123.734  0.00  0.00    +0.050 A 
ATOM     17  C   LIG A   1      -5.209   3.987 124.713  0.00  0.00    +0.011 A 
ATOM     18  O   LIG A   1      -8.422   3.252 123.090  0.00  0.00    -0.453 OA
ATOM     19  C   LIG A   1      -9.272   2.325 123.800  0.00  0.00    +0.466 C 
ATOM     20  O   LIG A   1      -8.691   1.838 125.026  0.00  0.00    -0.453 OA
ENDBRANCH  11  12
BRANCH   5  21
ATOM     21  O   LIG A   1      -5.904   7.295 130.437  0.00  0.00    -0.364 OA
ATOM     22  C   LIG A   1      -6.744   6.684 131.414  0.00  0.00    +0.195 C 
ENDBRANCH   5  21
BRANCH   5  23
ATOM     23  C   LIG A   1      -3.770   6.712 131.440  0.00  0.00    +0.074 C 
BRANCH  23  24
ATOM     24  C   LIG A   1      -2.425   6.027 131.328  0.00  0.00    -0.031 C 
ATOM     25  C   LIG A   1      -1.261   6.581 131.690  0.00  0.00    +0.004 C 
ENDBRANCH  23  24
ENDBRANCH   5  23
TORSDOF 4
ENDMDL
