MODEL 1
REMARK VINA RESULT:      -7.2      0.000      0.000
REMARK  Name = NuBBE_1586
REMARK  9 active torsions:
REMARK  status: ('A' for Active; 'I' for Inactive)
REMARK    1  A    between atoms: C_1  and  O_2
REMARK    2  A    between atoms: O_2  and  C_3
REMARK    3  A    between atoms: C_4  and  O_5
REMARK    4  A    between atoms: O_5  and  C_6
REMARK    5  A    between atoms: C_8  and  O_9
REMARK    6  A    between atoms: O_9  and  C_10
REMARK    7  A    between atoms: C_14  and  C_15
REMARK    8  A    between atoms: C_18  and  O_19
REMARK    9  A    between atoms: O_19  and  C_20
REMARK                            x       y       z     vdW  Elec       q    Type
REMARK                         _______ _______ _______ _____ _____    ______ ____
ROOT
ATOM      1  C   LIG A   1      -8.504  -0.909 124.817  0.00  0.00    +0.205 A 
ATOM      2  C   LIG A   1      -8.436  -1.676 125.990  0.00  0.00    +0.169 A 
ATOM      3  C   LIG A   1      -8.076  -1.058 127.195  0.00  0.00    +0.096 A 
ATOM      4  C   LIG A   1      -7.876   0.318 127.288  0.00  0.00    +0.138 A 
ATOM      5  C   LIG A   1      -8.039   1.095 126.133  0.00  0.00    +0.109 A 
ATOM      6  C   LIG A   1      -8.274   0.477 124.897  0.00  0.00    +0.188 A 
ATOM      7  O   LIG A   1      -8.293   1.195 123.719  0.00  0.00    -0.451 OA
ATOM      8  C   LIG A   1      -7.858   2.512 123.723  0.00  0.00    +0.139 A 
ATOM      9  C   LIG A   1      -7.717   3.213 124.866  0.00  0.00    +0.098 A 
ATOM     10  C   LIG A   1      -8.001   2.562 126.149  0.00  0.00    +0.197 A 
ATOM     11  O   LIG A   1      -8.250   3.252 127.136  0.00  0.00    -0.287 OA
ENDROOT
BRANCH   8  12
ATOM     12  C   LIG A   1      -7.626   3.103 122.380  0.00  0.00    +0.018 A 
ATOM     13  C   LIG A   1      -8.675   3.389 121.489  0.00  0.00    +0.015 A 
ATOM     14  C   LIG A   1      -8.435   3.942 120.228  0.00  0.00    +0.046 A 
ATOM     15  C   LIG A   1      -7.134   4.212 119.815  0.00  0.00    +0.120 A 
ATOM     16  C   LIG A   1      -6.079   3.958 120.687  0.00  0.00    +0.046 A 
ATOM     17  C   LIG A   1      -6.322   3.406 121.952  0.00  0.00    +0.015 A 
BRANCH  15  18
ATOM     18  O   LIG A   1      -7.011   4.760 118.569  0.00  0.00    -0.495 OA
ATOM     19  C   LIG A   1      -5.971   5.722 118.438  0.00  0.00    +0.277 C 
ENDBRANCH  15  18
ENDBRANCH   8  12
BRANCH   1  21
ATOM     20  C   LIG A   1      -7.644  -1.961 122.857  0.00  0.00    +0.277 C 
ATOM     21  O   LIG A   1      -8.743  -1.383 123.551  0.00  0.00    -0.488 OA
ENDBRANCH   1  21
BRANCH   2  22
ATOM     22  O   LIG A   1      -8.636  -3.031 125.930  0.00  0.00    -0.491 OA
ATOM     23  C   LIG A   1      -8.932  -3.673 127.170  0.00  0.00    +0.277 C 
ENDBRANCH   2  22
BRANCH   4  24
ATOM     24  O   LIG A   1      -7.473   0.938 128.443  0.00  0.00    -0.494 OA
ATOM     25  C   LIG A   1      -6.135   0.701 128.874  0.00  0.00    +0.277 C 
ENDBRANCH   4  24
TORSDOF 5
ENDMDL
MODEL 2
REMARK VINA RESULT:      -6.8      5.399      8.038
REMARK  Name = NuBBE_1586
REMARK  9 active torsions:
REMARK  status: ('A' for Active; 'I' for Inactive)
REMARK    1  A    between atoms: C_1  and  O_2
REMARK    2  A    between atoms: O_2  and  C_3
REMARK    3  A    between atoms: C_4  and  O_5
REMARK    4  A    between atoms: O_5  and  C_6
REMARK    5  A    between atoms: C_8  and  O_9
REMARK    6  A    between atoms: O_9  and  C_10
REMARK    7  A    between atoms: C_14  and  C_15
REMARK    8  A    between atoms: C_18  and  O_19
REMARK    9  A    between atoms: O_19  and  C_20
REMARK                            x       y       z     vdW  Elec       q    Type
REMARK                         _______ _______ _______ _____ _____    ______ ____
ROOT
ATOM      1  C   LIG A   1      -7.309   4.206 127.928  0.00  0.00    +0.205 A 
ATOM      2  C   LIG A   1      -6.217   3.350 128.140  0.00  0.00    +0.169 A 
ATOM      3  C   LIG A   1      -6.066   2.727 129.386  0.00  0.00    +0.096 A 
ATOM      4  C   LIG A   1      -7.018   2.853 130.395  0.00  0.00    +0.138 A 
ATOM      5  C   LIG A   1      -8.156   3.632 130.144  0.00  0.00    +0.109 A 
ATOM      6  C   LIG A   1      -8.260   4.361 128.952  0.00  0.00    +0.188 A 
ATOM      7  O   LIG A   1      -9.291   5.252 128.735  0.00  0.00    -0.451 OA
ATOM      8  C   LIG A   1     -10.120   5.597 129.792  0.00  0.00    +0.139 A 
ATOM      9  C   LIG A   1     -10.163   4.877 130.930  0.00  0.00    +0.098 A 
ATOM     10  C   LIG A   1      -9.289   3.708 131.075  0.00  0.00    +0.197 A 
ATOM     11  O   LIG A   1      -9.569   2.841 131.901  0.00  0.00    -0.287 OA
ENDROOT
BRANCH   8  12
ATOM     12  C   LIG A   1     -10.995   6.773 129.548  0.00  0.00    +0.018 A 
ATOM     13  C   LIG A   1     -11.951   7.210 130.482  0.00  0.00    +0.015 A 
ATOM     14  C   LIG A   1     -12.767   8.318 130.231  0.00  0.00    +0.046 A 
ATOM     15  C   LIG A   1     -12.661   9.012 129.031  0.00  0.00    +0.120 A 
ATOM     16  C   LIG A   1     -11.707   8.611 128.098  0.00  0.00    +0.046 A 
ATOM     17  C   LIG A   1     -10.888   7.504 128.352  0.00  0.00    +0.015 A 
BRANCH  15  18
ATOM     18  O   LIG A   1     -13.498  10.082 128.890  0.00  0.00    -0.495 OA
ATOM     19  C   LIG A   1     -13.512  10.979 129.994  0.00  0.00    +0.277 C 
ENDBRANCH  15  18
ENDBRANCH   8  12
BRANCH   1  21
ATOM     20  C   LIG A   1      -8.015   4.281 125.651  0.00  0.00    +0.277 C 
ATOM     21  O   LIG A   1      -7.539   4.963 126.805  0.00  0.00    -0.488 OA
ENDBRANCH   1  21
BRANCH   2  22
ATOM     22  O   LIG A   1      -5.268   3.202 127.162  0.00  0.00    -0.491 OA
ATOM     23  C   LIG A   1      -5.172   1.903 126.579  0.00  0.00    +0.277 C 
ENDBRANCH   2  22
BRANCH   4  24
ATOM     24  O   LIG A   1      -6.867   2.295 131.638  0.00  0.00    -0.494 OA
ATOM     25  C   LIG A   1      -6.547   0.906 131.692  0.00  0.00    +0.277 C 
ENDBRANCH   4  24
TORSDOF 5
ENDMDL
MODEL 3
REMARK VINA RESULT:      -6.8      8.482      9.306
REMARK  Name = NuBBE_1586
REMARK  9 active torsions:
REMARK  status: ('A' for Active; 'I' for Inactive)
REMARK    1  A    between atoms: C_1  and  O_2
REMARK    2  A    between atoms: O_2  and  C_3
REMARK    3  A    between atoms: C_4  and  O_5
REMARK    4  A    between atoms: O_5  and  C_6
REMARK    5  A    between atoms: C_8  and  O_9
REMARK    6  A    between atoms: O_9  and  C_10
REMARK    7  A    between atoms: C_14  and  C_15
REMARK    8  A    between atoms: C_18  and  O_19
REMARK    9  A    between atoms: O_19  and  C_20
REMARK                            x       y       z     vdW  Elec       q    Type
REMARK                         _______ _______ _______ _____ _____    ______ ____
ROOT
ATOM      1  C   LIG A   1      -7.918   2.646 133.109  0.00  0.00    +0.205 A 
ATOM      2  C   LIG A   1      -6.845   1.797 133.422  0.00  0.00    +0.169 A 
ATOM      3  C   LIG A   1      -5.533   2.243 133.213  0.00  0.00    +0.096 A 
ATOM      4  C   LIG A   1      -5.252   3.541 132.793  0.00  0.00    +0.138 A 
ATOM      5  C   LIG A   1      -6.324   4.417 132.573  0.00  0.00    +0.109 A 
ATOM      6  C   LIG A   1      -7.643   3.949 132.656  0.00  0.00    +0.188 A 
ATOM      7  O   LIG A   1      -8.716   4.740 132.302  0.00  0.00    -0.451 OA
ATOM      8  C   LIG A   1      -8.485   5.942 131.649  0.00  0.00    +0.139 A 
ATOM      9  C   LIG A   1      -7.266   6.516 131.622  0.00  0.00    +0.098 A 
ATOM     10  C   LIG A   1      -6.139   5.843 132.277  0.00  0.00    +0.197 A 
ATOM     11  O   LIG A   1      -5.146   6.495 132.595  0.00  0.00    -0.287 OA
ENDROOT
BRANCH   8  12
ATOM     12  C   LIG A   1      -9.687   6.571 131.043  0.00  0.00    +0.018 A 
ATOM     13  C   LIG A   1      -9.629   7.323 129.856  0.00  0.00    +0.015 A 
ATOM     14  C   LIG A   1     -10.771   7.909 129.304  0.00  0.00    +0.046 A 
ATOM     15  C   LIG A   1     -12.005   7.773 129.932  0.00  0.00    +0.120 A 
ATOM     16  C   LIG A   1     -12.093   7.016 131.098  0.00  0.00    +0.046 A 
ATOM     17  C   LIG A   1     -10.947   6.426 131.648  0.00  0.00    +0.015 A 
BRANCH  15  18
ATOM     18  O   LIG A   1     -13.058   8.378 129.305  0.00  0.00    -0.495 OA
ATOM     19  C   LIG A   1     -13.096   9.795 129.433  0.00  0.00    +0.277 C 
ENDBRANCH  15  18
ENDBRANCH   8  12
BRANCH   1  21
ATOM     20  C   LIG A   1      -9.797   1.636 132.043  0.00  0.00    +0.277 C 
ATOM     21  O   LIG A   1      -9.251   2.321 133.163  0.00  0.00    -0.488 OA
ENDBRANCH   1  21
BRANCH   2  22
ATOM     22  O   LIG A   1      -7.091   0.517 133.845  0.00  0.00    -0.491 OA
ATOM     23  C   LIG A   1      -6.797  -0.517 132.905  0.00  0.00    +0.277 C 
ENDBRANCH   2  22
BRANCH   4  24
ATOM     24  O   LIG A   1      -3.981   3.984 132.532  0.00  0.00    -0.494 OA
ATOM     25  C   LIG A   1      -2.998   3.765 133.542  0.00  0.00    +0.277 C 
ENDBRANCH   4  24
TORSDOF 5
ENDMDL
MODEL 4
REMARK VINA RESULT:      -6.8      6.310      9.531
REMARK  Name = NuBBE_1586
REMARK  9 active torsions:
REMARK  status: ('A' for Active; 'I' for Inactive)
REMARK    1  A    between atoms: C_1  and  O_2
REMARK    2  A    between atoms: O_2  and  C_3
REMARK    3  A    between atoms: C_4  and  O_5
REMARK    4  A    between atoms: O_5  and  C_6
REMARK    5  A    between atoms: C_8  and  O_9
REMARK    6  A    between atoms: O_9  and  C_10
REMARK    7  A    between atoms: C_14  and  C_15
REMARK    8  A    between atoms: C_18  and  O_19
REMARK    9  A    between atoms: O_19  and  C_20
REMARK                            x       y       z     vdW  Elec       q    Type
REMARK                         _______ _______ _______ _____ _____    ______ ____
ROOT
ATOM      1  C   LIG A   1      -4.738   5.314 128.847  0.00  0.00    +0.205 A 
ATOM      2  C   LIG A   1      -3.335   5.290 128.791  0.00  0.00    +0.169 A 
ATOM      3  C   LIG A   1      -2.596   5.609 129.938  0.00  0.00    +0.096 A 
ATOM      4  C   LIG A   1      -3.209   5.857 131.165  0.00  0.00    +0.138 A 
ATOM      5  C   LIG A   1      -4.606   5.785 131.240  0.00  0.00    +0.109 A 
ATOM      6  C   LIG A   1      -5.364   5.592 130.076  0.00  0.00    +0.188 A 
ATOM      7  O   LIG A   1      -6.741   5.664 130.087  0.00  0.00    -0.451 OA
ATOM      8  C   LIG A   1      -7.384   6.148 131.217  0.00  0.00    +0.139 A 
ATOM      9  C   LIG A   1      -6.755   6.255 132.405  0.00  0.00    +0.098 A 
ATOM     10  C   LIG A   1      -5.342   5.878 132.507  0.00  0.00    +0.197 A 
ATOM     11  O   LIG A   1      -4.865   5.605 133.607  0.00  0.00    -0.287 OA
ENDROOT
BRANCH   8  12
ATOM     12  C   LIG A   1      -8.822   6.473 131.033  0.00  0.00    +0.018 A 
ATOM     13  C   LIG A   1      -9.298   7.192 129.923  0.00  0.00    +0.015 A 
ATOM     14  C   LIG A   1     -10.654   7.490 129.770  0.00  0.00    +0.046 A 
ATOM     15  C   LIG A   1     -11.575   7.091 130.733  0.00  0.00    +0.120 A 
ATOM     16  C   LIG A   1     -11.132   6.359 131.832  0.00  0.00    +0.046 A 
ATOM     17  C   LIG A   1      -9.773   6.058 131.982  0.00  0.00    +0.015 A 
BRANCH  15  18
ATOM     18  O   LIG A   1     -12.876   7.426 130.483  0.00  0.00    -0.495 OA
ATOM     19  C   LIG A   1     -13.330   7.124 129.169  0.00  0.00    +0.277 C 
ENDBRANCH  15  18
ENDBRANCH   8  12
BRANCH   1  21
ATOM     20  C   LIG A   1      -5.929   3.782 127.460  0.00  0.00    +0.277 C 
ATOM     21  O   LIG A   1      -5.595   5.124 127.791  0.00  0.00    -0.488 OA
ENDBRANCH   1  21
BRANCH   2  22
ATOM     22  O   LIG A   1      -2.706   5.042 127.599  0.00  0.00    -0.491 OA
ATOM     23  C   LIG A   1      -2.268   3.699 127.393  0.00  0.00    +0.277 C 
ENDBRANCH   2  22
BRANCH   4  24
ATOM     24  O   LIG A   1      -2.511   6.221 132.288  0.00  0.00    -0.494 OA
ATOM     25  C   LIG A   1      -1.986   7.547 132.324  0.00  0.00    +0.277 C 
ENDBRANCH   4  24
TORSDOF 5
ENDMDL
MODEL 5
REMARK VINA RESULT:      -6.7      3.171      8.642
REMARK  Name = NuBBE_1586
REMARK  9 active torsions:
REMARK  status: ('A' for Active; 'I' for Inactive)
REMARK    1  A    between atoms: C_1  and  O_2
REMARK    2  A    between atoms: O_2  and  C_3
REMARK    3  A    between atoms: C_4  and  O_5
REMARK    4  A    between atoms: O_5  and  C_6
REMARK    5  A    between atoms: C_8  and  O_9
REMARK    6  A    between atoms: O_9  and  C_10
REMARK    7  A    between atoms: C_14  and  C_15
REMARK    8  A    between atoms: C_18  and  O_19
REMARK    9  A    between atoms: O_19  and  C_20
REMARK                            x       y       z     vdW  Elec       q    Type
REMARK                         _______ _______ _______ _____ _____    ______ ____
ROOT
ATOM      1  C   LIG A   1      -8.177   1.402 126.805  0.00  0.00    +0.205 A 
ATOM      2  C   LIG A   1      -8.682   2.137 125.721  0.00  0.00    +0.169 A 
ATOM      3  C   LIG A   1      -9.156   1.457 124.591  0.00  0.00    +0.096 A 
ATOM      4  C   LIG A   1      -9.233   0.067 124.545  0.00  0.00    +0.138 A 
ATOM      5  C   LIG A   1      -8.818  -0.662 125.668  0.00  0.00    +0.109 A 
ATOM      6  C   LIG A   1      -8.225  -0.003 126.754  0.00  0.00    +0.188 A 
ATOM      7  O   LIG A   1      -7.671  -0.698 127.809  0.00  0.00    -0.451 OA
ATOM      8  C   LIG A   1      -7.500  -2.071 127.699  0.00  0.00    +0.139 A 
ATOM      9  C   LIG A   1      -8.128  -2.794 126.751  0.00  0.00    +0.098 A 
ATOM     10  C   LIG A   1      -8.997  -2.114 125.785  0.00  0.00    +0.197 A 
ATOM     11  O   LIG A   1      -9.852  -2.759 125.181  0.00  0.00    -0.287 OA
ENDROOT
BRANCH   8  12
ATOM     12  C   LIG A   1      -6.632  -2.682 128.738  0.00  0.00    +0.018 A 
ATOM     13  C   LIG A   1      -7.150  -3.407 129.825  0.00  0.00    +0.015 A 
ATOM     14  C   LIG A   1      -6.315  -3.973 130.793  0.00  0.00    +0.046 A 
ATOM     15  C   LIG A   1      -4.936  -3.816 130.710  0.00  0.00    +0.120 A 
ATOM     16  C   LIG A   1      -4.396  -3.119 129.632  0.00  0.00    +0.046 A 
ATOM     17  C   LIG A   1      -5.234  -2.556 128.661  0.00  0.00    +0.015 A 
BRANCH  15  18
ATOM     18  O   LIG A   1      -4.212  -4.414 131.703  0.00  0.00    -0.495 OA
ATOM     19  C   LIG A   1      -4.986  -5.121 132.665  0.00  0.00    +0.277 C 
ENDBRANCH  15  18
ENDBRANCH   8  12
BRANCH   1  21
ATOM     20  C   LIG A   1      -8.456   2.391 128.957  0.00  0.00    +0.277 C 
ATOM     21  O   LIG A   1      -7.589   1.920 127.933  0.00  0.00    -0.488 OA
ENDBRANCH   1  21
BRANCH   2  22
ATOM     22  O   LIG A   1      -8.624   3.507 125.742  0.00  0.00    -0.491 OA
ATOM     23  C   LIG A   1      -7.499   4.094 125.087  0.00  0.00    +0.277 C 
ENDBRANCH   2  22
BRANCH   4  24
ATOM     24  O   LIG A   1      -9.645  -0.622 123.433  0.00  0.00    -0.494 OA
ATOM     25  C   LIG A   1     -10.170   0.146 122.352  0.00  0.00    +0.277 C 
ENDBRANCH   4  24
TORSDOF 5
ENDMDL
MODEL 6
REMARK VINA RESULT:      -6.7      6.295      9.043
REMARK  Name = NuBBE_1586
REMARK  9 active torsions:
REMARK  status: ('A' for Active; 'I' for Inactive)
REMARK    1  A    between atoms: C_1  and  O_2
REMARK    2  A    between atoms: O_2  and  C_3
REMARK    3  A    between atoms: C_4  and  O_5
REMARK    4  A    between atoms: O_5  and  C_6
REMARK    5  A    between atoms: C_8  and  O_9
REMARK    6  A    between atoms: O_9  and  C_10
REMARK    7  A    between atoms: C_14  and  C_15
REMARK    8  A    between atoms: C_18  and  O_19
REMARK    9  A    between atoms: O_19  and  C_20
REMARK                            x       y       z     vdW  Elec       q    Type
REMARK                         _______ _______ _______ _____ _____    ______ ____
ROOT
ATOM      1  C   LIG A   1      -6.600   4.469 130.008  0.00  0.00    +0.205 A 
ATOM      2  C   LIG A   1      -5.493   3.810 130.564  0.00  0.00    +0.169 A 
ATOM      3  C   LIG A   1      -5.484   3.521 131.936  0.00  0.00    +0.096 A 
ATOM      4  C   LIG A   1      -6.583   3.782 132.752  0.00  0.00    +0.138 A 
ATOM      5  C   LIG A   1      -7.724   4.353 132.172  0.00  0.00    +0.109 A 
ATOM      6  C   LIG A   1      -7.702   4.762 130.832  0.00  0.00    +0.188 A 
ATOM      7  O   LIG A   1      -8.750   5.460 130.269  0.00  0.00    -0.451 OA
ATOM      8  C   LIG A   1      -9.750   5.958 131.092  0.00  0.00    +0.139 A 
ATOM      9  C   LIG A   1      -9.909   5.529 132.360  0.00  0.00    +0.098 A 
ATOM     10  C   LIG A   1      -8.985   4.529 132.903  0.00  0.00    +0.197 A 
ATOM     11  O   LIG A   1      -9.321   3.858 133.878  0.00  0.00    -0.287 OA
ENDROOT
BRANCH   8  12
ATOM     12  C   LIG A   1     -10.661   6.941 130.452  0.00  0.00    +0.018 A 
ATOM     13  C   LIG A   1     -11.963   7.184 130.925  0.00  0.00    +0.015 A 
ATOM     14  C   LIG A   1     -12.806   8.112 130.307  0.00  0.00    +0.046 A 
ATOM     15  C   LIG A   1     -12.376   8.814 129.185  0.00  0.00    +0.120 A 
ATOM     16  C   LIG A   1     -11.084   8.607 128.710  0.00  0.00    +0.046 A 
ATOM     17  C   LIG A   1     -10.239   7.679 129.333  0.00  0.00    +0.015 A 
BRANCH  15  18
ATOM     18  O   LIG A   1     -13.274   9.701 128.663  0.00  0.00    -0.495 OA
ATOM     19  C   LIG A   1     -13.551  10.827 129.487  0.00  0.00    +0.277 C 
ENDBRANCH  15  18
ENDBRANCH   8  12
BRANCH   1  21
ATOM     20  C   LIG A   1      -7.063   3.939 127.729  0.00  0.00    +0.277 C 
ATOM     21  O   LIG A   1      -6.715   4.906 128.711  0.00  0.00    -0.488 OA
ENDBRANCH   1  21
BRANCH   2  22
ATOM     22  O   LIG A   1      -4.401   3.534 129.783  0.00  0.00    -0.491 OA
ATOM     23  C   LIG A   1      -3.324   4.468 129.867  0.00  0.00    +0.277 C 
ENDBRANCH   2  22
BRANCH   4  24
ATOM     24  O   LIG A   1      -6.578   3.556 134.104  0.00  0.00    -0.494 OA
ATOM     25  C   LIG A   1      -5.524   2.748 134.624  0.00  0.00    +0.277 C 
ENDBRANCH   4  24
TORSDOF 5
ENDMDL
MODEL 7
REMARK VINA RESULT:      -6.6      3.234      6.649
REMARK  Name = NuBBE_1586
REMARK  9 active torsions:
REMARK  status: ('A' for Active; 'I' for Inactive)
REMARK    1  A    between atoms: C_1  and  O_2
REMARK    2  A    between atoms: O_2  and  C_3
REMARK    3  A    between atoms: C_4  and  O_5
REMARK    4  A    between atoms: O_5  and  C_6
REMARK    5  A    between atoms: C_8  and  O_9
REMARK    6  A    between atoms: O_9  and  C_10
REMARK    7  A    between atoms: C_14  and  C_15
REMARK    8  A    between atoms: C_18  and  O_19
REMARK    9  A    between atoms: O_19  and  C_20
REMARK                            x       y       z     vdW  Elec       q    Type
REMARK                         _______ _______ _______ _____ _____    ______ ____
ROOT
ATOM      1  C   LIG A   1      -7.943   1.343 124.370  0.00  0.00    +0.205 A 
ATOM      2  C   LIG A   1      -8.908   1.155 123.369  0.00  0.00    +0.169 A 
ATOM      3  C   LIG A   1      -8.952   2.039 122.283  0.00  0.00    +0.096 A 
ATOM      4  C   LIG A   1      -8.004   3.047 122.113  0.00  0.00    +0.138 A 
ATOM      5  C   LIG A   1      -6.984   3.170 123.065  0.00  0.00    +0.109 A 
ATOM      6  C   LIG A   1      -7.000   2.376 124.220  0.00  0.00    +0.188 A 
ATOM      7  O   LIG A   1      -6.099   2.571 125.246  0.00  0.00    -0.451 OA
ATOM      8  C   LIG A   1      -5.302   3.706 125.240  0.00  0.00    +0.139 A 
ATOM      9  C   LIG A   1      -5.143   4.460 124.134  0.00  0.00    +0.098 A 
ATOM     10  C   LIG A   1      -5.853   4.092 122.905  0.00  0.00    +0.197 A 
ATOM     11  O   LIG A   1      -5.445   4.509 121.822  0.00  0.00    -0.287 OA
ENDROOT
BRANCH   8  12
ATOM     12  C   LIG A   1      -4.594   3.985 126.516  0.00  0.00    +0.018 A 
ATOM     13  C   LIG A   1      -5.257   4.463 127.659  0.00  0.00    +0.015 A 
ATOM     14  C   LIG A   1      -4.572   4.722 128.850  0.00  0.00    +0.046 A 
ATOM     15  C   LIG A   1      -3.197   4.526 128.926  0.00  0.00    +0.120 A 
ATOM     16  C   LIG A   1      -2.519   4.034 127.813  0.00  0.00    +0.046 A 
ATOM     17  C   LIG A   1      -3.208   3.771 126.622  0.00  0.00    +0.015 A 
BRANCH  15  18
ATOM     18  O   LIG A   1      -2.626   4.802 130.136  0.00  0.00    -0.495 OA
ATOM     19  C   LIG A   1      -3.385   5.667 130.972  0.00  0.00    +0.277 C 
ENDBRANCH  15  18
ENDBRANCH   8  12
BRANCH   1  21
ATOM     20  C   LIG A   1      -8.734   0.961 126.588  0.00  0.00    +0.277 C 
ATOM     21  O   LIG A   1      -7.836   0.627 125.538  0.00  0.00    -0.488 OA
ENDBRANCH   1  21
BRANCH   2  22
ATOM     22  O   LIG A   1      -9.849   0.168 123.507  0.00  0.00    -0.491 OA
ATOM     23  C   LIG A   1      -9.548  -1.074 122.870  0.00  0.00    +0.277 C 
ENDBRANCH   2  22
BRANCH   4  24
ATOM     24  O   LIG A   1      -8.057   3.955 121.087  0.00  0.00    -0.494 OA
ATOM     25  C   LIG A   1      -9.144   3.838 120.172  0.00  0.00    +0.277 C 
ENDBRANCH   4  24
TORSDOF 5
ENDMDL
MODEL 8
REMARK VINA RESULT:      -6.4      3.518      5.783
REMARK  Name = NuBBE_1586
REMARK  9 active torsions:
REMARK  status: ('A' for Active; 'I' for Inactive)
REMARK    1  A    between atoms: C_1  and  O_2
REMARK    2  A    between atoms: O_2  and  C_3
REMARK    3  A    between atoms: C_4  and  O_5
REMARK    4  A    between atoms: O_5  and  C_6
REMARK    5  A    between atoms: C_8  and  O_9
REMARK    6  A    between atoms: O_9  and  C_10
REMARK    7  A    between atoms: C_14  and  C_15
REMARK    8  A    between atoms: C_18  and  O_19
REMARK    9  A    between atoms: O_19  and  C_20
REMARK                            x       y       z     vdW  Elec       q    Type
REMARK                         _______ _______ _______ _____ _____    ______ ____
ROOT
ATOM      1  C   LIG A   1      -6.269  -0.591 125.690  0.00  0.00    +0.205 A 
ATOM      2  C   LIG A   1      -7.277  -1.442 125.211  0.00  0.00    +0.169 A 
ATOM      3  C   LIG A   1      -8.257  -0.930 124.350  0.00  0.00    +0.096 A 
ATOM      4  C   LIG A   1      -8.210   0.379 123.874  0.00  0.00    +0.138 A 
ATOM      5  C   LIG A   1      -7.148   1.198 124.279  0.00  0.00    +0.109 A 
ATOM      6  C   LIG A   1      -6.232   0.740 125.237  0.00  0.00    +0.188 A 
ATOM      7  O   LIG A   1      -5.265   1.567 125.768  0.00  0.00    -0.451 OA
ATOM      8  C   LIG A   1      -5.328   2.930 125.518  0.00  0.00    +0.139 A 
ATOM      9  C   LIG A   1      -6.098   3.440 124.536  0.00  0.00    +0.098 A 
ATOM     10  C   LIG A   1      -6.918   2.536 123.722  0.00  0.00    +0.197 A 
ATOM     11  O   LIG A   1      -7.312   2.906 122.618  0.00  0.00    -0.287 OA
ENDROOT
BRANCH   8  12
ATOM     12  C   LIG A   1      -4.440   3.768 126.365  0.00  0.00    +0.018 A 
ATOM     13  C   LIG A   1      -4.818   5.042 126.825  0.00  0.00    +0.015 A 
ATOM     14  C   LIG A   1      -3.967   5.815 127.620  0.00  0.00    +0.046 A 
ATOM     15  C   LIG A   1      -2.704   5.343 127.963  0.00  0.00    +0.120 A 
ATOM     16  C   LIG A   1      -2.314   4.076 127.537  0.00  0.00    +0.046 A 
ATOM     17  C   LIG A   1      -3.170   3.301 126.744  0.00  0.00    +0.015 A 
BRANCH  15  18
ATOM     18  O   LIG A   1      -1.956   6.175 128.748  0.00  0.00    -0.495 OA
ATOM     19  C   LIG A   1      -2.522   6.466 130.021  0.00  0.00    +0.277 C 
ENDBRANCH  15  18
ENDBRANCH   8  12
BRANCH   1  21
ATOM     20  C   LIG A   1      -5.692  -0.930 127.980  0.00  0.00    +0.277 C 
ATOM     21  O   LIG A   1      -5.304  -0.916 126.612  0.00  0.00    -0.488 OA
ENDBRANCH   1  21
BRANCH   2  22
ATOM     22  O   LIG A   1      -7.344  -2.737 125.657  0.00  0.00    -0.491 OA
ATOM     23  C   LIG A   1      -8.453  -3.502 125.186  0.00  0.00    +0.277 C 
ENDBRANCH   2  22
BRANCH   4  24
ATOM     24  O   LIG A   1      -9.184   0.917 123.073  0.00  0.00    -0.494 OA
ATOM     25  C   LIG A   1     -10.371   1.377 123.715  0.00  0.00    +0.277 C 
ENDBRANCH   4  24
TORSDOF 5
ENDMDL
MODEL 9
REMARK VINA RESULT:      -6.4      5.015      7.479
REMARK  Name = NuBBE_1586
REMARK  9 active torsions:
REMARK  status: ('A' for Active; 'I' for Inactive)
REMARK    1  A    between atoms: C_1  and  O_2
REMARK    2  A    between atoms: O_2  and  C_3
REMARK    3  A    between atoms: C_4  and  O_5
REMARK    4  A    between atoms: O_5  and  C_6
REMARK    5  A    between atoms: C_8  and  O_9
REMARK    6  A    between atoms: O_9  and  C_10
REMARK    7  A    between atoms: C_14  and  C_15
REMARK    8  A    between atoms: C_18  and  O_19
REMARK    9  A    between atoms: O_19  and  C_20
REMARK                            x       y       z     vdW  Elec       q    Type
REMARK                         _______ _______ _______ _____ _____    ______ ____
ROOT
ATOM      1  C   LIG A   1     -10.961   5.872 130.059  0.00  0.00    +0.205 A 
ATOM      2  C   LIG A   1     -11.413   6.236 131.338  0.00  0.00    +0.169 A 
ATOM      3  C   LIG A   1     -10.545   6.116 132.431  0.00  0.00    +0.096 A 
ATOM      4  C   LIG A   1      -9.213   5.738 132.279  0.00  0.00    +0.138 A 
ATOM      5  C   LIG A   1      -8.739   5.468 130.988  0.00  0.00    +0.109 A 
ATOM      6  C   LIG A   1      -9.625   5.461 129.901  0.00  0.00    +0.188 A 
ATOM      7  O   LIG A   1      -9.227   5.057 128.644  0.00  0.00    -0.451 OA
ATOM      8  C   LIG A   1      -7.994   4.441 128.491  0.00  0.00    +0.139 A 
ATOM      9  C   LIG A   1      -7.043   4.501 129.445  0.00  0.00    +0.098 A 
ATOM     10  C   LIG A   1      -7.324   5.211 130.697  0.00  0.00    +0.197 A 
ATOM     11  O   LIG A   1      -6.390   5.602 131.394  0.00  0.00    -0.287 OA
ENDROOT
BRANCH   8  12
ATOM     12  C   LIG A   1      -7.781   3.774 127.180  0.00  0.00    +0.018 A 
ATOM     13  C   LIG A   1      -7.581   4.494 125.990  0.00  0.00    +0.015 A 
ATOM     14  C   LIG A   1      -7.385   3.848 124.766  0.00  0.00    +0.046 A 
ATOM     15  C   LIG A   1      -7.400   2.458 124.695  0.00  0.00    +0.120 A 
ATOM     16  C   LIG A   1      -7.575   1.721 125.864  0.00  0.00    +0.046 A 
ATOM     17  C   LIG A   1      -7.768   2.372 127.090  0.00  0.00    +0.015 A 
BRANCH  15  18
ATOM     18  O   LIG A   1      -7.191   1.927 123.454  0.00  0.00    -0.495 OA
ATOM     19  C   LIG A   1      -6.844   2.873 122.449  0.00  0.00    +0.277 C 
ENDBRANCH  15  18
ENDBRANCH   8  12
BRANCH   1  21
ATOM     20  C   LIG A   1     -11.836   7.050 128.178  0.00  0.00    +0.277 C 
ATOM     21  O   LIG A   1     -11.716   5.838 128.912  0.00  0.00    -0.488 OA
ENDBRANCH   1  21
BRANCH   2  22
ATOM     22  O   LIG A   1     -12.717   6.619 131.516  0.00  0.00    -0.491 OA
ATOM     23  C   LIG A   1     -12.959   8.026 131.518  0.00  0.00    +0.277 C 
ENDBRANCH   2  22
BRANCH   4  24
ATOM     24  O   LIG A   1      -8.360   5.564 133.339  0.00  0.00    -0.494 OA
ATOM     25  C   LIG A   1      -8.526   4.382 134.119  0.00  0.00    +0.277 C 
ENDBRANCH   4  24
TORSDOF 5
ENDMDL
