MODEL 1
REMARK VINA RESULT:      -8.8      0.000      0.000
REMARK  Name = NuBBE_2085
REMARK  16 active torsions:
REMARK  status: ('A' for Active; 'I' for Inactive)
REMARK    1  A    between atoms: C_1  and  C_10
REMARK    2  A    between atoms: C_12  and  C_39
REMARK    3  A    between atoms: C_14  and  C_30
REMARK    4  A    between atoms: C_16  and  C_18
REMARK    5  A    between atoms: C_20  and  O_21
REMARK    6  A    between atoms: O_21  and  C_22
REMARK    7  A    between atoms: C_23  and  O_28
REMARK    8  A    between atoms: C_24  and  O_26
REMARK    9  A    between atoms: O_26  and  C_27
REMARK   10  A    between atoms: O_28  and  C_29
REMARK   11  A    between atoms: C_41  and  O_42
REMARK   12  A    between atoms: O_42  and  C_43
REMARK   13  A    between atoms: C_44  and  O_49
REMARK   14  A    between atoms: C_45  and  O_47
REMARK   15  A    between atoms: O_47  and  C_48
REMARK   16  A    between atoms: O_49  and  C_50
REMARK                            x       y       z     vdW  Elec       q    Type
REMARK                         _______ _______ _______ _____ _____    ______ ____
ROOT
ATOM      1  C   LIG A   1      -7.194   2.900 126.145  0.00  0.00    +0.092 C 
ATOM      2  C   LIG A   1      -7.570   2.356 127.566  0.00  0.00    +0.044 C 
ATOM      3  C   LIG A   1      -6.058   2.102 127.782  0.00  0.00    +0.092 C 
ATOM      4  C   LIG A   1      -5.945   1.951 126.217  0.00  0.00    +0.044 C 
ENDROOT
BRANCH   1   5
ATOM      5  C   LIG A   1      -8.200   2.873 124.953  0.00  0.00    +0.226 C 
ATOM      6  O   LIG A   1      -9.415   2.644 125.134  0.00  0.00    -0.275 OA
ATOM      7  N   LIG A   1      -7.756   3.193 123.618  0.00  0.00    -0.238 N 
ATOM      8  C   LIG A   1      -6.456   3.606 123.297  0.00  0.00    +0.245 C 
ATOM      9  O   LIG A   1      -5.550   3.818 124.073  0.00  0.00    -0.270 OA
ATOM     10  C   LIG A   1      -6.133   3.863 121.868  0.00  0.00    +0.064 C 
ATOM     11  C   LIG A   1      -7.040   3.846 120.896  0.00  0.00    -0.020 C 
ATOM     12  C   LIG A   1      -8.459   3.506 121.167  0.00  0.00    +0.047 C 
ATOM     13  C   LIG A   1      -8.658   2.813 122.526  0.00  0.00    +0.120 C 
ENDBRANCH   1   5
BRANCH   3  14
ATOM     14  C   LIG A   1      -5.099   3.128 128.463  0.00  0.00    +0.226 C 
ATOM     15  O   LIG A   1      -4.452   3.949 127.813  0.00  0.00    -0.275 OA
ATOM     16  N   LIG A   1      -4.976   3.076 129.881  0.00  0.00    -0.238 N 
ATOM     17  C   LIG A   1      -5.608   2.154 130.714  0.00  0.00    +0.245 C 
ATOM     18  O   LIG A   1      -5.949   0.999 130.428  0.00  0.00    -0.270 OA
ATOM     19  C   LIG A   1      -5.837   2.580 132.112  0.00  0.00    +0.064 C 
ATOM     20  C   LIG A   1      -5.505   3.811 132.563  0.00  0.00    -0.020 C 
ATOM     21  C   LIG A   1      -4.797   4.775 131.651  0.00  0.00    +0.047 C 
ATOM     22  C   LIG A   1      -4.087   4.029 130.525  0.00  0.00    +0.120 C 
ENDBRANCH   3  14
BRANCH   4  23
ATOM     23  C   LIG A   1      -5.888   0.411 125.692  0.00  0.00    -0.036 A 
ATOM     24  C   LIG A   1      -6.346  -0.027 124.430  0.00  0.00    +0.053 A 
ATOM     25  C   LIG A   1      -6.348  -1.377 124.017  0.00  0.00    +0.165 A 
ATOM     26  C   LIG A   1      -5.850  -2.366 124.876  0.00  0.00    +0.203 A 
ATOM     27  C   LIG A   1      -5.479  -1.980 126.178  0.00  0.00    +0.165 A 
ATOM     28  C   LIG A   1      -5.485  -0.621 126.555  0.00  0.00    +0.053 A 
BRANCH  25  29
ATOM     29  O   LIG A   1      -6.822  -1.546 122.738  0.00  0.00    -0.491 OA
ATOM     30  C   LIG A   1      -8.189  -1.913 122.584  0.00  0.00    +0.277 C 
ENDBRANCH  25  29
BRANCH  27  31
ATOM     31  O   LIG A   1      -5.096  -2.959 127.055  0.00  0.00    -0.491 OA
ATOM     32  C   LIG A   1      -4.929  -2.587 128.414  0.00  0.00    +0.277 C 
ENDBRANCH  27  31
BRANCH  26  33
ATOM     33  O   LIG A   1      -5.858  -3.661 124.424  0.00  0.00    -0.488 OA
ATOM     34  C   LIG A   1      -4.688  -4.177 123.803  0.00  0.00    +0.277 C 
ENDBRANCH  26  33
ENDBRANCH   4  23
BRANCH   2  35
ATOM     35  C   LIG A   1      -8.396   3.217 128.606  0.00  0.00    -0.036 A 
ATOM     36  C   LIG A   1      -8.449   4.622 128.621  0.00  0.00    +0.053 A 
ATOM     37  C   LIG A   1      -9.052   5.339 129.682  0.00  0.00    +0.165 A 
ATOM     38  C   LIG A   1      -9.570   4.652 130.797  0.00  0.00    +0.203 A 
ATOM     39  C   LIG A   1      -9.542   3.263 130.793  0.00  0.00    +0.165 A 
ATOM     40  C   LIG A   1      -9.029   2.588 129.676  0.00  0.00    +0.053 A 
BRANCH  37  41
ATOM     41  O   LIG A   1      -8.958   6.707 129.573  0.00  0.00    -0.491 OA
ATOM     42  C   LIG A   1     -10.098   7.461 129.163  0.00  0.00    +0.277 C 
ENDBRANCH  37  41
BRANCH  39  43
ATOM     43  O   LIG A   1      -9.993   2.565 131.887  0.00  0.00    -0.491 OA
ATOM     44  C   LIG A   1      -9.503   1.224 131.922  0.00  0.00    +0.277 C 
ENDBRANCH  39  43
BRANCH  38  45
ATOM     45  O   LIG A   1     -10.060   5.433 131.789  0.00  0.00    -0.488 OA
ATOM     46  C   LIG A   1      -9.335   5.873 132.908  0.00  0.00    +0.277 C 
ENDBRANCH  38  45
ENDBRANCH   2  35
TORSDOF 10
ENDMDL
MODEL 2
REMARK VINA RESULT:      -8.7      2.798      7.555
REMARK  Name = NuBBE_2085
REMARK  16 active torsions:
REMARK  status: ('A' for Active; 'I' for Inactive)
REMARK    1  A    between atoms: C_1  and  C_10
REMARK    2  A    between atoms: C_12  and  C_39
REMARK    3  A    between atoms: C_14  and  C_30
REMARK    4  A    between atoms: C_16  and  C_18
REMARK    5  A    between atoms: C_20  and  O_21
REMARK    6  A    between atoms: O_21  and  C_22
REMARK    7  A    between atoms: C_23  and  O_28
REMARK    8  A    between atoms: C_24  and  O_26
REMARK    9  A    between atoms: O_26  and  C_27
REMARK   10  A    between atoms: O_28  and  C_29
REMARK   11  A    between atoms: C_41  and  O_42
REMARK   12  A    between atoms: O_42  and  C_43
REMARK   13  A    between atoms: C_44  and  O_49
REMARK   14  A    between atoms: C_45  and  O_47
REMARK   15  A    between atoms: O_47  and  C_48
REMARK   16  A    between atoms: O_49  and  C_50
REMARK                            x       y       z     vdW  Elec       q    Type
REMARK                         _______ _______ _______ _____ _____    ______ ____
ROOT
ATOM      1  C   LIG A   1      -7.300   0.300 129.044  0.00  0.00    +0.092 C 
ATOM      2  C   LIG A   1      -6.146   0.141 127.996  0.00  0.00    +0.044 C 
ATOM      3  C   LIG A   1      -6.761  -1.236 127.646  0.00  0.00    +0.092 C 
ATOM      4  C   LIG A   1      -7.319  -1.268 129.119  0.00  0.00    +0.044 C 
ENDROOT
BRANCH   1   5
ATOM      5  C   LIG A   1      -7.153   1.199 130.311  0.00  0.00    +0.226 C 
ATOM      6  O   LIG A   1      -6.229   1.016 131.133  0.00  0.00    -0.275 OA
ATOM      7  N   LIG A   1      -8.040   2.317 130.517  0.00  0.00    -0.238 N 
ATOM      8  C   LIG A   1      -9.024   2.723 129.606  0.00  0.00    +0.245 C 
ATOM      9  O   LIG A   1      -9.232   2.255 128.508  0.00  0.00    -0.270 OA
ATOM     10  C   LIG A   1      -9.892   3.872 129.973  0.00  0.00    +0.064 C 
ATOM     11  C   LIG A   1      -9.705   4.616 131.060  0.00  0.00    -0.020 C 
ATOM     12  C   LIG A   1      -8.626   4.309 132.031  0.00  0.00    +0.047 C 
ATOM     13  C   LIG A   1      -8.063   2.886 131.869  0.00  0.00    +0.120 C 
ENDBRANCH   1   5
BRANCH   3  14
ATOM     14  C   LIG A   1      -7.793  -1.452 126.495  0.00  0.00    +0.226 C 
ATOM     15  O   LIG A   1      -8.986  -1.182 126.627  0.00  0.00    -0.275 OA
ATOM     16  N   LIG A   1      -7.311  -1.997 125.270  0.00  0.00    -0.238 N 
ATOM     17  C   LIG A   1      -5.999  -2.398 125.024  0.00  0.00    +0.245 C 
ATOM     18  O   LIG A   1      -5.178  -2.818 125.850  0.00  0.00    -0.270 OA
ATOM     19  C   LIG A   1      -5.560  -2.382 123.611  0.00  0.00    +0.064 C 
ATOM     20  C   LIG A   1      -6.357  -1.956 122.606  0.00  0.00    -0.020 C 
ATOM     21  C   LIG A   1      -7.778  -1.558 122.895  0.00  0.00    +0.047 C 
ATOM     22  C   LIG A   1      -8.265  -2.200 124.191  0.00  0.00    +0.120 C 
ENDBRANCH   3  14
BRANCH   4  23
ATOM     23  C   LIG A   1      -6.452  -2.183 130.148  0.00  0.00    -0.036 A 
ATOM     24  C   LIG A   1      -5.152  -2.672 129.890  0.00  0.00    +0.053 A 
ATOM     25  C   LIG A   1      -4.440  -3.518 130.768  0.00  0.00    +0.165 A 
ATOM     26  C   LIG A   1      -5.017  -3.897 131.988  0.00  0.00    +0.203 A 
ATOM     27  C   LIG A   1      -6.348  -3.511 132.233  0.00  0.00    +0.165 A 
ATOM     28  C   LIG A   1      -7.028  -2.661 131.336  0.00  0.00    +0.053 A 
BRANCH  25  29
ATOM     29  O   LIG A   1      -3.187  -3.840 130.304  0.00  0.00    -0.491 OA
ATOM     30  C   LIG A   1      -2.948  -3.717 128.906  0.00  0.00    +0.277 C 
ENDBRANCH  25  29
BRANCH  27  31
ATOM     31  O   LIG A   1      -6.953  -3.970 133.373  0.00  0.00    -0.491 OA
ATOM     32  C   LIG A   1      -8.041  -3.216 133.882  0.00  0.00    +0.277 C 
ENDBRANCH  27  31
BRANCH  26  33
ATOM     33  O   LIG A   1      -4.280  -4.706 132.814  0.00  0.00    -0.488 OA
ATOM     34  C   LIG A   1      -3.457  -4.107 133.807  0.00  0.00    +0.277 C 
ENDBRANCH  26  33
ENDBRANCH   4  23
BRANCH   2  35
ATOM     35  C   LIG A   1      -5.882   1.215 126.863  0.00  0.00    -0.036 A 
ATOM     36  C   LIG A   1      -4.725   2.008 126.766  0.00  0.00    +0.053 A 
ATOM     37  C   LIG A   1      -4.625   3.077 125.843  0.00  0.00    +0.165 A 
ATOM     38  C   LIG A   1      -5.723   3.416 125.028  0.00  0.00    +0.203 A 
ATOM     39  C   LIG A   1      -6.869   2.633 125.099  0.00  0.00    +0.165 A 
ATOM     40  C   LIG A   1      -6.890   1.520 125.951  0.00  0.00    +0.053 A 
BRANCH  37  41
ATOM     41  O   LIG A   1      -3.454   3.793 125.923  0.00  0.00    -0.491 OA
ATOM     42  C   LIG A   1      -2.317   3.216 126.565  0.00  0.00    +0.277 C 
ENDBRANCH  37  41
BRANCH  39  43
ATOM     43  O   LIG A   1      -7.974   2.966 124.354  0.00  0.00    -0.491 OA
ATOM     44  C   LIG A   1      -9.029   2.012 124.482  0.00  0.00    +0.277 C 
ENDBRANCH  39  43
BRANCH  38  45
ATOM     45  O   LIG A   1      -5.549   4.497 124.232  0.00  0.00    -0.488 OA
ATOM     46  C   LIG A   1      -5.252   4.454 122.860  0.00  0.00    +0.277 C 
ENDBRANCH  38  45
ENDBRANCH   2  35
TORSDOF 10
ENDMDL
MODEL 3
REMARK VINA RESULT:      -8.7      2.132      3.902
REMARK  Name = NuBBE_2085
REMARK  16 active torsions:
REMARK  status: ('A' for Active; 'I' for Inactive)
REMARK    1  A    between atoms: C_1  and  C_10
REMARK    2  A    between atoms: C_12  and  C_39
REMARK    3  A    between atoms: C_14  and  C_30
REMARK    4  A    between atoms: C_16  and  C_18
REMARK    5  A    between atoms: C_20  and  O_21
REMARK    6  A    between atoms: O_21  and  C_22
REMARK    7  A    between atoms: C_23  and  O_28
REMARK    8  A    between atoms: C_24  and  O_26
REMARK    9  A    between atoms: O_26  and  C_27
REMARK   10  A    between atoms: O_28  and  C_29
REMARK   11  A    between atoms: C_41  and  O_42
REMARK   12  A    between atoms: O_42  and  C_43
REMARK   13  A    between atoms: C_44  and  O_49
REMARK   14  A    between atoms: C_45  and  O_47
REMARK   15  A    between atoms: O_47  and  C_48
REMARK   16  A    between atoms: O_49  and  C_50
REMARK                            x       y       z     vdW  Elec       q    Type
REMARK                         _______ _______ _______ _____ _____    ______ ____
ROOT
ATOM      1  C   LIG A   1      -7.218   3.080 127.617  0.00  0.00    +0.092 C 
ATOM      2  C   LIG A   1      -7.298   3.473 129.131  0.00  0.00    +0.044 C 
ATOM      3  C   LIG A   1      -5.753   3.577 129.104  0.00  0.00    +0.092 C 
ATOM      4  C   LIG A   1      -5.786   2.520 127.936  0.00  0.00    +0.044 C 
ENDROOT
BRANCH   1   5
ATOM      5  C   LIG A   1      -8.319   2.219 126.924  0.00  0.00    +0.226 C 
ATOM      6  O   LIG A   1      -9.096   1.500 127.589  0.00  0.00    -0.275 OA
ATOM      7  N   LIG A   1      -8.514   2.299 125.497  0.00  0.00    -0.238 N 
ATOM      8  C   LIG A   1      -7.812   3.168 124.651  0.00  0.00    +0.245 C 
ATOM      9  O   LIG A   1      -7.006   4.010 124.984  0.00  0.00    -0.270 OA
ATOM     10  C   LIG A   1      -8.093   3.110 123.192  0.00  0.00    +0.064 C 
ATOM     11  C   LIG A   1      -9.062   2.371 122.660  0.00  0.00    -0.020 C 
ATOM     12  C   LIG A   1      -9.913   1.490 123.498  0.00  0.00    +0.047 C 
ATOM     13  C   LIG A   1      -9.311   1.227 124.890  0.00  0.00    +0.120 C 
ENDBRANCH   1   5
BRANCH   3  14
ATOM     14  C   LIG A   1      -4.982   4.907 128.832  0.00  0.00    +0.226 C 
ATOM     15  O   LIG A   1      -4.999   5.458 127.732  0.00  0.00    -0.275 OA
ATOM     16  N   LIG A   1      -4.232   5.466 129.905  0.00  0.00    -0.238 N 
ATOM     17  C   LIG A   1      -4.088   4.903 131.172  0.00  0.00    +0.245 C 
ATOM     18  O   LIG A   1      -4.126   3.700 131.464  0.00  0.00    -0.270 OA
ATOM     19  C   LIG A   1      -3.794   5.838 132.279  0.00  0.00    +0.064 C 
ATOM     20  C   LIG A   1      -3.716   7.176 132.101  0.00  0.00    -0.020 C 
ATOM     21  C   LIG A   1      -3.844   7.755 130.719  0.00  0.00    +0.047 C 
ATOM     22  C   LIG A   1      -3.512   6.706 129.662  0.00  0.00    +0.120 C 
ENDBRANCH   3  14
BRANCH   4  23
ATOM     23  C   LIG A   1      -5.439   0.998 128.396  0.00  0.00    -0.036 A 
ATOM     24  C   LIG A   1      -4.823   0.646 129.618  0.00  0.00    +0.053 A 
ATOM     25  C   LIG A   1      -4.471  -0.675 129.970  0.00  0.00    +0.165 A 
ATOM     26  C   LIG A   1      -4.757  -1.729 129.092  0.00  0.00    +0.203 A 
ATOM     27  C   LIG A   1      -5.278  -1.404 127.825  0.00  0.00    +0.165 A 
ATOM     28  C   LIG A   1      -5.623  -0.074 127.507  0.00  0.00    +0.053 A 
BRANCH  25  29
ATOM     29  O   LIG A   1      -3.904  -0.763 131.219  0.00  0.00    -0.491 OA
ATOM     30  C   LIG A   1      -4.766  -1.032 132.320  0.00  0.00    +0.277 C 
ENDBRANCH  25  29
BRANCH  27  31
ATOM     31  O   LIG A   1      -5.456  -2.419 126.923  0.00  0.00    -0.491 OA
ATOM     32  C   LIG A   1      -5.939  -2.069 125.636  0.00  0.00    +0.277 C 
ENDBRANCH  27  31
BRANCH  26  33
ATOM     33  O   LIG A   1      -4.411  -2.995 129.486  0.00  0.00    -0.488 OA
ATOM     34  C   LIG A   1      -3.090  -3.456 129.233  0.00  0.00    +0.277 C 
ENDBRANCH  26  33
ENDBRANCH   4  23
BRANCH   2  35
ATOM     35  C   LIG A   1      -8.176   4.688 129.641  0.00  0.00    -0.036 A 
ATOM     36  C   LIG A   1      -8.238   5.127 130.975  0.00  0.00    +0.053 A 
ATOM     37  C   LIG A   1      -9.177   6.096 131.404  0.00  0.00    +0.165 A 
ATOM     38  C   LIG A   1     -10.129   6.608 130.499  0.00  0.00    +0.203 A 
ATOM     39  C   LIG A   1     -10.072   6.199 129.173  0.00  0.00    +0.165 A 
ATOM     40  C   LIG A   1      -9.061   5.316 128.767  0.00  0.00    +0.053 A 
BRANCH  37  41
ATOM     41  O   LIG A   1      -9.149   6.363 132.752  0.00  0.00    -0.491 OA
ATOM     42  C   LIG A   1      -8.323   5.575 133.609  0.00  0.00    +0.277 C 
ENDBRANCH  37  41
BRANCH  39  43
ATOM     43  O   LIG A   1     -11.016   6.642 128.278  0.00  0.00    -0.491 OA
ATOM     44  C   LIG A   1     -10.635   7.861 127.638  0.00  0.00    +0.277 C 
ENDBRANCH  39  43
BRANCH  38  45
ATOM     45  O   LIG A   1     -11.027   7.475 131.024  0.00  0.00    -0.488 OA
ATOM     46  C   LIG A   1     -12.326   7.143 131.442  0.00  0.00    +0.277 C 
ENDBRANCH  38  45
ENDBRANCH   2  35
TORSDOF 10
ENDMDL
MODEL 4
REMARK VINA RESULT:      -8.6      2.629      7.925
REMARK  Name = NuBBE_2085
REMARK  16 active torsions:
REMARK  status: ('A' for Active; 'I' for Inactive)
REMARK    1  A    between atoms: C_1  and  C_10
REMARK    2  A    between atoms: C_12  and  C_39
REMARK    3  A    between atoms: C_14  and  C_30
REMARK    4  A    between atoms: C_16  and  C_18
REMARK    5  A    between atoms: C_20  and  O_21
REMARK    6  A    between atoms: O_21  and  C_22
REMARK    7  A    between atoms: C_23  and  O_28
REMARK    8  A    between atoms: C_24  and  O_26
REMARK    9  A    between atoms: O_26  and  C_27
REMARK   10  A    between atoms: O_28  and  C_29
REMARK   11  A    between atoms: C_41  and  O_42
REMARK   12  A    between atoms: O_42  and  C_43
REMARK   13  A    between atoms: C_44  and  O_49
REMARK   14  A    between atoms: C_45  and  O_47
REMARK   15  A    between atoms: O_47  and  C_48
REMARK   16  A    between atoms: O_49  and  C_50
REMARK                            x       y       z     vdW  Elec       q    Type
REMARK                         _______ _______ _______ _____ _____    ______ ____
ROOT
ATOM      1  C   LIG A   1      -8.261   3.003 129.468  0.00  0.00    +0.092 C 
ATOM      2  C   LIG A   1      -7.428   1.990 128.610  0.00  0.00    +0.044 C 
ATOM      3  C   LIG A   1      -6.883   1.428 129.946  0.00  0.00    +0.092 C 
ATOM      4  C   LIG A   1      -7.136   2.860 130.555  0.00  0.00    +0.044 C 
ENDROOT
BRANCH   1   5
ATOM      5  C   LIG A   1      -8.716   4.387 128.909  0.00  0.00    +0.226 C 
ATOM      6  O   LIG A   1      -8.327   4.797 127.795  0.00  0.00    -0.275 OA
ATOM      7  N   LIG A   1      -9.665   5.190 129.640  0.00  0.00    -0.238 N 
ATOM      8  C   LIG A   1     -10.290   4.788 130.829  0.00  0.00    +0.245 C 
ATOM      9  O   LIG A   1     -10.186   3.711 131.374  0.00  0.00    -0.270 OA
ATOM     10  C   LIG A   1     -11.218   5.741 131.492  0.00  0.00    +0.064 C 
ATOM     11  C   LIG A   1     -11.587   6.901 130.956  0.00  0.00    -0.020 C 
ATOM     12  C   LIG A   1     -11.041   7.361 129.655  0.00  0.00    +0.047 C 
ATOM     13  C   LIG A   1      -9.772   6.596 129.236  0.00  0.00    +0.120 C 
ENDBRANCH   1   5
BRANCH   3  14
ATOM     14  C   LIG A   1      -7.520   0.218 130.697  0.00  0.00    +0.226 C 
ATOM     15  O   LIG A   1      -8.602   0.306 131.278  0.00  0.00    -0.275 OA
ATOM     16  N   LIG A   1      -6.796  -1.008 130.708  0.00  0.00    -0.238 N 
ATOM     17  C   LIG A   1      -5.539  -1.211 130.140  0.00  0.00    +0.245 C 
ATOM     18  O   LIG A   1      -4.646  -0.368 129.984  0.00  0.00    -0.270 OA
ATOM     19  C   LIG A   1      -5.212  -2.597 129.742  0.00  0.00    +0.064 C 
ATOM     20  C   LIG A   1      -6.091  -3.617 129.865  0.00  0.00    -0.020 C 
ATOM     21  C   LIG A   1      -7.429  -3.377 130.509  0.00  0.00    +0.047 C 
ATOM     22  C   LIG A   1      -7.383  -2.142 131.404  0.00  0.00    +0.120 C 
ENDBRANCH   3  14
BRANCH   4  23
ATOM     23  C   LIG A   1      -5.803   3.786 130.673  0.00  0.00    -0.036 A 
ATOM     24  C   LIG A   1      -5.523   4.902 129.854  0.00  0.00    +0.053 A 
ATOM     25  C   LIG A   1      -4.331   5.654 129.929  0.00  0.00    +0.165 A 
ATOM     26  C   LIG A   1      -3.355   5.318 130.877  0.00  0.00    +0.203 A 
ATOM     27  C   LIG A   1      -3.556   4.152 131.640  0.00  0.00    +0.165 A 
ATOM     28  C   LIG A   1      -4.761   3.427 131.543  0.00  0.00    +0.053 A 
BRANCH  25  29
ATOM     29  O   LIG A   1      -4.303   6.704 129.042  0.00  0.00    -0.491 OA
ATOM     30  C   LIG A   1      -3.615   6.512 127.810  0.00  0.00    +0.277 C 
ENDBRANCH  25  29
BRANCH  27  31
ATOM     31  O   LIG A   1      -2.556   3.759 132.489  0.00  0.00    -0.491 OA
ATOM     32  C   LIG A   1      -2.777   2.586 133.256  0.00  0.00    +0.277 C 
ENDBRANCH  27  31
BRANCH  26  33
ATOM     33  O   LIG A   1      -2.222   6.088 130.922  0.00  0.00    -0.488 OA
ATOM     34  C   LIG A   1      -2.182   7.199 131.809  0.00  0.00    +0.277 C 
ENDBRANCH  26  33
ENDBRANCH   4  23
BRANCH   2  35
ATOM     35  C   LIG A   1      -8.105   1.028 127.550  0.00  0.00    -0.036 A 
ATOM     36  C   LIG A   1      -7.828  -0.345 127.423  0.00  0.00    +0.053 A 
ATOM     37  C   LIG A   1      -8.323  -1.113 126.342  0.00  0.00    +0.165 A 
ATOM     38  C   LIG A   1      -9.069  -0.496 125.318  0.00  0.00    +0.203 A 
ATOM     39  C   LIG A   1      -9.367   0.856 125.435  0.00  0.00    +0.165 A 
ATOM     40  C   LIG A   1      -8.946   1.557 126.573  0.00  0.00    +0.053 A 
BRANCH  37  41
ATOM     41  O   LIG A   1      -7.903  -2.422 126.331  0.00  0.00    -0.491 OA
ATOM     42  C   LIG A   1      -8.690  -3.419 126.983  0.00  0.00    +0.277 C 
ENDBRANCH  37  41
BRANCH  39  43
ATOM     43  O   LIG A   1     -10.050   1.497 124.430  0.00  0.00    -0.491 OA
ATOM     44  C   LIG A   1      -9.184   2.220 123.554  0.00  0.00    +0.277 C 
ENDBRANCH  39  43
BRANCH  38  45
ATOM     45  O   LIG A   1      -9.436  -1.304 124.294  0.00  0.00    -0.488 OA
ATOM     46  C   LIG A   1      -8.715  -1.479 123.102  0.00  0.00    +0.277 C 
ENDBRANCH  38  45
ENDBRANCH   2  35
TORSDOF 10
ENDMDL
MODEL 5
REMARK VINA RESULT:      -8.6      2.651      7.910
REMARK  Name = NuBBE_2085
REMARK  16 active torsions:
REMARK  status: ('A' for Active; 'I' for Inactive)
REMARK    1  A    between atoms: C_1  and  C_10
REMARK    2  A    between atoms: C_12  and  C_39
REMARK    3  A    between atoms: C_14  and  C_30
REMARK    4  A    between atoms: C_16  and  C_18
REMARK    5  A    between atoms: C_20  and  O_21
REMARK    6  A    between atoms: O_21  and  C_22
REMARK    7  A    between atoms: C_23  and  O_28
REMARK    8  A    between atoms: C_24  and  O_26
REMARK    9  A    between atoms: O_26  and  C_27
REMARK   10  A    between atoms: O_28  and  C_29
REMARK   11  A    between atoms: C_41  and  O_42
REMARK   12  A    between atoms: O_42  and  C_43
REMARK   13  A    between atoms: C_44  and  O_49
REMARK   14  A    between atoms: C_45  and  O_47
REMARK   15  A    between atoms: O_47  and  C_48
REMARK   16  A    between atoms: O_49  and  C_50
REMARK                            x       y       z     vdW  Elec       q    Type
REMARK                         _______ _______ _______ _____ _____    ______ ____
ROOT
ATOM      1  C   LIG A   1      -8.180   3.103 129.405  0.00  0.00    +0.092 C 
ATOM      2  C   LIG A   1      -7.196   2.188 128.598  0.00  0.00    +0.044 C 
ATOM      3  C   LIG A   1      -6.705   1.647 129.963  0.00  0.00    +0.092 C 
ATOM      4  C   LIG A   1      -7.133   3.036 130.574  0.00  0.00    +0.044 C 
ENDROOT
BRANCH   1   5
ATOM      5  C   LIG A   1      -8.714   4.454 128.835  0.00  0.00    +0.226 C 
ATOM      6  O   LIG A   1      -8.373   4.861 127.703  0.00  0.00    -0.275 OA
ATOM      7  N   LIG A   1      -9.682   5.224 129.576  0.00  0.00    -0.238 N 
ATOM      8  C   LIG A   1     -10.256   4.816 130.787  0.00  0.00    +0.245 C 
ATOM      9  O   LIG A   1     -10.087   3.755 131.349  0.00  0.00    -0.270 OA
ATOM     10  C   LIG A   1     -11.212   5.736 131.458  0.00  0.00    +0.064 C 
ATOM     11  C   LIG A   1     -11.648   6.868 130.913  0.00  0.00    -0.020 C 
ATOM     12  C   LIG A   1     -11.158   7.328 129.590  0.00  0.00    +0.047 C 
ATOM     13  C   LIG A   1      -9.866   6.616 129.151  0.00  0.00    +0.120 C 
ENDBRANCH   1   5
BRANCH   3  14
ATOM     14  C   LIG A   1      -7.287   0.368 130.643  0.00  0.00    +0.226 C 
ATOM     15  O   LIG A   1      -8.388   0.363 131.193  0.00  0.00    -0.275 OA
ATOM     16  N   LIG A   1      -6.487  -0.810 130.627  0.00  0.00    -0.238 N 
ATOM     17  C   LIG A   1      -5.203  -0.909 130.091  0.00  0.00    +0.245 C 
ATOM     18  O   LIG A   1      -4.361  -0.007 129.998  0.00  0.00    -0.270 OA
ATOM     19  C   LIG A   1      -4.778  -2.254 129.646  0.00  0.00    +0.064 C 
ATOM     20  C   LIG A   1      -5.593  -3.331 129.699  0.00  0.00    -0.020 C 
ATOM     21  C   LIG A   1      -6.962  -3.203 130.309  0.00  0.00    +0.047 C 
ATOM     22  C   LIG A   1      -7.021  -2.007 131.256  0.00  0.00    +0.120 C 
ENDBRANCH   3  14
BRANCH   4  23
ATOM     23  C   LIG A   1      -5.902   4.074 130.810  0.00  0.00    -0.036 A 
ATOM     24  C   LIG A   1      -5.553   5.123 129.931  0.00  0.00    +0.053 A 
ATOM     25  C   LIG A   1      -4.442   5.973 130.121  0.00  0.00    +0.165 A 
ATOM     26  C   LIG A   1      -3.628   5.811 131.250  0.00  0.00    +0.203 A 
ATOM     27  C   LIG A   1      -3.886   4.714 132.093  0.00  0.00    +0.165 A 
ATOM     28  C   LIG A   1      -5.008   3.887 131.877  0.00  0.00    +0.053 A 
BRANCH  25  29
ATOM     29  O   LIG A   1      -4.326   6.930 129.141  0.00  0.00    -0.491 OA
ATOM     30  C   LIG A   1      -3.492   6.635 128.025  0.00  0.00    +0.277 C 
ENDBRANCH  25  29
BRANCH  27  31
ATOM     31  O   LIG A   1      -3.028   4.487 133.136  0.00  0.00    -0.491 OA
ATOM     32  C   LIG A   1      -3.480   4.826 134.437  0.00  0.00    +0.277 C 
ENDBRANCH  27  31
BRANCH  26  33
ATOM     33  O   LIG A   1      -2.571   6.671 131.399  0.00  0.00    -0.488 OA
ATOM     34  C   LIG A   1      -2.762   7.872 132.136  0.00  0.00    +0.277 C 
ENDBRANCH  26  33
ENDBRANCH   4  23
BRANCH   2  35
ATOM     35  C   LIG A   1      -7.701   1.194 127.474  0.00  0.00    -0.036 A 
ATOM     36  C   LIG A   1      -8.833   1.405 126.668  0.00  0.00    +0.053 A 
ATOM     37  C   LIG A   1      -9.340   0.400 125.810  0.00  0.00    +0.165 A 
ATOM     38  C   LIG A   1      -8.748  -0.878 125.787  0.00  0.00    +0.203 A 
ATOM     39  C   LIG A   1      -7.618  -1.100 126.564  0.00  0.00    +0.165 A 
ATOM     40  C   LIG A   1      -7.085  -0.047 127.321  0.00  0.00    +0.053 A 
BRANCH  37  41
ATOM     41  O   LIG A   1     -10.492   0.746 125.142  0.00  0.00    -0.491 OA
ATOM     42  C   LIG A   1     -10.403   1.410 123.882  0.00  0.00    +0.277 C 
ENDBRANCH  37  41
BRANCH  39  43
ATOM     43  O   LIG A   1      -7.046  -2.349 126.603  0.00  0.00    -0.491 OA
ATOM     44  C   LIG A   1      -5.797  -2.401 125.912  0.00  0.00    +0.277 C 
ENDBRANCH  39  43
BRANCH  38  45
ATOM     45  O   LIG A   1      -9.351  -1.788 124.986  0.00  0.00    -0.488 OA
ATOM     46  C   LIG A   1      -8.949  -2.111 123.680  0.00  0.00    +0.277 C 
ENDBRANCH  38  45
ENDBRANCH   2  35
TORSDOF 10
ENDMDL
MODEL 6
REMARK VINA RESULT:      -8.5      2.612      8.052
REMARK  Name = NuBBE_2085
REMARK  16 active torsions:
REMARK  status: ('A' for Active; 'I' for Inactive)
REMARK    1  A    between atoms: C_1  and  C_10
REMARK    2  A    between atoms: C_12  and  C_39
REMARK    3  A    between atoms: C_14  and  C_30
REMARK    4  A    between atoms: C_16  and  C_18
REMARK    5  A    between atoms: C_20  and  O_21
REMARK    6  A    between atoms: O_21  and  C_22
REMARK    7  A    between atoms: C_23  and  O_28
REMARK    8  A    between atoms: C_24  and  O_26
REMARK    9  A    between atoms: O_26  and  C_27
REMARK   10  A    between atoms: O_28  and  C_29
REMARK   11  A    between atoms: C_41  and  O_42
REMARK   12  A    between atoms: O_42  and  C_43
REMARK   13  A    between atoms: C_44  and  O_49
REMARK   14  A    between atoms: C_45  and  O_47
REMARK   15  A    between atoms: O_47  and  C_48
REMARK   16  A    between atoms: O_49  and  C_50
REMARK                            x       y       z     vdW  Elec       q    Type
REMARK                         _______ _______ _______ _____ _____    ______ ____
ROOT
ATOM      1  C   LIG A   1      -8.096   3.055 129.511  0.00  0.00    +0.092 C 
ATOM      2  C   LIG A   1      -7.293   2.044 128.623  0.00  0.00    +0.044 C 
ATOM      3  C   LIG A   1      -6.649   1.528 129.932  0.00  0.00    +0.092 C 
ATOM      4  C   LIG A   1      -6.901   2.966 130.526  0.00  0.00    +0.044 C 
ENDROOT
BRANCH   1   5
ATOM      5  C   LIG A   1      -8.623   4.414 128.953  0.00  0.00    +0.226 C 
ATOM      6  O   LIG A   1      -8.289   4.824 127.820  0.00  0.00    -0.275 OA
ATOM      7  N   LIG A   1      -9.576   5.190 129.708  0.00  0.00    -0.238 N 
ATOM      8  C   LIG A   1     -10.143   4.780 130.922  0.00  0.00    +0.245 C 
ATOM      9  O   LIG A   1      -9.979   3.715 131.476  0.00  0.00    -0.270 OA
ATOM     10  C   LIG A   1     -11.084   5.706 131.607  0.00  0.00    +0.064 C 
ATOM     11  C   LIG A   1     -11.515   6.844 131.071  0.00  0.00    -0.020 C 
ATOM     12  C   LIG A   1     -11.032   7.307 129.746  0.00  0.00    +0.047 C 
ATOM     13  C   LIG A   1      -9.751   6.586 129.291  0.00  0.00    +0.120 C 
ENDBRANCH   1   5
BRANCH   3  14
ATOM     14  C   LIG A   1      -7.205   0.320 130.749  0.00  0.00    +0.226 C 
ATOM     15  O   LIG A   1      -8.228   0.404 131.427  0.00  0.00    -0.275 OA
ATOM     16  N   LIG A   1      -6.473  -0.901 130.703  0.00  0.00    -0.238 N 
ATOM     17  C   LIG A   1      -5.271  -1.099 130.024  0.00  0.00    +0.245 C 
ATOM     18  O   LIG A   1      -4.403  -0.251 129.778  0.00  0.00    -0.270 OA
ATOM     19  C   LIG A   1      -4.971  -2.486 129.608  0.00  0.00    +0.064 C 
ATOM     20  C   LIG A   1      -5.826  -3.511 129.819  0.00  0.00    -0.020 C 
ATOM     21  C   LIG A   1      -7.101  -3.276 130.582  0.00  0.00    +0.047 C 
ATOM     22  C   LIG A   1      -6.984  -2.033 131.459  0.00  0.00    +0.120 C 
ENDBRANCH   3  14
BRANCH   4  23
ATOM     23  C   LIG A   1      -5.589   3.929 130.538  0.00  0.00    -0.036 A 
ATOM     24  C   LIG A   1      -5.356   4.960 131.475  0.00  0.00    +0.053 A 
ATOM     25  C   LIG A   1      -4.243   5.827 131.431  0.00  0.00    +0.165 A 
ATOM     26  C   LIG A   1      -3.279   5.670 130.425  0.00  0.00    +0.203 A 
ATOM     27  C   LIG A   1      -3.530   4.720 129.418  0.00  0.00    +0.165 A 
ATOM     28  C   LIG A   1      -4.650   3.867 129.496  0.00  0.00    +0.053 A 
BRANCH  25  29
ATOM     29  O   LIG A   1      -4.228   6.733 132.465  0.00  0.00    -0.491 OA
ATOM     30  C   LIG A   1      -4.453   6.238 133.781  0.00  0.00    +0.277 C 
ENDBRANCH  25  29
BRANCH  27  31
ATOM     31  O   LIG A   1      -2.647   4.639 128.375  0.00  0.00    -0.491 OA
ATOM     32  C   LIG A   1      -2.622   3.429 127.634  0.00  0.00    +0.277 C 
ENDBRANCH  27  31
BRANCH  26  33
ATOM     33  O   LIG A   1      -2.208   6.526 130.434  0.00  0.00    -0.488 OA
ATOM     34  C   LIG A   1      -1.157   6.300 131.365  0.00  0.00    +0.277 C 
ENDBRANCH  26  33
ENDBRANCH   4  23
BRANCH   2  35
ATOM     35  C   LIG A   1      -8.010   1.041 127.630  0.00  0.00    -0.036 A 
ATOM     36  C   LIG A   1      -7.735  -0.335 127.545  0.00  0.00    +0.053 A 
ATOM     37  C   LIG A   1      -8.271  -1.145 126.515  0.00  0.00    +0.165 A 
ATOM     38  C   LIG A   1      -9.060  -0.570 125.499  0.00  0.00    +0.203 A 
ATOM     39  C   LIG A   1      -9.357   0.785 125.576  0.00  0.00    +0.165 A 
ATOM     40  C   LIG A   1      -8.891   1.531 126.668  0.00  0.00    +0.053 A 
BRANCH  37  41
ATOM     41  O   LIG A   1      -7.849  -2.453 126.539  0.00  0.00    -0.491 OA
ATOM     42  C   LIG A   1      -8.632  -3.434 127.220  0.00  0.00    +0.277 C 
ENDBRANCH  37  41
BRANCH  39  43
ATOM     43  O   LIG A   1     -10.081   1.386 124.575  0.00  0.00    -0.491 OA
ATOM     44  C   LIG A   1      -9.255   2.096 123.651  0.00  0.00    +0.277 C 
ENDBRANCH  39  43
BRANCH  38  45
ATOM     45  O   LIG A   1      -9.466  -1.417 124.524  0.00  0.00    -0.488 OA
ATOM     46  C   LIG A   1      -8.804  -1.623 123.302  0.00  0.00    +0.277 C 
ENDBRANCH  38  45
ENDBRANCH   2  35
TORSDOF 10
ENDMDL
MODEL 7
REMARK VINA RESULT:      -8.5      2.633      6.254
REMARK  Name = NuBBE_2085
REMARK  16 active torsions:
REMARK  status: ('A' for Active; 'I' for Inactive)
REMARK    1  A    between atoms: C_1  and  C_10
REMARK    2  A    between atoms: C_12  and  C_39
REMARK    3  A    between atoms: C_14  and  C_30
REMARK    4  A    between atoms: C_16  and  C_18
REMARK    5  A    between atoms: C_20  and  O_21
REMARK    6  A    between atoms: O_21  and  C_22
REMARK    7  A    between atoms: C_23  and  O_28
REMARK    8  A    between atoms: C_24  and  O_26
REMARK    9  A    between atoms: O_26  and  C_27
REMARK   10  A    between atoms: O_28  and  C_29
REMARK   11  A    between atoms: C_41  and  O_42
REMARK   12  A    between atoms: O_42  and  C_43
REMARK   13  A    between atoms: C_44  and  O_49
REMARK   14  A    between atoms: C_45  and  O_47
REMARK   15  A    between atoms: O_47  and  C_48
REMARK   16  A    between atoms: O_49  and  C_50
REMARK                            x       y       z     vdW  Elec       q    Type
REMARK                         _______ _______ _______ _____ _____    ______ ____
ROOT
ATOM      1  C   LIG A   1      -6.781   0.910 129.411  0.00  0.00    +0.092 C 
ATOM      2  C   LIG A   1      -6.639   2.432 129.068  0.00  0.00    +0.044 C 
ATOM      3  C   LIG A   1      -8.185   2.482 129.006  0.00  0.00    +0.092 C 
ATOM      4  C   LIG A   1      -8.136   0.955 128.618  0.00  0.00    +0.044 C 
ENDROOT
BRANCH   1   5
ATOM      5  C   LIG A   1      -5.656  -0.122 129.091  0.00  0.00    +0.226 C 
ATOM      6  O   LIG A   1      -4.635   0.209 128.451  0.00  0.00    -0.275 OA
ATOM      7  N   LIG A   1      -5.737  -1.469 129.601  0.00  0.00    -0.238 N 
ATOM      8  C   LIG A   1      -6.752  -1.932 130.450  0.00  0.00    +0.245 C 
ATOM      9  O   LIG A   1      -7.653  -1.277 130.927  0.00  0.00    -0.270 OA
ATOM     10  C   LIG A   1      -6.725  -3.359 130.864  0.00  0.00    +0.064 C 
ATOM     11  C   LIG A   1      -5.726  -4.189 130.578  0.00  0.00    -0.020 C 
ATOM     12  C   LIG A   1      -4.568  -3.751 129.759  0.00  0.00    +0.047 C 
ATOM     13  C   LIG A   1      -4.842  -2.452 128.982  0.00  0.00    +0.120 C 
ENDBRANCH   1   5
BRANCH   3  14
ATOM     14  C   LIG A   1      -9.085   2.873 130.220  0.00  0.00    +0.226 C 
ATOM     15  O   LIG A   1      -9.495   2.038 131.026  0.00  0.00    -0.275 OA
ATOM     16  N   LIG A   1      -9.440   4.244 130.364  0.00  0.00    -0.238 N 
ATOM     17  C   LIG A   1      -9.089   5.268 129.484  0.00  0.00    +0.245 C 
ATOM     18  O   LIG A   1      -8.875   5.168 128.269  0.00  0.00    -0.270 OA
ATOM     19  C   LIG A   1      -9.031   6.632 130.051  0.00  0.00    +0.064 C 
ATOM     20  C   LIG A   1      -9.251   6.887 131.361  0.00  0.00    -0.020 C 
ATOM     21  C   LIG A   1      -9.658   5.770 132.282  0.00  0.00    +0.047 C 
ATOM     22  C   LIG A   1     -10.276   4.619 131.493  0.00  0.00    +0.120 C 
ENDBRANCH   3  14
BRANCH   4  23
ATOM     23  C   LIG A   1      -8.318   0.659 127.028  0.00  0.00    -0.036 A 
ATOM     24  C   LIG A   1      -8.228   1.636 126.011  0.00  0.00    +0.053 A 
ATOM     25  C   LIG A   1      -8.453   1.371 124.643  0.00  0.00    +0.165 A 
ATOM     26  C   LIG A   1      -8.764   0.069 124.229  0.00  0.00    +0.203 A 
ATOM     27  C   LIG A   1      -8.961  -0.907 125.224  0.00  0.00    +0.165 A 
ATOM     28  C   LIG A   1      -8.722  -0.610 126.581  0.00  0.00    +0.053 A 
BRANCH  25  29
ATOM     29  O   LIG A   1      -8.285   2.480 123.848  0.00  0.00    -0.491 OA
ATOM     30  C   LIG A   1      -7.864   3.686 124.476  0.00  0.00    +0.277 C 
ENDBRANCH  25  29
BRANCH  27  31
ATOM     31  O   LIG A   1      -9.371  -2.153 124.831  0.00  0.00    -0.491 OA
ATOM     32  C   LIG A   1      -9.520  -3.138 125.841  0.00  0.00    +0.277 C 
ENDBRANCH  27  31
BRANCH  26  33
ATOM     33  O   LIG A   1      -8.958  -0.141 122.888  0.00  0.00    -0.488 OA
ATOM     34  C   LIG A   1     -10.221   0.179 122.319  0.00  0.00    +0.277 C 
ENDBRANCH  26  33
ENDBRANCH   4  23
BRANCH   2  35
ATOM     35  C   LIG A   1      -5.839   3.435 129.996  0.00  0.00    -0.036 A 
ATOM     36  C   LIG A   1      -5.493   3.183 131.335  0.00  0.00    +0.053 A 
ATOM     37  C   LIG A   1      -4.942   4.186 132.169  0.00  0.00    +0.165 A 
ATOM     38  C   LIG A   1      -4.781   5.500 131.685  0.00  0.00    +0.203 A 
ATOM     39  C   LIG A   1      -5.101   5.763 130.359  0.00  0.00    +0.165 A 
ATOM     40  C   LIG A   1      -5.547   4.718 129.538  0.00  0.00    +0.053 A 
BRANCH  37  41
ATOM     41  O   LIG A   1      -4.724   3.793 133.468  0.00  0.00    -0.491 OA
ATOM     42  C   LIG A   1      -3.507   3.130 133.808  0.00  0.00    +0.277 C 
ENDBRANCH  37  41
BRANCH  39  43
ATOM     43  O   LIG A   1      -5.002   7.044 129.871  0.00  0.00    -0.491 OA
ATOM     44  C   LIG A   1      -3.786   7.265 129.156  0.00  0.00    +0.277 C 
ENDBRANCH  39  43
BRANCH  38  45
ATOM     45  O   LIG A   1      -4.312   6.400 132.582  0.00  0.00    -0.488 OA
ATOM     46  C   LIG A   1      -2.961   6.735 132.763  0.00  0.00    +0.277 C 
ENDBRANCH  38  45
ENDBRANCH   2  35
TORSDOF 10
ENDMDL
MODEL 8
REMARK VINA RESULT:      -8.3      2.589      8.496
REMARK  Name = NuBBE_2085
REMARK  16 active torsions:
REMARK  status: ('A' for Active; 'I' for Inactive)
REMARK    1  A    between atoms: C_1  and  C_10
REMARK    2  A    between atoms: C_12  and  C_39
REMARK    3  A    between atoms: C_14  and  C_30
REMARK    4  A    between atoms: C_16  and  C_18
REMARK    5  A    between atoms: C_20  and  O_21
REMARK    6  A    between atoms: O_21  and  C_22
REMARK    7  A    between atoms: C_23  and  O_28
REMARK    8  A    between atoms: C_24  and  O_26
REMARK    9  A    between atoms: O_26  and  C_27
REMARK   10  A    between atoms: O_28  and  C_29
REMARK   11  A    between atoms: C_41  and  O_42
REMARK   12  A    between atoms: O_42  and  C_43
REMARK   13  A    between atoms: C_44  and  O_49
REMARK   14  A    between atoms: C_45  and  O_47
REMARK   15  A    between atoms: O_47  and  C_48
REMARK   16  A    between atoms: O_49  and  C_50
REMARK                            x       y       z     vdW  Elec       q    Type
REMARK                         _______ _______ _______ _____ _____    ______ ____
ROOT
ATOM      1  C   LIG A   1      -6.373   0.355 129.956  0.00  0.00    +0.092 C 
ATOM      2  C   LIG A   1      -7.419   1.076 129.040  0.00  0.00    +0.044 C 
ATOM      3  C   LIG A   1      -6.491   2.314 129.089  0.00  0.00    +0.092 C 
ATOM      4  C   LIG A   1      -5.995   1.784 130.487  0.00  0.00    +0.044 C 
ENDROOT
BRANCH   1   5
ATOM      5  C   LIG A   1      -6.770  -0.816 130.909  0.00  0.00    +0.226 C 
ATOM      6  O   LIG A   1      -7.714  -0.701 131.720  0.00  0.00    -0.275 OA
ATOM      7  N   LIG A   1      -6.102  -2.090 130.813  0.00  0.00    -0.238 N 
ATOM      8  C   LIG A   1      -5.128  -2.401 129.855  0.00  0.00    +0.245 C 
ATOM      9  O   LIG A   1      -4.756  -1.695 128.943  0.00  0.00    -0.270 OA
ATOM     10  C   LIG A   1      -4.497  -3.746 129.905  0.00  0.00    +0.064 C 
ATOM     11  C   LIG A   1      -4.893  -4.714 130.727  0.00  0.00    -0.020 C 
ATOM     12  C   LIG A   1      -5.981  -4.495 131.712  0.00  0.00    +0.047 C 
ATOM     13  C   LIG A   1      -6.283  -3.004 131.946  0.00  0.00    +0.120 C 
ENDBRANCH   1   5
BRANCH   3  14
ATOM     14  C   LIG A   1      -5.395   2.613 128.018  0.00  0.00    +0.226 C 
ATOM     15  O   LIG A   1      -4.283   2.088 128.056  0.00  0.00    -0.275 OA
ATOM     16  N   LIG A   1      -5.716   3.541 126.986  0.00  0.00    -0.238 N 
ATOM     17  C   LIG A   1      -6.915   4.243 126.873  0.00  0.00    +0.245 C 
ATOM     18  O   LIG A   1      -7.668   4.588 127.794  0.00  0.00    -0.270 OA
ATOM     19  C   LIG A   1      -7.296   4.681 125.513  0.00  0.00    +0.064 C 
ATOM     20  C   LIG A   1      -6.561   4.381 124.419  0.00  0.00    -0.020 C 
ATOM     21  C   LIG A   1      -5.256   3.649 124.572  0.00  0.00    +0.047 C 
ATOM     22  C   LIG A   1      -4.702   3.824 125.983  0.00  0.00    +0.120 C 
ENDBRANCH   3  14
BRANCH   4  23
ATOM     23  C   LIG A   1      -6.666   2.532 131.767  0.00  0.00    -0.036 A 
ATOM     24  C   LIG A   1      -7.812   3.356 131.708  0.00  0.00    +0.053 A 
ATOM     25  C   LIG A   1      -8.341   4.049 132.819  0.00  0.00    +0.165 A 
ATOM     26  C   LIG A   1      -7.734   3.916 134.075  0.00  0.00    +0.203 A 
ATOM     27  C   LIG A   1      -6.534   3.185 134.150  0.00  0.00    +0.165 A 
ATOM     28  C   LIG A   1      -6.035   2.501 133.022  0.00  0.00    +0.053 A 
BRANCH  25  29
ATOM     29  O   LIG A   1      -9.473   4.767 132.512  0.00  0.00    -0.491 OA
ATOM     30  C   LIG A   1      -9.301   6.084 131.998  0.00  0.00    +0.277 C 
ENDBRANCH  25  29
BRANCH  27  31
ATOM     31  O   LIG A   1      -5.879   3.144 135.352  0.00  0.00    -0.491 OA
ATOM     32  C   LIG A   1      -4.622   3.797 135.432  0.00  0.00    +0.277 C 
ENDBRANCH  27  31
BRANCH  26  33
ATOM     33  O   LIG A   1      -8.295   4.596 135.125  0.00  0.00    -0.488 OA
ATOM     34  C   LIG A   1      -7.796   5.886 135.453  0.00  0.00    +0.277 C 
ENDBRANCH  26  33
ENDBRANCH   4  23
BRANCH   2  35
ATOM     35  C   LIG A   1      -7.882   0.472 127.651  0.00  0.00    -0.036 A 
ATOM     36  C   LIG A   1      -8.658   1.156 126.699  0.00  0.00    +0.053 A 
ATOM     37  C   LIG A   1      -9.195   0.506 125.562  0.00  0.00    +0.165 A 
ATOM     38  C   LIG A   1      -9.011  -0.880 125.386  0.00  0.00    +0.203 A 
ATOM     39  C   LIG A   1      -8.233  -1.569 126.308  0.00  0.00    +0.165 A 
ATOM     40  C   LIG A   1      -7.633  -0.868 127.363  0.00  0.00    +0.053 A 
BRANCH  37  41
ATOM     41  O   LIG A   1      -9.985   1.303 124.768  0.00  0.00    -0.491 OA
ATOM     42  C   LIG A   1      -9.387   2.074 123.727  0.00  0.00    +0.277 C 
ENDBRANCH  37  41
BRANCH  39  43
ATOM     43  O   LIG A   1      -8.076  -2.929 126.191  0.00  0.00    -0.491 OA
ATOM     44  C   LIG A   1      -9.007  -3.659 126.992  0.00  0.00    +0.277 C 
ENDBRANCH  39  43
BRANCH  38  45
ATOM     45  O   LIG A   1      -9.624  -1.418 124.305  0.00  0.00    -0.488 OA
ATOM     46  C   LIG A   1      -9.025  -1.617 123.050  0.00  0.00    +0.277 C 
ENDBRANCH  38  45
ENDBRANCH   2  35
TORSDOF 10
ENDMDL
MODEL 9
REMARK VINA RESULT:      -8.3      2.796      7.503
REMARK  Name = NuBBE_2085
REMARK  16 active torsions:
REMARK  status: ('A' for Active; 'I' for Inactive)
REMARK    1  A    between atoms: C_1  and  C_10
REMARK    2  A    between atoms: C_12  and  C_39
REMARK    3  A    between atoms: C_14  and  C_30
REMARK    4  A    between atoms: C_16  and  C_18
REMARK    5  A    between atoms: C_20  and  O_21
REMARK    6  A    between atoms: O_21  and  C_22
REMARK    7  A    between atoms: C_23  and  O_28
REMARK    8  A    between atoms: C_24  and  O_26
REMARK    9  A    between atoms: O_26  and  C_27
REMARK   10  A    between atoms: O_28  and  C_29
REMARK   11  A    between atoms: C_41  and  O_42
REMARK   12  A    between atoms: O_42  and  C_43
REMARK   13  A    between atoms: C_44  and  O_49
REMARK   14  A    between atoms: C_45  and  O_47
REMARK   15  A    between atoms: O_47  and  C_48
REMARK   16  A    between atoms: O_49  and  C_50
REMARK                            x       y       z     vdW  Elec       q    Type
REMARK                         _______ _______ _______ _____ _____    ______ ____
ROOT
ATOM      1  C   LIG A   1      -7.586   0.543 129.506  0.00  0.00    +0.092 C 
ATOM      2  C   LIG A   1      -6.382   0.629 128.507  0.00  0.00    +0.044 C 
ATOM      3  C   LIG A   1      -6.835  -0.749 127.965  0.00  0.00    +0.092 C 
ATOM      4  C   LIG A   1      -7.444  -1.017 129.394  0.00  0.00    +0.044 C 
ENDROOT
BRANCH   1   5
ATOM      5  C   LIG A   1      -7.583   1.289 130.877  0.00  0.00    +0.226 C 
ATOM      6  O   LIG A   1      -6.779   0.980 131.782  0.00  0.00    -0.275 OA
ATOM      7  N   LIG A   1      -8.462   2.411 131.096  0.00  0.00    -0.238 N 
ATOM      8  C   LIG A   1      -9.310   2.953 130.120  0.00  0.00    +0.245 C 
ATOM      9  O   LIG A   1      -9.385   2.618 128.958  0.00  0.00    -0.270 OA
ATOM     10  C   LIG A   1     -10.190   4.087 130.505  0.00  0.00    +0.064 C 
ATOM     11  C   LIG A   1     -10.128   4.698 131.685  0.00  0.00    -0.020 C 
ATOM     12  C   LIG A   1      -9.192   4.244 132.743  0.00  0.00    +0.047 C 
ATOM     13  C   LIG A   1      -8.647   2.827 132.491  0.00  0.00    +0.120 C 
ENDBRANCH   1   5
BRANCH   3  14
ATOM     14  C   LIG A   1      -7.793  -0.923 126.745  0.00  0.00    +0.226 C 
ATOM     15  O   LIG A   1      -8.943  -0.483 126.749  0.00  0.00    -0.275 OA
ATOM     16  N   LIG A   1      -7.299  -1.632 125.613  0.00  0.00    -0.238 N 
ATOM     17  C   LIG A   1      -6.041  -2.226 125.517  0.00  0.00    +0.245 C 
ATOM     18  O   LIG A   1      -5.356  -2.679 126.443  0.00  0.00    -0.270 OA
ATOM     19  C   LIG A   1      -5.494  -2.392 124.153  0.00  0.00    +0.064 C 
ATOM     20  C   LIG A   1      -6.140  -1.951 123.050  0.00  0.00    -0.020 C 
ATOM     21  C   LIG A   1      -7.509  -1.342 123.180  0.00  0.00    +0.047 C 
ATOM     22  C   LIG A   1      -8.183  -1.797 124.471  0.00  0.00    +0.120 C 
ENDBRANCH   3  14
BRANCH   4  23
ATOM     23  C   LIG A   1      -6.526  -1.961 130.350  0.00  0.00    -0.036 A 
ATOM     24  C   LIG A   1      -5.221  -2.400 130.034  0.00  0.00    +0.053 A 
ATOM     25  C   LIG A   1      -4.466  -3.272 130.848  0.00  0.00    +0.165 A 
ATOM     26  C   LIG A   1      -5.000  -3.730 132.060  0.00  0.00    +0.203 A 
ATOM     27  C   LIG A   1      -6.334  -3.394 132.358  0.00  0.00    +0.165 A 
ATOM     28  C   LIG A   1      -7.059  -2.517 131.525  0.00  0.00    +0.053 A 
BRANCH  25  29
ATOM     29  O   LIG A   1      -3.217  -3.535 130.336  0.00  0.00    -0.491 OA
ATOM     30  C   LIG A   1      -3.107  -3.728 128.930  0.00  0.00    +0.277 C 
ENDBRANCH  25  29
BRANCH  27  31
ATOM     31  O   LIG A   1      -6.896  -3.928 133.486  0.00  0.00    -0.491 OA
ATOM     32  C   LIG A   1      -7.683  -3.067 134.293  0.00  0.00    +0.277 C 
ENDBRANCH  27  31
BRANCH  26  33
ATOM     33  O   LIG A   1      -4.221  -4.561 132.822  0.00  0.00    -0.488 OA
ATOM     34  C   LIG A   1      -3.377  -3.992 133.815  0.00  0.00    +0.277 C 
ENDBRANCH  26  33
ENDBRANCH   4  23
BRANCH   2  35
ATOM     35  C   LIG A   1      -6.187   1.855 127.524  0.00  0.00    -0.036 A 
ATOM     36  C   LIG A   1      -7.200   2.402 126.716  0.00  0.00    +0.053 A 
ATOM     37  C   LIG A   1      -6.925   3.374 125.725  0.00  0.00    +0.165 A 
ATOM     38  C   LIG A   1      -5.598   3.780 125.479  0.00  0.00    +0.203 A 
ATOM     39  C   LIG A   1      -4.586   3.263 126.279  0.00  0.00    +0.165 A 
ATOM     40  C   LIG A   1      -4.914   2.381 127.318  0.00  0.00    +0.053 A 
BRANCH  37  41
ATOM     41  O   LIG A   1      -8.015   3.753 124.978  0.00  0.00    -0.491 OA
ATOM     42  C   LIG A   1      -8.725   2.775 124.220  0.00  0.00    +0.277 C 
ENDBRANCH  37  41
BRANCH  39  43
ATOM     43  O   LIG A   1      -3.278   3.601 126.033  0.00  0.00    -0.491 OA
ATOM     44  C   LIG A   1      -2.633   4.165 127.176  0.00  0.00    +0.277 C 
ENDBRANCH  39  43
BRANCH  38  45
ATOM     45  O   LIG A   1      -5.435   4.660 124.463  0.00  0.00    -0.488 OA
ATOM     46  C   LIG A   1      -5.374   4.324 123.101  0.00  0.00    +0.277 C 
ENDBRANCH  38  45
ENDBRANCH   2  35
TORSDOF 10
ENDMDL
