MODEL 1
REMARK VINA RESULT:      -7.3      0.000      0.000
REMARK  Name = NuBBE_1710
REMARK  2 active torsions:
REMARK  status: ('A' for Active; 'I' for Inactive)
REMARK    1  A    between atoms: C_4  and  O_5
REMARK    2  A    between atoms: C_13  and  O_14
REMARK                            x       y       z     vdW  Elec       q    Type
REMARK                         _______ _______ _______ _____ _____    ______ ____
ROOT
ATOM      1  O   LIG A   1     -11.499   6.098 132.452  0.00  0.00    -0.286 OA
ATOM      2  C   LIG A   1     -10.672   6.526 131.655  0.00  0.00    +0.204 A 
ATOM      3  C   LIG A   1     -11.102   7.213 130.430  0.00  0.00    +0.106 A 
ATOM      4  C   LIG A   1     -12.455   7.402 130.134  0.00  0.00    +0.131 A 
ATOM      5  C   LIG A   1     -12.830   8.058 128.965  0.00  0.00    +0.046 A 
ATOM      6  C   LIG A   1     -11.851   8.528 128.088  0.00  0.00    +0.007 A 
ATOM      7  C   LIG A   1     -10.498   8.339 128.383  0.00  0.00    +0.047 A 
ATOM      8  C   LIG A   1     -10.121   7.681 129.556  0.00  0.00    +0.143 A 
ATOM      9  O   LIG A   1      -8.770   7.537 129.770  0.00  0.00    -0.454 OA
ATOM     10  C   LIG A   1      -8.356   6.897 130.912  0.00  0.00    +0.143 A 
ATOM     11  C   LIG A   1      -6.976   6.771 131.092  0.00  0.00    +0.092 A 
ATOM     12  C   LIG A   1      -6.492   6.131 132.231  0.00  0.00    +0.120 A 
ATOM     13  C   LIG A   1      -7.360   5.615 133.190  0.00  0.00    +0.046 A 
ATOM     14  C   LIG A   1      -8.738   5.739 133.011  0.00  0.00    +0.019 A 
ATOM     15  C   LIG A   1      -9.228   6.380 131.870  0.00  0.00    +0.065 A 
ENDROOT
BRANCH   4  16
ATOM     16  O   LIG A   1     -13.464   6.967 130.951  0.00  0.00    -0.506 OA
ATOM     17  H   LIG A   1     -13.051   6.573 131.754  0.00  0.00    +0.292 HD
ENDBRANCH   4  16
BRANCH  12  18
ATOM     18  O   LIG A   1      -5.154   5.985 132.451  0.00  0.00    -0.507 OA
ATOM     19  H   LIG A   1      -4.791   5.357 131.806  0.00  0.00    +0.292 HD
ENDBRANCH  12  18
TORSDOF 2
ENDMDL
MODEL 2
REMARK VINA RESULT:      -7.0     10.770     11.111
REMARK  Name = NuBBE_1710
REMARK  2 active torsions:
REMARK  status: ('A' for Active; 'I' for Inactive)
REMARK    1  A    between atoms: C_4  and  O_5
REMARK    2  A    between atoms: C_13  and  O_14
REMARK                            x       y       z     vdW  Elec       q    Type
REMARK                         _______ _______ _______ _____ _____    ______ ____
ROOT
ATOM      1  O   LIG A   1      -9.971  -3.264 126.037  0.00  0.00    -0.286 OA
ATOM      2  C   LIG A   1      -8.791  -2.933 126.076  0.00  0.00    +0.204 A 
ATOM      3  C   LIG A   1      -8.085  -2.541 124.851  0.00  0.00    +0.106 A 
ATOM      4  C   LIG A   1      -8.727  -2.530 123.608  0.00  0.00    +0.131 A 
ATOM      5  C   LIG A   1      -8.029  -2.152 122.465  0.00  0.00    +0.046 A 
ATOM      6  C   LIG A   1      -6.686  -1.784 122.561  0.00  0.00    +0.007 A 
ATOM      7  C   LIG A   1      -6.044  -1.795 123.801  0.00  0.00    +0.047 A 
ATOM      8  C   LIG A   1      -6.743  -2.174 124.950  0.00  0.00    +0.143 A 
ATOM      9  O   LIG A   1      -6.037  -2.157 126.130  0.00  0.00    -0.454 OA
ATOM     10  C   LIG A   1      -6.687  -2.522 127.283  0.00  0.00    +0.143 A 
ATOM     11  C   LIG A   1      -5.936  -2.492 128.460  0.00  0.00    +0.092 A 
ATOM     12  C   LIG A   1      -6.538  -2.851 129.665  0.00  0.00    +0.120 A 
ATOM     13  C   LIG A   1      -7.874  -3.239 129.712  0.00  0.00    +0.046 A 
ATOM     14  C   LIG A   1      -8.627  -3.270 128.538  0.00  0.00    +0.019 A 
ATOM     15  C   LIG A   1      -8.026  -2.911 127.328  0.00  0.00    +0.065 A 
ENDROOT
BRANCH   4  16
ATOM     16  O   LIG A   1     -10.040  -2.879 123.445  0.00  0.00    -0.506 OA
ATOM     17  H   LIG A   1     -10.484  -2.155 122.947  0.00  0.00    +0.292 HD
ENDBRANCH   4  16
BRANCH  12  18
ATOM     18  O   LIG A   1      -5.845  -2.836 130.838  0.00  0.00    -0.507 OA
ATOM     19  H   LIG A   1      -4.981  -2.418 130.694  0.00  0.00    +0.292 HD
ENDBRANCH  12  18
TORSDOF 2
ENDMDL
MODEL 3
REMARK VINA RESULT:      -7.0      9.020     10.511
REMARK  Name = NuBBE_1710
REMARK  2 active torsions:
REMARK  status: ('A' for Active; 'I' for Inactive)
REMARK    1  A    between atoms: C_4  and  O_5
REMARK    2  A    between atoms: C_13  and  O_14
REMARK                            x       y       z     vdW  Elec       q    Type
REMARK                         _______ _______ _______ _____ _____    ______ ____
ROOT
ATOM      1  O   LIG A   1      -5.191   4.108 123.483  0.00  0.00    -0.286 OA
ATOM      2  C   LIG A   1      -6.175   3.804 122.819  0.00  0.00    +0.204 A 
ATOM      3  C   LIG A   1      -6.288   4.220 121.416  0.00  0.00    +0.106 A 
ATOM      4  C   LIG A   1      -5.286   4.970 120.793  0.00  0.00    +0.131 A 
ATOM      5  C   LIG A   1      -5.423   5.349 119.460  0.00  0.00    +0.046 A 
ATOM      6  C   LIG A   1      -6.564   4.978 118.747  0.00  0.00    +0.007 A 
ATOM      7  C   LIG A   1      -7.565   4.228 119.369  0.00  0.00    +0.047 A 
ATOM      8  C   LIG A   1      -7.429   3.848 120.706  0.00  0.00    +0.143 A 
ATOM      9  O   LIG A   1      -8.461   3.112 121.241  0.00  0.00    -0.454 OA
ATOM     10  C   LIG A   1      -8.367   2.717 122.553  0.00  0.00    +0.143 A 
ATOM     11  C   LIG A   1      -9.434   1.971 123.059  0.00  0.00    +0.092 A 
ATOM     12  C   LIG A   1      -9.399   1.540 124.384  0.00  0.00    +0.120 A 
ATOM     13  C   LIG A   1      -8.318   1.840 125.208  0.00  0.00    +0.046 A 
ATOM     14  C   LIG A   1      -7.251   2.584 124.705  0.00  0.00    +0.019 A 
ATOM     15  C   LIG A   1      -7.283   3.020 123.377  0.00  0.00    +0.065 A 
ENDROOT
BRANCH   4  16
ATOM     16  O   LIG A   1      -4.144   5.366 121.435  0.00  0.00    -0.506 OA
ATOM     17  H   LIG A   1      -3.809   6.173 120.982  0.00  0.00    +0.292 HD
ENDBRANCH   4  16
BRANCH  12  18
ATOM     18  O   LIG A   1     -10.417   0.810 124.921  0.00  0.00    -0.507 OA
ATOM     19  H   LIG A   1     -10.050   0.153 125.534  0.00  0.00    +0.292 HD
ENDBRANCH  12  18
TORSDOF 2
ENDMDL
MODEL 4
REMARK VINA RESULT:      -6.9      1.896      3.038
REMARK  Name = NuBBE_1710
REMARK  2 active torsions:
REMARK  status: ('A' for Active; 'I' for Inactive)
REMARK    1  A    between atoms: C_4  and  O_5
REMARK    2  A    between atoms: C_13  and  O_14
REMARK                            x       y       z     vdW  Elec       q    Type
REMARK                         _______ _______ _______ _____ _____    ______ ____
ROOT
ATOM      1  O   LIG A   1      -9.069   5.852 128.081  0.00  0.00    -0.286 OA
ATOM      2  C   LIG A   1      -9.851   6.154 128.976  0.00  0.00    +0.204 A 
ATOM      3  C   LIG A   1     -11.179   6.692 128.656  0.00  0.00    +0.106 A 
ATOM      4  C   LIG A   1     -11.595   6.876 127.334  0.00  0.00    +0.131 A 
ATOM      5  C   LIG A   1     -12.861   7.388 127.065  0.00  0.00    +0.046 A 
ATOM      6  C   LIG A   1     -13.715   7.717 128.118  0.00  0.00    +0.007 A 
ATOM      7  C   LIG A   1     -13.300   7.534 129.439  0.00  0.00    +0.047 A 
ATOM      8  C   LIG A   1     -12.030   7.021 129.711  0.00  0.00    +0.143 A 
ATOM      9  O   LIG A   1     -11.701   6.872 131.038  0.00  0.00    -0.454 OA
ATOM     10  C   LIG A   1     -10.461   6.369 131.350  0.00  0.00    +0.143 A 
ATOM     11  C   LIG A   1     -10.165   6.233 132.708  0.00  0.00    +0.092 A 
ATOM     12  C   LIG A   1      -8.924   5.729 133.089  0.00  0.00    +0.120 A 
ATOM     13  C   LIG A   1      -7.976   5.359 132.139  0.00  0.00    +0.046 A 
ATOM     14  C   LIG A   1      -8.269   5.494 130.782  0.00  0.00    +0.019 A 
ATOM     15  C   LIG A   1      -9.513   6.001 130.395  0.00  0.00    +0.065 A 
ENDROOT
BRANCH   4  16
ATOM     16  O   LIG A   1     -10.806   6.574 126.257  0.00  0.00    -0.506 OA
ATOM     17  H   LIG A   1      -9.961   6.202 126.598  0.00  0.00    +0.292 HD
ENDBRANCH   4  16
BRANCH  12  18
ATOM     18  O   LIG A   1      -8.591   5.577 134.403  0.00  0.00    -0.507 OA
ATOM     19  H   LIG A   1      -8.974   4.750 134.736  0.00  0.00    +0.292 HD
ENDBRANCH  12  18
TORSDOF 2
ENDMDL
MODEL 5
REMARK VINA RESULT:      -6.8      8.806     10.236
REMARK  Name = NuBBE_1710
REMARK  2 active torsions:
REMARK  status: ('A' for Active; 'I' for Inactive)
REMARK    1  A    between atoms: C_4  and  O_5
REMARK    2  A    between atoms: C_13  and  O_14
REMARK                            x       y       z     vdW  Elec       q    Type
REMARK                         _______ _______ _______ _____ _____    ______ ____
ROOT
ATOM      1  O   LIG A   1      -5.452   3.414 124.647  0.00  0.00    -0.286 OA
ATOM      2  C   LIG A   1      -6.284   3.298 123.753  0.00  0.00    +0.204 A 
ATOM      3  C   LIG A   1      -7.548   2.592 123.997  0.00  0.00    +0.106 A 
ATOM      4  C   LIG A   1      -7.845   2.033 125.244  0.00  0.00    +0.131 A 
ATOM      5  C   LIG A   1      -9.053   1.371 125.442  0.00  0.00    +0.046 A 
ATOM      6  C   LIG A   1      -9.968   1.265 124.393  0.00  0.00    +0.007 A 
ATOM      7  C   LIG A   1      -9.671   1.823 123.147  0.00  0.00    +0.047 A 
ATOM      8  C   LIG A   1      -8.460   2.488 122.947  0.00  0.00    +0.143 A 
ATOM      9  O   LIG A   1      -8.247   3.007 121.691  0.00  0.00    -0.454 OA
ATOM     10  C   LIG A   1      -7.069   3.670 121.451  0.00  0.00    +0.143 A 
ATOM     11  C   LIG A   1      -6.891   4.183 120.164  0.00  0.00    +0.092 A 
ATOM     12  C   LIG A   1      -5.716   4.866 119.857  0.00  0.00    +0.120 A 
ATOM     13  C   LIG A   1      -4.719   5.045 120.812  0.00  0.00    +0.046 A 
ATOM     14  C   LIG A   1      -4.894   4.534 122.098  0.00  0.00    +0.019 A 
ATOM     15  C   LIG A   1      -6.071   3.847 122.410  0.00  0.00    +0.065 A 
ENDROOT
BRANCH   4  16
ATOM     16  O   LIG A   1      -6.993   2.102 126.312  0.00  0.00    -0.506 OA
ATOM     17  H   LIG A   1      -6.174   1.609 126.075  0.00  0.00    +0.292 HD
ENDBRANCH   4  16
BRANCH  12  18
ATOM     18  O   LIG A   1      -5.499   5.385 118.615  0.00  0.00    -0.507 OA
ATOM     19  H   LIG A   1      -4.552   5.328 118.406  0.00  0.00    +0.292 HD
ENDBRANCH  12  18
TORSDOF 2
ENDMDL
MODEL 6
REMARK VINA RESULT:      -6.8      1.423      5.209
REMARK  Name = NuBBE_1710
REMARK  2 active torsions:
REMARK  status: ('A' for Active; 'I' for Inactive)
REMARK    1  A    between atoms: C_4  and  O_5
REMARK    2  A    between atoms: C_13  and  O_14
REMARK                            x       y       z     vdW  Elec       q    Type
REMARK                         _______ _______ _______ _____ _____    ______ ____
ROOT
ATOM      1  O   LIG A   1     -10.321   5.318 132.978  0.00  0.00    -0.286 OA
ATOM      2  C   LIG A   1      -9.775   5.974 132.098  0.00  0.00    +0.204 A 
ATOM      3  C   LIG A   1      -8.315   6.117 132.071  0.00  0.00    +0.106 A 
ATOM      4  C   LIG A   1      -7.503   5.516 133.038  0.00  0.00    +0.131 A 
ATOM      5  C   LIG A   1      -6.120   5.670 132.983  0.00  0.00    +0.046 A 
ATOM      6  C   LIG A   1      -5.546   6.427 131.961  0.00  0.00    +0.007 A 
ATOM      7  C   LIG A   1      -6.356   7.027 130.994  0.00  0.00    +0.047 A 
ATOM      8  C   LIG A   1      -7.743   6.873 131.047  0.00  0.00    +0.143 A 
ATOM      9  O   LIG A   1      -8.467   7.497 130.058  0.00  0.00    -0.454 OA
ATOM     10  C   LIG A   1      -9.835   7.370 130.073  0.00  0.00    +0.143 A 
ATOM     11  C   LIG A   1     -10.533   8.018 129.051  0.00  0.00    +0.092 A 
ATOM     12  C   LIG A   1     -11.923   7.928 129.010  0.00  0.00    +0.120 A 
ATOM     13  C   LIG A   1     -12.624   7.203 129.970  0.00  0.00    +0.046 A 
ATOM     14  C   LIG A   1     -11.929   6.555 130.991  0.00  0.00    +0.019 A 
ATOM     15  C   LIG A   1     -10.535   6.644 131.036  0.00  0.00    +0.065 A 
ENDROOT
BRANCH   4  16
ATOM     16  O   LIG A   1      -8.002   4.763 134.065  0.00  0.00    -0.506 OA
ATOM     17  H   LIG A   1      -7.435   3.963 134.155  0.00  0.00    +0.292 HD
ENDBRANCH   4  16
BRANCH  12  18
ATOM     18  O   LIG A   1     -12.647   8.542 128.032  0.00  0.00    -0.507 OA
ATOM     19  H   LIG A   1     -13.417   7.993 127.812  0.00  0.00    +0.292 HD
ENDBRANCH  12  18
TORSDOF 2
ENDMDL
MODEL 7
REMARK VINA RESULT:      -6.6      8.884     10.107
REMARK  Name = NuBBE_1710
REMARK  2 active torsions:
REMARK  status: ('A' for Active; 'I' for Inactive)
REMARK    1  A    between atoms: C_4  and  O_5
REMARK    2  A    between atoms: C_13  and  O_14
REMARK                            x       y       z     vdW  Elec       q    Type
REMARK                         _______ _______ _______ _____ _____    ______ ____
ROOT
ATOM      1  O   LIG A   1      -9.390   3.002 121.005  0.00  0.00    -0.286 OA
ATOM      2  C   LIG A   1      -8.425   3.078 121.759  0.00  0.00    +0.204 A 
ATOM      3  C   LIG A   1      -7.183   3.723 121.319  0.00  0.00    +0.106 A 
ATOM      4  C   LIG A   1      -7.056   4.270 120.038  0.00  0.00    +0.131 A 
ATOM      5  C   LIG A   1      -5.864   4.876 119.652  0.00  0.00    +0.046 A 
ATOM      6  C   LIG A   1      -4.794   4.937 120.547  0.00  0.00    +0.007 A 
ATOM      7  C   LIG A   1      -4.920   4.391 121.826  0.00  0.00    +0.047 A 
ATOM      8  C   LIG A   1      -6.116   3.782 122.215  0.00  0.00    +0.143 A 
ATOM      9  O   LIG A   1      -6.155   3.270 123.491  0.00  0.00    -0.454 OA
ATOM     10  C   LIG A   1      -7.313   2.664 123.914  0.00  0.00    +0.143 A 
ATOM     11  C   LIG A   1      -7.313   2.157 125.216  0.00  0.00    +0.092 A 
ATOM     12  C   LIG A   1      -8.458   1.531 125.704  0.00  0.00    +0.120 A 
ATOM     13  C   LIG A   1      -9.598   1.402 124.917  0.00  0.00    +0.046 A 
ATOM     14  C   LIG A   1      -9.600   1.908 123.617  0.00  0.00    +0.019 A 
ATOM     15  C   LIG A   1      -8.454   2.536 123.122  0.00  0.00    +0.065 A 
ENDROOT
BRANCH   4  16
ATOM     16  O   LIG A   1      -8.065   4.243 119.114  0.00  0.00    -0.506 OA
ATOM     17  H   LIG A   1      -8.835   3.786 119.524  0.00  0.00    +0.292 HD
ENDBRANCH   4  16
BRANCH  12  18
ATOM     18  O   LIG A   1      -8.505   1.022 126.968  0.00  0.00    -0.507 OA
ATOM     19  H   LIG A   1      -7.603   0.957 127.321  0.00  0.00    +0.292 HD
ENDBRANCH  12  18
TORSDOF 2
ENDMDL
MODEL 8
REMARK VINA RESULT:      -6.5      1.853      3.057
REMARK  Name = NuBBE_1710
REMARK  2 active torsions:
REMARK  status: ('A' for Active; 'I' for Inactive)
REMARK    1  A    between atoms: C_4  and  O_5
REMARK    2  A    between atoms: C_13  and  O_14
REMARK                            x       y       z     vdW  Elec       q    Type
REMARK                         _______ _______ _______ _____ _____    ______ ____
ROOT
ATOM      1  O   LIG A   1      -7.851   5.060 133.732  0.00  0.00    -0.286 OA
ATOM      2  C   LIG A   1      -7.677   5.746 132.731  0.00  0.00    +0.204 A 
ATOM      3  C   LIG A   1      -8.818   6.178 131.915  0.00  0.00    +0.106 A 
ATOM      4  C   LIG A   1     -10.130   5.827 132.248  0.00  0.00    +0.131 A 
ATOM      5  C   LIG A   1     -11.191   6.254 131.453  0.00  0.00    +0.046 A 
ATOM      6  C   LIG A   1     -10.941   7.033 130.322  0.00  0.00    +0.007 A 
ATOM      7  C   LIG A   1      -9.631   7.384 129.989  0.00  0.00    +0.047 A 
ATOM      8  C   LIG A   1      -8.566   6.957 130.785  0.00  0.00    +0.143 A 
ATOM      9  O   LIG A   1      -7.309   7.346 130.387  0.00  0.00    -0.454 OA
ATOM     10  C   LIG A   1      -6.233   6.948 131.142  0.00  0.00    +0.143 A 
ATOM     11  C   LIG A   1      -4.973   7.363 130.704  0.00  0.00    +0.092 A 
ATOM     12  C   LIG A   1      -3.842   6.992 131.428  0.00  0.00    +0.120 A 
ATOM     13  C   LIG A   1      -3.948   6.215 132.578  0.00  0.00    +0.046 A 
ATOM     14  C   LIG A   1      -5.204   5.799 133.017  0.00  0.00    +0.019 A 
ATOM     15  C   LIG A   1      -6.342   6.168 132.294  0.00  0.00    +0.065 A 
ENDROOT
BRANCH   4  16
ATOM     16  O   LIG A   1     -10.443   5.067 133.341  0.00  0.00    -0.506 OA
ATOM     17  H   LIG A   1      -9.848   5.340 134.077  0.00  0.00    +0.292 HD
ENDBRANCH   4  16
BRANCH  12  18
ATOM     18  O   LIG A   1      -2.592   7.375 131.039  0.00  0.00    -0.507 OA
ATOM     19  H   LIG A   1      -2.173   7.875 131.758  0.00  0.00    +0.292 HD
ENDBRANCH  12  18
TORSDOF 2
ENDMDL
MODEL 9
REMARK VINA RESULT:      -6.5      9.708     10.449
REMARK  Name = NuBBE_1710
REMARK  2 active torsions:
REMARK  status: ('A' for Active; 'I' for Inactive)
REMARK    1  A    between atoms: C_4  and  O_5
REMARK    2  A    between atoms: C_13  and  O_14
REMARK                            x       y       z     vdW  Elec       q    Type
REMARK                         _______ _______ _______ _____ _____    ______ ____
ROOT
ATOM      1  O   LIG A   1     -10.207  -0.175 125.526  0.00  0.00    -0.286 OA
ATOM      2  C   LIG A   1      -9.083  -0.153 125.037  0.00  0.00    +0.204 A 
ATOM      3  C   LIG A   1      -8.360  -1.403 124.771  0.00  0.00    +0.106 A 
ATOM      4  C   LIG A   1      -8.923  -2.649 125.063  0.00  0.00    +0.131 A 
ATOM      5  C   LIG A   1      -8.211  -3.816 124.799  0.00  0.00    +0.046 A 
ATOM      6  C   LIG A   1      -6.934  -3.740 124.241  0.00  0.00    +0.007 A 
ATOM      7  C   LIG A   1      -6.372  -2.495 123.949  0.00  0.00    +0.047 A 
ATOM      8  C   LIG A   1      -7.084  -1.323 124.214  0.00  0.00    +0.143 A 
ATOM      9  O   LIG A   1      -6.458  -0.141 123.897  0.00  0.00    -0.454 OA
ATOM     10  C   LIG A   1      -7.124   1.036 124.140  0.00  0.00    +0.143 A 
ATOM     11  C   LIG A   1      -6.454   2.214 123.805  0.00  0.00    +0.092 A 
ATOM     12  C   LIG A   1      -7.076   3.441 124.027  0.00  0.00    +0.120 A 
ATOM     13  C   LIG A   1      -8.353   3.509 124.578  0.00  0.00    +0.046 A 
ATOM     14  C   LIG A   1      -9.024   2.333 124.914  0.00  0.00    +0.019 A 
ATOM     15  C   LIG A   1      -8.403   1.101 124.694  0.00  0.00    +0.065 A 
ENDROOT
BRANCH   4  16
ATOM     16  O   LIG A   1     -10.169  -2.794 125.610  0.00  0.00    -0.506 OA
ATOM     17  H   LIG A   1     -10.059  -2.903 126.583  0.00  0.00    +0.292 HD
ENDBRANCH   4  16
BRANCH  12  18
ATOM     18  O   LIG A   1      -6.462   4.617 123.714  0.00  0.00    -0.507 OA
ATOM     19  H   LIG A   1      -5.906   4.488 122.929  0.00  0.00    +0.292 HD
ENDBRANCH  12  18
TORSDOF 2
ENDMDL
