MODEL 1
REMARK VINA RESULT:      -7.0      0.000      0.000
REMARK  Name = NuBBE_15
REMARK  12 active torsions:
REMARK  status: ('A' for Active; 'I' for Inactive)
REMARK    1  A    between atoms: C_1  and  O_2
REMARK    2  A    between atoms: O_2  and  C_3
REMARK    3  A    between atoms: C_4  and  O_5
REMARK    4  A    between atoms: O_5  and  C_6
REMARK    5  A    between atoms: C_8  and  C_9
REMARK    6  A    between atoms: C_15  and  C_21
REMARK    7  A    between atoms: C_23  and  O_24
REMARK    8  A    between atoms: O_24  and  C_25
REMARK    9  A    between atoms: C_26  and  O_29
REMARK   10  A    between atoms: O_29  and  C_30
REMARK   11  A    between atoms: C_32  and  O_33
REMARK   12  A    between atoms: O_33  and  C_34
REMARK                            x       y       z     vdW  Elec       q    Type
REMARK                         _______ _______ _______ _____ _____    ______ ____
ROOT
ATOM      1  C   LIG A   1      -7.945   2.178 131.126  0.00  0.00    +0.154 C 
ATOM      2  C   LIG A   1      -9.389   2.595 131.419  0.00  0.00    +0.056 C 
ATOM      3  C   LIG A   1      -9.525   3.537 132.587  0.00  0.00    +0.167 C 
ATOM      4  O   LIG A   1      -9.094   4.813 132.110  0.00  0.00    -0.371 OA
ATOM      5  C   LIG A   1      -9.299   4.870 130.677  0.00  0.00    +0.154 C 
ATOM      6  C   LIG A   1      -9.744   3.466 130.247  0.00  0.00    +0.056 C 
ATOM      7  C   LIG A   1      -8.906   2.908 129.126  0.00  0.00    +0.167 C 
ATOM      8  O   LIG A   1      -7.695   2.443 129.729  0.00  0.00    -0.371 OA
ENDROOT
BRANCH   1  12
ATOM      9  C   LIG A   1      -7.440  -2.039 132.017  0.00  0.00    +0.203 A 
ATOM     10  C   LIG A   1      -7.771  -1.628 130.711  0.00  0.00    +0.166 A 
ATOM     11  C   LIG A   1      -7.947  -0.266 130.443  0.00  0.00    +0.056 A 
ATOM     12  C   LIG A   1      -7.734   0.710 131.423  0.00  0.00    -0.011 A 
ATOM     13  C   LIG A   1      -7.375   0.302 132.711  0.00  0.00    +0.056 A 
ATOM     14  C   LIG A   1      -7.258  -1.059 133.021  0.00  0.00    +0.166 A 
BRANCH   9  16
ATOM     15  C   LIG A   1      -5.922  -3.884 132.180  0.00  0.00    +0.277 C 
ATOM     16  O   LIG A   1      -7.213  -3.336 132.415  0.00  0.00    -0.488 OA
ENDBRANCH   9  16
BRANCH  10  17
ATOM     17  O   LIG A   1      -7.949  -2.570 129.734  0.00  0.00    -0.491 OA
ATOM     18  C   LIG A   1      -6.917  -2.710 128.763  0.00  0.00    +0.277 C 
ENDBRANCH  10  17
BRANCH  14  19
ATOM     19  O   LIG A   1      -6.950  -1.500 134.289  0.00  0.00    -0.491 OA
ATOM     20  C   LIG A   1      -5.704  -1.046 134.814  0.00  0.00    +0.277 C 
ENDBRANCH  14  19
ENDBRANCH   1  12
BRANCH   5  21
ATOM     21  C   LIG A   1     -10.291   5.968 130.330  0.00  0.00    -0.015 A 
ATOM     22  C   LIG A   1     -10.120   6.796 129.199  0.00  0.00    +0.055 A 
ATOM     23  C   LIG A   1     -11.060   7.788 128.868  0.00  0.00    +0.162 A 
ATOM     24  C   LIG A   1     -12.157   7.992 129.709  0.00  0.00    +0.162 A 
ATOM     25  C   LIG A   1     -12.318   7.199 130.853  0.00  0.00    +0.050 A 
ATOM     26  C   LIG A   1     -11.385   6.204 131.157  0.00  0.00    +0.010 A 
BRANCH  23  27
ATOM     27  O   LIG A   1     -10.754   8.453 127.704  0.00  0.00    -0.491 OA
ATOM     28  C   LIG A   1     -10.954   7.755 126.481  0.00  0.00    +0.277 C 
ENDBRANCH  23  27
BRANCH  24  29
ATOM     29  O   LIG A   1     -13.135   8.891 129.365  0.00  0.00    -0.491 OA
ATOM     30  C   LIG A   1     -13.074  10.134 130.054  0.00  0.00    +0.277 C 
ENDBRANCH  24  29
ENDBRANCH   5  21
TORSDOF 7
ENDMDL
MODEL 2
REMARK VINA RESULT:      -6.8      1.579      2.724
REMARK  Name = NuBBE_15
REMARK  12 active torsions:
REMARK  status: ('A' for Active; 'I' for Inactive)
REMARK    1  A    between atoms: C_1  and  O_2
REMARK    2  A    between atoms: O_2  and  C_3
REMARK    3  A    between atoms: C_4  and  O_5
REMARK    4  A    between atoms: O_5  and  C_6
REMARK    5  A    between atoms: C_8  and  C_9
REMARK    6  A    between atoms: C_15  and  C_21
REMARK    7  A    between atoms: C_23  and  O_24
REMARK    8  A    between atoms: O_24  and  C_25
REMARK    9  A    between atoms: C_26  and  O_29
REMARK   10  A    between atoms: O_29  and  C_30
REMARK   11  A    between atoms: C_32  and  O_33
REMARK   12  A    between atoms: O_33  and  C_34
REMARK                            x       y       z     vdW  Elec       q    Type
REMARK                         _______ _______ _______ _____ _____    ______ ____
ROOT
ATOM      1  C   LIG A   1      -7.627   2.454 130.701  0.00  0.00    +0.154 C 
ATOM      2  C   LIG A   1      -9.064   2.646 130.207  0.00  0.00    +0.056 C 
ATOM      3  C   LIG A   1     -10.072   2.811 131.315  0.00  0.00    +0.167 C 
ATOM      4  O   LIG A   1      -9.902   4.145 131.799  0.00  0.00    -0.371 OA
ATOM      5  C   LIG A   1      -9.357   4.963 130.735  0.00  0.00    +0.154 C 
ATOM      6  C   LIG A   1      -9.037   4.009 129.577  0.00  0.00    +0.056 C 
ATOM      7  C   LIG A   1      -7.617   4.144 129.088  0.00  0.00    +0.167 C 
ATOM      8  O   LIG A   1      -6.806   3.430 130.025  0.00  0.00    -0.371 OA
ENDROOT
BRANCH   1  12
ATOM      9  C   LIG A   1      -6.144  -1.512 129.758  0.00  0.00    +0.203 A 
ATOM     10  C   LIG A   1      -5.556  -0.768 130.799  0.00  0.00    +0.166 A 
ATOM     11  C   LIG A   1      -6.034   0.516 131.080  0.00  0.00    +0.056 A 
ATOM     12  C   LIG A   1      -7.131   1.058 130.401  0.00  0.00    -0.011 A 
ATOM     13  C   LIG A   1      -7.734   0.305 129.389  0.00  0.00    +0.056 A 
ATOM     14  C   LIG A   1      -7.231  -0.956 129.044  0.00  0.00    +0.166 A 
BRANCH   9  16
ATOM     15  C   LIG A   1      -6.332  -3.868 130.149  0.00  0.00    +0.277 C 
ATOM     16  O   LIG A   1      -5.794  -2.792 129.391  0.00  0.00    -0.488 OA
ENDBRANCH   9  16
BRANCH  10  17
ATOM     17  O   LIG A   1      -4.504  -1.299 131.495  0.00  0.00    -0.491 OA
ATOM     18  C   LIG A   1      -4.715  -1.605 132.869  0.00  0.00    +0.277 C 
ENDBRANCH  10  17
BRANCH  14  19
ATOM     19  O   LIG A   1      -7.771  -1.708 128.023  0.00  0.00    -0.491 OA
ATOM     20  C   LIG A   1      -8.002  -1.012 126.800  0.00  0.00    +0.277 C 
ENDBRANCH  14  19
ENDBRANCH   1  12
BRANCH   5  21
ATOM     21  C   LIG A   1     -10.330   6.073 130.374  0.00  0.00    -0.015 A 
ATOM     22  C   LIG A   1     -10.147   6.880 129.230  0.00  0.00    +0.055 A 
ATOM     23  C   LIG A   1     -11.071   7.884 128.886  0.00  0.00    +0.162 A 
ATOM     24  C   LIG A   1     -12.162   8.120 129.726  0.00  0.00    +0.162 A 
ATOM     25  C   LIG A   1     -12.333   7.348 130.883  0.00  0.00    +0.050 A 
ATOM     26  C   LIG A   1     -11.417   6.341 131.200  0.00  0.00    +0.010 A 
BRANCH  23  27
ATOM     27  O   LIG A   1     -10.756   8.525 127.711  0.00  0.00    -0.491 OA
ATOM     28  C   LIG A   1     -10.953   7.804 126.500  0.00  0.00    +0.277 C 
ENDBRANCH  23  27
BRANCH  24  29
ATOM     29  O   LIG A   1     -13.124   9.031 129.371  0.00  0.00    -0.491 OA
ATOM     30  C   LIG A   1     -13.097  10.248 130.107  0.00  0.00    +0.277 C 
ENDBRANCH  24  29
ENDBRANCH   5  21
TORSDOF 7
ENDMDL
MODEL 3
REMARK VINA RESULT:      -6.8      5.940      7.996
REMARK  Name = NuBBE_15
REMARK  12 active torsions:
REMARK  status: ('A' for Active; 'I' for Inactive)
REMARK    1  A    between atoms: C_1  and  O_2
REMARK    2  A    between atoms: O_2  and  C_3
REMARK    3  A    between atoms: C_4  and  O_5
REMARK    4  A    between atoms: O_5  and  C_6
REMARK    5  A    between atoms: C_8  and  C_9
REMARK    6  A    between atoms: C_15  and  C_21
REMARK    7  A    between atoms: C_23  and  O_24
REMARK    8  A    between atoms: O_24  and  C_25
REMARK    9  A    between atoms: C_26  and  O_29
REMARK   10  A    between atoms: O_29  and  C_30
REMARK   11  A    between atoms: C_32  and  O_33
REMARK   12  A    between atoms: O_33  and  C_34
REMARK                            x       y       z     vdW  Elec       q    Type
REMARK                         _______ _______ _______ _____ _____    ______ ____
ROOT
ATOM      1  C   LIG A   1      -6.104   2.275 125.432  0.00  0.00    +0.154 C 
ATOM      2  C   LIG A   1      -5.194   2.096 126.651  0.00  0.00    +0.056 C 
ATOM      3  C   LIG A   1      -3.736   2.346 126.364  0.00  0.00    +0.167 C 
ATOM      4  O   LIG A   1      -3.595   3.766 126.280  0.00  0.00    -0.371 OA
ATOM      5  C   LIG A   1      -4.639   4.387 127.068  0.00  0.00    +0.154 C 
ATOM      6  C   LIG A   1      -5.563   3.254 127.534  0.00  0.00    +0.056 C 
ATOM      7  C   LIG A   1      -7.010   3.508 127.198  0.00  0.00    +0.167 C 
ATOM      8  O   LIG A   1      -7.157   3.187 125.811  0.00  0.00    -0.371 OA
ENDROOT
BRANCH   1  12
ATOM      9  C   LIG A   1      -7.760  -1.499 124.076  0.00  0.00    +0.203 A 
ATOM     10  C   LIG A   1      -6.488  -1.463 124.680  0.00  0.00    +0.166 A 
ATOM     11  C   LIG A   1      -5.960  -0.236 125.097  0.00  0.00    +0.056 A 
ATOM     12  C   LIG A   1      -6.692   0.953 124.995  0.00  0.00    -0.011 A 
ATOM     13  C   LIG A   1      -7.967   0.909 124.424  0.00  0.00    +0.056 A 
ATOM     14  C   LIG A   1      -8.490  -0.296 123.938  0.00  0.00    +0.166 A 
BRANCH   9  16
ATOM     15  C   LIG A   1      -9.053  -3.440 124.623  0.00  0.00    +0.277 C 
ATOM     16  O   LIG A   1      -8.409  -2.633 123.645  0.00  0.00    -0.488 OA
ENDBRANCH   9  16
BRANCH  10  17
ATOM     17  O   LIG A   1      -5.775  -2.623 124.818  0.00  0.00    -0.491 OA
ATOM     18  C   LIG A   1      -4.955  -3.021 123.724  0.00  0.00    +0.277 C 
ENDBRANCH  10  17
BRANCH  14  19
ATOM     19  O   LIG A   1      -9.724  -0.370 123.329  0.00  0.00    -0.491 OA
ATOM     20  C   LIG A   1     -10.148   0.810 122.650  0.00  0.00    +0.277 C 
ENDBRANCH  14  19
ENDBRANCH   1  12
BRANCH   5  21
ATOM     21  C   LIG A   1      -4.031   5.197 128.201  0.00  0.00    -0.015 A 
ATOM     22  C   LIG A   1      -4.765   5.520 129.363  0.00  0.00    +0.055 A 
ATOM     23  C   LIG A   1      -4.184   6.243 130.421  0.00  0.00    +0.162 A 
ATOM     24  C   LIG A   1      -2.869   6.695 130.292  0.00  0.00    +0.162 A 
ATOM     25  C   LIG A   1      -2.143   6.411 129.128  0.00  0.00    +0.050 A 
ATOM     26  C   LIG A   1      -2.729   5.675 128.094  0.00  0.00    +0.010 A 
BRANCH  23  27
ATOM     27  O   LIG A   1      -5.033   6.411 131.489  0.00  0.00    -0.491 OA
ATOM     28  C   LIG A   1      -6.352   6.866 131.210  0.00  0.00    +0.277 C 
ENDBRANCH  23  27
BRANCH  24  29
ATOM     29  O   LIG A   1      -2.247   7.325 131.340  0.00  0.00    -0.491 OA
ATOM     30  C   LIG A   1      -1.219   6.569 131.969  0.00  0.00    +0.277 C 
ENDBRANCH  24  29
ENDBRANCH   5  21
TORSDOF 7
ENDMDL
MODEL 4
REMARK VINA RESULT:      -6.8      5.090     10.738
REMARK  Name = NuBBE_15
REMARK  12 active torsions:
REMARK  status: ('A' for Active; 'I' for Inactive)
REMARK    1  A    between atoms: C_1  and  O_2
REMARK    2  A    between atoms: O_2  and  C_3
REMARK    3  A    between atoms: C_4  and  O_5
REMARK    4  A    between atoms: O_5  and  C_6
REMARK    5  A    between atoms: C_8  and  C_9
REMARK    6  A    between atoms: C_15  and  C_21
REMARK    7  A    between atoms: C_23  and  O_24
REMARK    8  A    between atoms: O_24  and  C_25
REMARK    9  A    between atoms: C_26  and  O_29
REMARK   10  A    between atoms: O_29  and  C_30
REMARK   11  A    between atoms: C_32  and  O_33
REMARK   12  A    between atoms: O_33  and  C_34
REMARK                            x       y       z     vdW  Elec       q    Type
REMARK                         _______ _______ _______ _____ _____    ______ ____
ROOT
ATOM      1  C   LIG A   1      -6.876  -0.640 128.403  0.00  0.00    +0.154 C 
ATOM      2  C   LIG A   1      -6.556  -2.138 128.437  0.00  0.00    +0.056 C 
ATOM      3  C   LIG A   1      -5.105  -2.456 128.189  0.00  0.00    +0.167 C 
ATOM      4  O   LIG A   1      -4.423  -2.131 129.402  0.00  0.00    -0.371 OA
ATOM      5  C   LIG A   1      -5.355  -2.237 130.506  0.00  0.00    +0.154 C 
ATOM      6  C   LIG A   1      -6.734  -2.499 129.885  0.00  0.00    +0.056 C 
ATOM      7  C   LIG A   1      -7.781  -1.528 130.366  0.00  0.00    +0.167 C 
ATOM      8  O   LIG A   1      -7.572  -0.321 129.627  0.00  0.00    -0.371 OA
ENDROOT
BRANCH   1  12
ATOM      9  C   LIG A   1      -9.435   0.329 125.037  0.00  0.00    +0.203 A 
ATOM     10  C   LIG A   1      -8.889   1.359 125.828  0.00  0.00    +0.166 A 
ATOM     11  C   LIG A   1      -8.080   1.030 126.921  0.00  0.00    +0.056 A 
ATOM     12  C   LIG A   1      -7.737  -0.296 127.209  0.00  0.00    -0.011 A 
ATOM     13  C   LIG A   1      -8.255  -1.314 126.403  0.00  0.00    +0.056 A 
ATOM     14  C   LIG A   1      -9.121  -1.015 125.345  0.00  0.00    +0.166 A 
BRANCH   9  16
ATOM     15  C   LIG A   1      -9.589   0.943 122.727  0.00  0.00    +0.277 C 
ATOM     16  O   LIG A   1     -10.223   0.508 123.923  0.00  0.00    -0.488 OA
ENDBRANCH   9  16
BRANCH  10  17
ATOM     17  O   LIG A   1      -9.188   2.662 125.537  0.00  0.00    -0.491 OA
ATOM     18  C   LIG A   1      -8.118   3.502 125.116  0.00  0.00    +0.277 C 
ENDBRANCH  10  17
BRANCH  14  19
ATOM     19  O   LIG A   1      -9.686  -1.994 124.557  0.00  0.00    -0.491 OA
ATOM     20  C   LIG A   1      -8.769  -2.773 123.791  0.00  0.00    +0.277 C 
ENDBRANCH  14  19
ENDBRANCH   1  12
BRANCH   5  21
ATOM     21  C   LIG A   1      -4.899  -3.313 131.478  0.00  0.00    -0.015 A 
ATOM     22  C   LIG A   1      -3.733  -3.165 132.260  0.00  0.00    +0.055 A 
ATOM     23  C   LIG A   1      -3.337  -4.152 133.181  0.00  0.00    +0.162 A 
ATOM     24  C   LIG A   1      -4.087  -5.326 133.282  0.00  0.00    +0.162 A 
ATOM     25  C   LIG A   1      -5.226  -5.499 132.485  0.00  0.00    +0.050 A 
ATOM     26  C   LIG A   1      -5.617  -4.500 131.589  0.00  0.00    +0.010 A 
BRANCH  23  27
ATOM     27  O   LIG A   1      -2.211  -3.806 133.890  0.00  0.00    -0.491 OA
ATOM     28  C   LIG A   1      -2.130  -2.472 134.378  0.00  0.00    +0.277 C 
ENDBRANCH  23  27
BRANCH  24  29
ATOM     29  O   LIG A   1      -3.776  -6.266 134.232  0.00  0.00    -0.491 OA
ATOM     30  C   LIG A   1      -4.687  -6.339 135.322  0.00  0.00    +0.277 C 
ENDBRANCH  24  29
ENDBRANCH   5  21
TORSDOF 7
ENDMDL
MODEL 5
REMARK VINA RESULT:      -6.8      4.936     10.561
REMARK  Name = NuBBE_15
REMARK  12 active torsions:
REMARK  status: ('A' for Active; 'I' for Inactive)
REMARK    1  A    between atoms: C_1  and  O_2
REMARK    2  A    between atoms: O_2  and  C_3
REMARK    3  A    between atoms: C_4  and  O_5
REMARK    4  A    between atoms: O_5  and  C_6
REMARK    5  A    between atoms: C_8  and  C_9
REMARK    6  A    between atoms: C_15  and  C_21
REMARK    7  A    between atoms: C_23  and  O_24
REMARK    8  A    between atoms: O_24  and  C_25
REMARK    9  A    between atoms: C_26  and  O_29
REMARK   10  A    between atoms: O_29  and  C_30
REMARK   11  A    between atoms: C_32  and  O_33
REMARK   12  A    between atoms: O_33  and  C_34
REMARK                            x       y       z     vdW  Elec       q    Type
REMARK                         _______ _______ _______ _____ _____    ______ ____
ROOT
ATOM      1  C   LIG A   1      -7.066  -1.520 128.460  0.00  0.00    +0.154 C 
ATOM      2  C   LIG A   1      -7.952  -2.486 129.253  0.00  0.00    +0.056 C 
ATOM      3  C   LIG A   1      -7.520  -3.926 129.156  0.00  0.00    +0.167 C 
ATOM      4  O   LIG A   1      -6.374  -4.046 130.002  0.00  0.00    -0.371 OA
ATOM      5  C   LIG A   1      -6.445  -3.030 131.033  0.00  0.00    +0.154 C 
ATOM      6  C   LIG A   1      -7.647  -2.143 130.683  0.00  0.00    +0.056 C 
ATOM      7  C   LIG A   1      -7.292  -0.679 130.628  0.00  0.00    +0.167 C 
ATOM      8  O   LIG A   1      -6.653  -0.474 129.365  0.00  0.00    -0.371 OA
ENDROOT
BRANCH   1  12
ATOM      9  C   LIG A   1      -9.323   0.153 125.154  0.00  0.00    +0.203 A 
ATOM     10  C   LIG A   1      -8.777   1.002 126.137  0.00  0.00    +0.166 A 
ATOM     11  C   LIG A   1      -8.066   0.446 127.206  0.00  0.00    +0.056 A 
ATOM     12  C   LIG A   1      -7.820  -0.929 127.290  0.00  0.00    -0.011 A 
ATOM     13  C   LIG A   1      -8.336  -1.766 126.296  0.00  0.00    +0.056 A 
ATOM     14  C   LIG A   1      -9.107  -1.241 125.252  0.00  0.00    +0.166 A 
BRANCH   9  16
ATOM     15  C   LIG A   1      -9.278   1.147 122.975  0.00  0.00    +0.277 C 
ATOM     16  O   LIG A   1     -10.018   0.563 124.039  0.00  0.00    -0.488 OA
ENDBRANCH   9  16
BRANCH  10  17
ATOM     17  O   LIG A   1      -8.980   2.352 126.049  0.00  0.00    -0.491 OA
ATOM     18  C   LIG A   1      -7.835   3.177 125.866  0.00  0.00    +0.277 C 
ENDBRANCH  10  17
BRANCH  14  19
ATOM     19  O   LIG A   1      -9.669  -2.039 124.279  0.00  0.00    -0.491 OA
ATOM     20  C   LIG A   1      -8.748  -2.670 123.392  0.00  0.00    +0.277 C 
ENDBRANCH  14  19
ENDBRANCH   1  12
BRANCH   5  21
ATOM     21  C   LIG A   1      -6.531  -3.678 132.405  0.00  0.00    -0.015 A 
ATOM     22  C   LIG A   1      -5.633  -4.690 132.808  0.00  0.00    +0.055 A 
ATOM     23  C   LIG A   1      -5.700  -5.260 134.093  0.00  0.00    +0.162 A 
ATOM     24  C   LIG A   1      -6.711  -4.852 134.966  0.00  0.00    +0.162 A 
ATOM     25  C   LIG A   1      -7.629  -3.874 134.562  0.00  0.00    +0.050 A 
ATOM     26  C   LIG A   1      -7.537  -3.303 133.290  0.00  0.00    +0.010 A 
BRANCH  23  27
ATOM     27  O   LIG A   1      -4.710  -6.187 134.323  0.00  0.00    -0.491 OA
ATOM     28  C   LIG A   1      -3.386  -5.838 133.936  0.00  0.00    +0.277 C 
ENDBRANCH  23  27
BRANCH  24  29
ATOM     29  O   LIG A   1      -6.748  -5.326 136.252  0.00  0.00    -0.491 OA
ATOM     30  C   LIG A   1      -7.558  -6.480 136.443  0.00  0.00    +0.277 C 
ENDBRANCH  24  29
ENDBRANCH   5  21
TORSDOF 7
ENDMDL
MODEL 6
REMARK VINA RESULT:      -6.8      5.127     10.600
REMARK  Name = NuBBE_15
REMARK  12 active torsions:
REMARK  status: ('A' for Active; 'I' for Inactive)
REMARK    1  A    between atoms: C_1  and  O_2
REMARK    2  A    between atoms: O_2  and  C_3
REMARK    3  A    between atoms: C_4  and  O_5
REMARK    4  A    between atoms: O_5  and  C_6
REMARK    5  A    between atoms: C_8  and  C_9
REMARK    6  A    between atoms: C_15  and  C_21
REMARK    7  A    between atoms: C_23  and  O_24
REMARK    8  A    between atoms: O_24  and  C_25
REMARK    9  A    between atoms: C_26  and  O_29
REMARK   10  A    between atoms: O_29  and  C_30
REMARK   11  A    between atoms: C_32  and  O_33
REMARK   12  A    between atoms: O_33  and  C_34
REMARK                            x       y       z     vdW  Elec       q    Type
REMARK                         _______ _______ _______ _____ _____    ______ ____
ROOT
ATOM      1  C   LIG A   1      -7.034  -0.647 128.283  0.00  0.00    +0.154 C 
ATOM      2  C   LIG A   1      -6.720  -2.144 128.351  0.00  0.00    +0.056 C 
ATOM      3  C   LIG A   1      -5.279  -2.477 128.065  0.00  0.00    +0.167 C 
ATOM      4  O   LIG A   1      -4.555  -2.119 129.244  0.00  0.00    -0.371 OA
ATOM      5  C   LIG A   1      -5.451  -2.187 130.381  0.00  0.00    +0.154 C 
ATOM      6  C   LIG A   1      -6.850  -2.460 129.814  0.00  0.00    +0.056 C 
ATOM      7  C   LIG A   1      -7.878  -1.471 130.300  0.00  0.00    +0.167 C 
ATOM      8  O   LIG A   1      -7.688  -0.287 129.519  0.00  0.00    -0.371 OA
ENDROOT
BRANCH   1  12
ATOM      9  C   LIG A   1      -9.525   0.271 124.851  0.00  0.00    +0.203 A 
ATOM     10  C   LIG A   1      -9.226  -1.069 125.168  0.00  0.00    +0.166 A 
ATOM     11  C   LIG A   1      -8.407  -1.348 126.268  0.00  0.00    +0.056 A 
ATOM     12  C   LIG A   1      -7.933  -0.334 127.108  0.00  0.00    -0.011 A 
ATOM     13  C   LIG A   1      -8.258   0.993 126.810  0.00  0.00    +0.056 A 
ATOM     14  C   LIG A   1      -9.020   1.302 125.676  0.00  0.00    +0.166 A 
BRANCH   9  16
ATOM     15  C   LIG A   1      -9.756   0.791 122.524  0.00  0.00    +0.277 C 
ATOM     16  O   LIG A   1     -10.335   0.688 123.819  0.00  0.00    -0.488 OA
ENDBRANCH   9  16
BRANCH  10  17
ATOM     17  O   LIG A   1      -9.711  -2.073 124.375  0.00  0.00    -0.491 OA
ATOM     18  C   LIG A   1      -8.894  -3.226 124.205  0.00  0.00    +0.277 C 
ENDBRANCH  10  17
BRANCH  14  19
ATOM     19  O   LIG A   1      -9.323   2.600 125.326  0.00  0.00    -0.491 OA
ATOM     20  C   LIG A   1      -8.207   3.431 125.015  0.00  0.00    +0.277 C 
ENDBRANCH  14  19
ENDBRANCH   1  12
BRANCH   5  21
ATOM     21  C   LIG A   1      -4.967  -3.235 131.370  0.00  0.00    -0.015 A 
ATOM     22  C   LIG A   1      -3.793  -3.055 132.132  0.00  0.00    +0.055 A 
ATOM     23  C   LIG A   1      -3.370  -4.016 133.068  0.00  0.00    +0.162 A 
ATOM     24  C   LIG A   1      -4.102  -5.198 133.205  0.00  0.00    +0.162 A 
ATOM     25  C   LIG A   1      -5.250  -5.403 132.428  0.00  0.00    +0.050 A 
ATOM     26  C   LIG A   1      -5.667  -4.429 131.516  0.00  0.00    +0.010 A 
BRANCH  23  27
ATOM     27  O   LIG A   1      -2.239  -3.640 133.753  0.00  0.00    -0.491 OA
ATOM     28  C   LIG A   1      -2.336  -2.499 134.597  0.00  0.00    +0.277 C 
ENDBRANCH  23  27
BRANCH  24  29
ATOM     29  O   LIG A   1      -3.766  -6.113 134.170  0.00  0.00    -0.491 OA
ATOM     30  C   LIG A   1      -4.432  -5.943 135.415  0.00  0.00    +0.277 C 
ENDBRANCH  24  29
ENDBRANCH   5  21
TORSDOF 7
ENDMDL
MODEL 7
REMARK VINA RESULT:      -6.7      5.852     10.399
REMARK  Name = NuBBE_15
REMARK  12 active torsions:
REMARK  status: ('A' for Active; 'I' for Inactive)
REMARK    1  A    between atoms: C_1  and  O_2
REMARK    2  A    between atoms: O_2  and  C_3
REMARK    3  A    between atoms: C_4  and  O_5
REMARK    4  A    between atoms: O_5  and  C_6
REMARK    5  A    between atoms: C_8  and  C_9
REMARK    6  A    between atoms: C_15  and  C_21
REMARK    7  A    between atoms: C_23  and  O_24
REMARK    8  A    between atoms: O_24  and  C_25
REMARK    9  A    between atoms: C_26  and  O_29
REMARK   10  A    between atoms: O_29  and  C_30
REMARK   11  A    between atoms: C_32  and  O_33
REMARK   12  A    between atoms: O_33  and  C_34
REMARK                            x       y       z     vdW  Elec       q    Type
REMARK                         _______ _______ _______ _____ _____    ______ ____
ROOT
ATOM      1  C   LIG A   1      -6.413  -2.078 129.015  0.00  0.00    +0.154 C 
ATOM      2  C   LIG A   1      -7.069  -3.339 129.587  0.00  0.00    +0.056 C 
ATOM      3  C   LIG A   1      -6.088  -4.418 129.963  0.00  0.00    +0.167 C 
ATOM      4  O   LIG A   1      -5.492  -3.990 131.190  0.00  0.00    -0.371 OA
ATOM      5  C   LIG A   1      -6.418  -3.115 131.880  0.00  0.00    +0.154 C 
ATOM      6  C   LIG A   1      -7.592  -2.884 130.919  0.00  0.00    +0.056 C 
ATOM      7  C   LIG A   1      -7.887  -1.422 130.704  0.00  0.00    +0.167 C 
ATOM      8  O   LIG A   1      -6.909  -0.953 129.772  0.00  0.00    -0.371 OA
ENDROOT
BRANCH   1  12
ATOM      9  C   LIG A   1      -7.349  -1.487 124.820  0.00  0.00    +0.203 A 
ATOM     10  C   LIG A   1      -6.090  -1.994 125.197  0.00  0.00    +0.166 A 
ATOM     11  C   LIG A   1      -5.797  -2.163 126.555  0.00  0.00    +0.056 A 
ATOM     12  C   LIG A   1      -6.748  -1.909 127.550  0.00  0.00    -0.011 A 
ATOM     13  C   LIG A   1      -8.007  -1.436 127.171  0.00  0.00    +0.056 A 
ATOM     14  C   LIG A   1      -8.302  -1.195 125.823  0.00  0.00    +0.166 A 
BRANCH   9  16
ATOM     15  C   LIG A   1      -8.310  -2.418 122.833  0.00  0.00    +0.277 C 
ATOM     16  O   LIG A   1      -7.780  -1.295 123.527  0.00  0.00    -0.488 OA
ENDBRANCH   9  16
BRANCH  10  17
ATOM     17  O   LIG A   1      -5.162  -2.279 124.233  0.00  0.00    -0.491 OA
ATOM     18  C   LIG A   1      -4.896  -3.652 123.964  0.00  0.00    +0.277 C 
ENDBRANCH  10  17
BRANCH  14  19
ATOM     19  O   LIG A   1      -9.516  -0.688 125.415  0.00  0.00    -0.491 OA
ATOM     20  C   LIG A   1      -9.695   0.714 125.608  0.00  0.00    +0.277 C 
ENDBRANCH  14  19
ENDBRANCH   1  12
BRANCH   5  21
ATOM     21  C   LIG A   1      -6.818  -3.720 133.215  0.00  0.00    -0.015 A 
ATOM     22  C   LIG A   1      -6.113  -4.801 133.785  0.00  0.00    +0.055 A 
ATOM     23  C   LIG A   1      -6.471  -5.333 135.037  0.00  0.00    +0.162 A 
ATOM     24  C   LIG A   1      -7.584  -4.813 135.703  0.00  0.00    +0.162 A 
ATOM     25  C   LIG A   1      -8.313  -3.763 135.129  0.00  0.00    +0.050 A 
ATOM     26  C   LIG A   1      -7.931  -3.232 133.894  0.00  0.00    +0.010 A 
BRANCH  23  27
ATOM     27  O   LIG A   1      -5.635  -6.342 135.453  0.00  0.00    -0.491 OA
ATOM     28  C   LIG A   1      -4.348  -6.415 134.850  0.00  0.00    +0.277 C 
ENDBRANCH  23  27
BRANCH  24  29
ATOM     29  O   LIG A   1      -7.905  -5.251 136.962  0.00  0.00    -0.491 OA
ATOM     30  C   LIG A   1      -9.035  -4.616 137.547  0.00  0.00    +0.277 C 
ENDBRANCH  24  29
ENDBRANCH   5  21
TORSDOF 7
ENDMDL
MODEL 8
REMARK VINA RESULT:      -6.7      4.973     10.354
REMARK  Name = NuBBE_15
REMARK  12 active torsions:
REMARK  status: ('A' for Active; 'I' for Inactive)
REMARK    1  A    between atoms: C_1  and  O_2
REMARK    2  A    between atoms: O_2  and  C_3
REMARK    3  A    between atoms: C_4  and  O_5
REMARK    4  A    between atoms: O_5  and  C_6
REMARK    5  A    between atoms: C_8  and  C_9
REMARK    6  A    between atoms: C_15  and  C_21
REMARK    7  A    between atoms: C_23  and  O_24
REMARK    8  A    between atoms: O_24  and  C_25
REMARK    9  A    between atoms: C_26  and  O_29
REMARK   10  A    between atoms: O_29  and  C_30
REMARK   11  A    between atoms: C_32  and  O_33
REMARK   12  A    between atoms: O_33  and  C_34
REMARK                            x       y       z     vdW  Elec       q    Type
REMARK                         _______ _______ _______ _____ _____    ______ ____
ROOT
ATOM      1  C   LIG A   1      -7.146  -1.495 128.783  0.00  0.00    +0.154 C 
ATOM      2  C   LIG A   1      -7.835  -2.707 129.418  0.00  0.00    +0.056 C 
ATOM      3  C   LIG A   1      -7.070  -3.995 129.257  0.00  0.00    +0.167 C 
ATOM      4  O   LIG A   1      -5.993  -3.927 130.194  0.00  0.00    -0.371 OA
ATOM      5  C   LIG A   1      -6.376  -3.054 131.284  0.00  0.00    +0.154 C 
ATOM      6  C   LIG A   1      -7.724  -2.437 130.892  0.00  0.00    +0.056 C 
ATOM      7  C   LIG A   1      -7.721  -0.932 130.976  0.00  0.00    +0.167 C 
ATOM      8  O   LIG A   1      -7.057  -0.470 129.796  0.00  0.00    -0.371 OA
ENDROOT
BRANCH   1  12
ATOM      9  C   LIG A   1      -9.303  -0.016 125.321  0.00  0.00    +0.203 A 
ATOM     10  C   LIG A   1      -9.118  -1.401 125.499  0.00  0.00    +0.166 A 
ATOM     11  C   LIG A   1      -8.406  -1.862 126.611  0.00  0.00    +0.056 A 
ATOM     12  C   LIG A   1      -7.931  -0.987 127.595  0.00  0.00    -0.011 A 
ATOM     13  C   LIG A   1      -8.143   0.385 127.432  0.00  0.00    +0.056 A 
ATOM     14  C   LIG A   1      -8.795   0.876 126.294  0.00  0.00    +0.166 A 
BRANCH   9  16
ATOM     15  C   LIG A   1      -9.325   0.768 123.058  0.00  0.00    +0.277 C 
ATOM     16  O   LIG A   1     -10.002   0.573 124.293  0.00  0.00    -0.488 OA
ENDBRANCH   9  16
BRANCH  10  17
ATOM     17  O   LIG A   1      -9.607  -2.271 124.562  0.00  0.00    -0.491 OA
ATOM     18  C   LIG A   1      -8.723  -3.274 124.075  0.00  0.00    +0.277 C 
ENDBRANCH  10  17
BRANCH  14  19
ATOM     19  O   LIG A   1      -8.984   2.224 126.078  0.00  0.00    -0.491 OA
ATOM     20  C   LIG A   1      -7.809   2.967 125.759  0.00  0.00    +0.277 C 
ENDBRANCH  14  19
ENDBRANCH   1  12
BRANCH   5  21
ATOM     21  C   LIG A   1      -6.405  -3.828 132.592  0.00  0.00    -0.015 A 
ATOM     22  C   LIG A   1      -7.371  -3.570 133.589  0.00  0.00    +0.055 A 
ATOM     23  C   LIG A   1      -7.410  -4.313 134.783  0.00  0.00    +0.162 A 
ATOM     24  C   LIG A   1      -6.438  -5.292 135.006  0.00  0.00    +0.162 A 
ATOM     25  C   LIG A   1      -5.454  -5.532 134.038  0.00  0.00    +0.050 A 
ATOM     26  C   LIG A   1      -5.441  -4.798 132.849  0.00  0.00    +0.010 A 
BRANCH  23  27
ATOM     27  O   LIG A   1      -8.453  -3.957 135.605  0.00  0.00    -0.491 OA
ATOM     28  C   LIG A   1      -8.143  -3.170 136.750  0.00  0.00    +0.277 C 
ENDBRANCH  23  27
BRANCH  24  29
ATOM     29  O   LIG A   1      -6.503  -6.091 136.119  0.00  0.00    -0.491 OA
ATOM     30  C   LIG A   1      -5.260  -6.649 136.528  0.00  0.00    +0.277 C 
ENDBRANCH  24  29
ENDBRANCH   5  21
TORSDOF 7
ENDMDL
MODEL 9
REMARK VINA RESULT:      -6.6      5.884      8.529
REMARK  Name = NuBBE_15
REMARK  12 active torsions:
REMARK  status: ('A' for Active; 'I' for Inactive)
REMARK    1  A    between atoms: C_1  and  O_2
REMARK    2  A    between atoms: O_2  and  C_3
REMARK    3  A    between atoms: C_4  and  O_5
REMARK    4  A    between atoms: O_5  and  C_6
REMARK    5  A    between atoms: C_8  and  C_9
REMARK    6  A    between atoms: C_15  and  C_21
REMARK    7  A    between atoms: C_23  and  O_24
REMARK    8  A    between atoms: O_24  and  C_25
REMARK    9  A    between atoms: C_26  and  O_29
REMARK   10  A    between atoms: O_29  and  C_30
REMARK   11  A    between atoms: C_32  and  O_33
REMARK   12  A    between atoms: O_33  and  C_34
REMARK                            x       y       z     vdW  Elec       q    Type
REMARK                         _______ _______ _______ _____ _____    ______ ____
ROOT
ATOM      1  C   LIG A   1      -5.050   3.082 126.686  0.00  0.00    +0.154 C 
ATOM      2  C   LIG A   1      -3.989   2.592 127.677  0.00  0.00    +0.056 C 
ATOM      3  C   LIG A   1      -2.595   3.065 127.358  0.00  0.00    +0.167 C 
ATOM      4  O   LIG A   1      -2.549   4.437 127.757  0.00  0.00    -0.371 OA
ATOM      5  C   LIG A   1      -3.525   4.652 128.805  0.00  0.00    +0.154 C 
ATOM      6  C   LIG A   1      -4.317   3.345 128.935  0.00  0.00    +0.056 C 
ATOM      7  C   LIG A   1      -5.806   3.555 128.844  0.00  0.00    +0.167 C 
ATOM      8  O   LIG A   1      -6.101   3.707 127.453  0.00  0.00    -0.371 OA
ENDROOT
BRANCH   1  12
ATOM      9  C   LIG A   1      -6.727  -0.229 124.439  0.00  0.00    +0.203 A 
ATOM     10  C   LIG A   1      -7.063   1.096 124.100  0.00  0.00    +0.166 A 
ATOM     11  C   LIG A   1      -6.528   2.153 124.845  0.00  0.00    +0.056 A 
ATOM     12  C   LIG A   1      -5.607   1.934 125.876  0.00  0.00    -0.011 A 
ATOM     13  C   LIG A   1      -5.250   0.619 126.190  0.00  0.00    +0.056 A 
ATOM     14  C   LIG A   1      -5.824  -0.459 125.503  0.00  0.00    +0.166 A 
BRANCH   9  16
ATOM     15  C   LIG A   1      -6.455  -1.746 122.605  0.00  0.00    +0.277 C 
ATOM     16  O   LIG A   1      -7.157  -1.358 123.780  0.00  0.00    -0.488 OA
ENDBRANCH   9  16
BRANCH  10  17
ATOM     17  O   LIG A   1      -7.936   1.327 123.072  0.00  0.00    -0.491 OA
ATOM     18  C   LIG A   1      -8.919   2.340 123.261  0.00  0.00    +0.277 C 
ENDBRANCH  10  17
BRANCH  14  19
ATOM     19  O   LIG A   1      -5.530  -1.769 125.814  0.00  0.00    -0.491 OA
ATOM     20  C   LIG A   1      -5.653  -2.118 127.190  0.00  0.00    +0.277 C 
ENDBRANCH  14  19
ENDBRANCH   1  12
BRANCH   5  21
ATOM     21  C   LIG A   1      -2.834   5.089 130.087  0.00  0.00    -0.015 A 
ATOM     22  C   LIG A   1      -2.977   4.370 131.292  0.00  0.00    +0.055 A 
ATOM     23  C   LIG A   1      -2.307   4.764 132.465  0.00  0.00    +0.162 A 
ATOM     24  C   LIG A   1      -1.527   5.922 132.446  0.00  0.00    +0.162 A 
ATOM     25  C   LIG A   1      -1.406   6.663 131.263  0.00  0.00    +0.050 A 
ATOM     26  C   LIG A   1      -2.062   6.247 130.101  0.00  0.00    +0.010 A 
BRANCH  23  27
ATOM     27  O   LIG A   1      -2.524   3.910 133.522  0.00  0.00    -0.491 OA
ATOM     28  C   LIG A   1      -3.719   4.089 134.272  0.00  0.00    +0.277 C 
ENDBRANCH  23  27
BRANCH  24  29
ATOM     29  O   LIG A   1      -0.793   6.281 133.547  0.00  0.00    -0.491 OA
ATOM     30  C   LIG A   1      -0.028   7.471 133.395  0.00  0.00    +0.277 C 
ENDBRANCH  24  29
ENDBRANCH   5  21
TORSDOF 7
ENDMDL
