MODEL 1
REMARK VINA RESULT:      -5.7      0.000      0.000
REMARK  Name = NuBBE_1734
REMARK  3 active torsions:
REMARK  status: ('A' for Active; 'I' for Inactive)
REMARK    1  A    between atoms: C_1  and  C_2
REMARK    2  A    between atoms: C_2  and  C_3
REMARK    3  A    between atoms: C_6  and  C_7
REMARK                            x       y       z     vdW  Elec       q    Type
REMARK                         _______ _______ _______ _____ _____    ______ ____
ROOT
ATOM      1  C   LIG A   1      -4.920  -3.343 123.823  0.00  0.00    +0.011 C 
ATOM      2  C   LIG A   1      -6.260  -2.659 123.742  0.00  0.00    -0.028 C 
ATOM      3  C   LIG A   1      -6.442  -1.818 122.508  0.00  0.00    +0.011 C 
ATOM      4  C   LIG A   1      -6.861  -2.199 125.034  0.00  0.00    +0.003 C 
ATOM      5  C   LIG A   1      -6.834  -2.604 126.478  0.00  0.00    +0.034 C 
ATOM      6  C   LIG A   1      -8.242  -3.045 126.917  0.00  0.00    -0.076 C 
ATOM      7  C   LIG A   1      -8.462  -3.220 128.388  0.00  0.00    +0.038 C 
ATOM      8  C   LIG A   1      -9.221  -3.262 126.004  0.00  0.00    -0.027 C 
ATOM      9  C   LIG A   1      -8.949  -3.214 124.494  0.00  0.00    +0.031 C 
ATOM     10  C   LIG A   1      -7.476  -3.386 124.276  0.00  0.00    +0.003 C 
ENDROOT
TORSDOF 0
ENDMDL
MODEL 2
REMARK VINA RESULT:      -5.6     11.338     12.324
REMARK  Name = NuBBE_1734
REMARK  3 active torsions:
REMARK  status: ('A' for Active; 'I' for Inactive)
REMARK    1  A    between atoms: C_1  and  C_2
REMARK    2  A    between atoms: C_2  and  C_3
REMARK    3  A    between atoms: C_6  and  C_7
REMARK                            x       y       z     vdW  Elec       q    Type
REMARK                         _______ _______ _______ _____ _____    ______ ____
ROOT
ATOM      1  C   LIG A   1     -12.478   7.313 127.179  0.00  0.00    +0.011 C 
ATOM      2  C   LIG A   1     -12.643   8.024 128.497  0.00  0.00    -0.028 C 
ATOM      3  C   LIG A   1     -13.485   9.267 128.420  0.00  0.00    +0.011 C 
ATOM      4  C   LIG A   1     -11.471   7.991 129.431  0.00  0.00    +0.003 C 
ATOM      5  C   LIG A   1     -10.320   7.080 129.737  0.00  0.00    +0.034 C 
ATOM      6  C   LIG A   1     -10.449   6.555 131.179  0.00  0.00    -0.076 C 
ATOM      7  C   LIG A   1      -9.253   5.854 131.747  0.00  0.00    +0.038 C 
ATOM      8  C   LIG A   1     -11.596   6.725 131.883  0.00  0.00    -0.027 C 
ATOM      9  C   LIG A   1     -12.859   7.320 131.247  0.00  0.00    +0.031 C 
ATOM     10  C   LIG A   1     -12.741   7.191 129.758  0.00  0.00    +0.003 C 
ENDROOT
TORSDOF 0
ENDMDL
MODEL 3
REMARK VINA RESULT:      -5.3     11.475     12.559
REMARK  Name = NuBBE_1734
REMARK  3 active torsions:
REMARK  status: ('A' for Active; 'I' for Inactive)
REMARK    1  A    between atoms: C_1  and  C_2
REMARK    2  A    between atoms: C_2  and  C_3
REMARK    3  A    between atoms: C_6  and  C_7
REMARK                            x       y       z     vdW  Elec       q    Type
REMARK                         _______ _______ _______ _____ _____    ______ ____
ROOT
ATOM      1  C   LIG A   1     -13.210   9.807 129.962  0.00  0.00    +0.011 C 
ATOM      2  C   LIG A   1     -12.819   8.536 129.254  0.00  0.00    -0.028 C 
ATOM      3  C   LIG A   1     -13.558   8.302 127.964  0.00  0.00    +0.011 C 
ATOM      4  C   LIG A   1     -12.470   7.363 130.119  0.00  0.00    +0.003 C 
ATOM      5  C   LIG A   1     -11.894   7.121 131.482  0.00  0.00    +0.034 C 
ATOM      6  C   LIG A   1     -10.545   6.392 131.349  0.00  0.00    -0.076 C 
ATOM      7  C   LIG A   1      -9.960   5.828 132.608  0.00  0.00    +0.038 C 
ATOM      8  C   LIG A   1      -9.929   6.277 130.147  0.00  0.00    -0.027 C 
ATOM      9  C   LIG A   1     -10.466   6.976 128.890  0.00  0.00    +0.031 C 
ATOM     10  C   LIG A   1     -11.374   8.087 129.321  0.00  0.00    +0.003 C 
ENDROOT
TORSDOF 0
ENDMDL
MODEL 4
REMARK VINA RESULT:      -5.2     10.917     12.070
REMARK  Name = NuBBE_1734
REMARK  3 active torsions:
REMARK  status: ('A' for Active; 'I' for Inactive)
REMARK    1  A    between atoms: C_1  and  C_2
REMARK    2  A    between atoms: C_2  and  C_3
REMARK    3  A    between atoms: C_6  and  C_7
REMARK                            x       y       z     vdW  Elec       q    Type
REMARK                         _______ _______ _______ _____ _____    ______ ____
ROOT
ATOM      1  C   LIG A   1      -7.963   6.928 130.908  0.00  0.00    +0.011 C 
ATOM      2  C   LIG A   1      -9.229   6.115 130.816  0.00  0.00    -0.028 C 
ATOM      3  C   LIG A   1      -9.017   4.635 130.977  0.00  0.00    +0.011 C 
ATOM      4  C   LIG A   1     -10.276   6.604 129.863  0.00  0.00    +0.003 C 
ATOM      5  C   LIG A   1     -10.734   7.913 129.292  0.00  0.00    +0.034 C 
ATOM      6  C   LIG A   1     -12.175   8.200 129.752  0.00  0.00    -0.076 C 
ATOM      7  C   LIG A   1     -12.889   9.322 129.062  0.00  0.00    +0.038 C 
ATOM      8  C   LIG A   1     -12.753   7.466 130.735  0.00  0.00    -0.027 C 
ATOM      9  C   LIG A   1     -11.969   6.412 131.529  0.00  0.00    +0.031 C 
ATOM     10  C   LIG A   1     -10.506   6.702 131.379  0.00  0.00    +0.003 C 
ENDROOT
TORSDOF 0
ENDMDL
MODEL 5
REMARK VINA RESULT:      -5.2      1.058      3.954
REMARK  Name = NuBBE_1734
REMARK  3 active torsions:
REMARK  status: ('A' for Active; 'I' for Inactive)
REMARK    1  A    between atoms: C_1  and  C_2
REMARK    2  A    between atoms: C_2  and  C_3
REMARK    3  A    between atoms: C_6  and  C_7
REMARK                            x       y       z     vdW  Elec       q    Type
REMARK                         _______ _______ _______ _____ _____    ______ ____
ROOT
ATOM      1  C   LIG A   1      -7.892  -1.731 128.023  0.00  0.00    +0.011 C 
ATOM      2  C   LIG A   1      -8.339  -2.856 127.126  0.00  0.00    -0.028 C 
ATOM      3  C   LIG A   1      -8.960  -4.012 127.860  0.00  0.00    +0.011 C 
ATOM      4  C   LIG A   1      -7.501  -3.125 125.914  0.00  0.00    +0.003 C 
ATOM      5  C   LIG A   1      -6.612  -2.354 124.984  0.00  0.00    +0.034 C 
ATOM      6  C   LIG A   1      -7.217  -2.361 123.569  0.00  0.00    -0.076 C 
ATOM      7  C   LIG A   1      -6.335  -1.877 122.459  0.00  0.00    +0.038 C 
ATOM      8  C   LIG A   1      -8.487  -2.786 123.355  0.00  0.00    -0.027 C 
ATOM      9  C   LIG A   1      -9.428  -3.149 124.512  0.00  0.00    +0.031 C 
ATOM     10  C   LIG A   1      -8.902  -2.512 125.763  0.00  0.00    +0.003 C 
ENDROOT
TORSDOF 0
ENDMDL
MODEL 6
REMARK VINA RESULT:      -5.1      1.968      3.379
REMARK  Name = NuBBE_1734
REMARK  3 active torsions:
REMARK  status: ('A' for Active; 'I' for Inactive)
REMARK    1  A    between atoms: C_1  and  C_2
REMARK    2  A    between atoms: C_2  and  C_3
REMARK    3  A    between atoms: C_6  and  C_7
REMARK                            x       y       z     vdW  Elec       q    Type
REMARK                         _______ _______ _______ _____ _____    ______ ____
ROOT
ATOM      1  C   LIG A   1      -5.334  -1.267 125.333  0.00  0.00    +0.011 C 
ATOM      2  C   LIG A   1      -5.926  -2.241 124.347  0.00  0.00    -0.028 C 
ATOM      3  C   LIG A   1      -5.017  -3.388 124.000  0.00  0.00    +0.011 C 
ATOM      4  C   LIG A   1      -6.817  -1.668 123.287  0.00  0.00    +0.003 C 
ATOM      5  C   LIG A   1      -7.742  -0.499 123.126  0.00  0.00    +0.034 C 
ATOM      6  C   LIG A   1      -9.181  -1.006 122.919  0.00  0.00    -0.076 C 
ATOM      7  C   LIG A   1     -10.191   0.006 122.470  0.00  0.00    +0.038 C 
ATOM      8  C   LIG A   1      -9.502  -2.305 123.138  0.00  0.00    -0.027 C 
ATOM      9  C   LIG A   1      -8.495  -3.301 123.729  0.00  0.00    +0.031 C 
ATOM     10  C   LIG A   1      -7.411  -2.524 124.415  0.00  0.00    +0.003 C 
ENDROOT
TORSDOF 0
ENDMDL
MODEL 7
REMARK VINA RESULT:      -5.0      2.709      4.786
REMARK  Name = NuBBE_1734
REMARK  3 active torsions:
REMARK  status: ('A' for Active; 'I' for Inactive)
REMARK    1  A    between atoms: C_1  and  C_2
REMARK    2  A    between atoms: C_2  and  C_3
REMARK    3  A    between atoms: C_6  and  C_7
REMARK                            x       y       z     vdW  Elec       q    Type
REMARK                         _______ _______ _______ _____ _____    ______ ____
ROOT
ATOM      1  C   LIG A   1      -7.450  -1.812 130.869  0.00  0.00    +0.011 C 
ATOM      2  C   LIG A   1      -7.273  -2.920 129.864  0.00  0.00    -0.028 C 
ATOM      3  C   LIG A   1      -6.431  -4.065 130.358  0.00  0.00    +0.011 C 
ATOM      4  C   LIG A   1      -7.185  -2.516 128.424  0.00  0.00    +0.003 C 
ATOM      5  C   LIG A   1      -7.696  -1.412 127.547  0.00  0.00    +0.034 C 
ATOM      6  C   LIG A   1      -8.643  -1.996 126.484  0.00  0.00    -0.076 C 
ATOM      7  C   LIG A   1      -9.031  -1.086 125.358  0.00  0.00    +0.038 C 
ATOM      8  C   LIG A   1      -9.097  -3.271 126.577  0.00  0.00    -0.027 C 
ATOM      9  C   LIG A   1      -8.806  -4.147 127.803  0.00  0.00    +0.031 C 
ATOM     10  C   LIG A   1      -8.429  -3.252 128.945  0.00  0.00    +0.003 C 
ENDROOT
TORSDOF 0
ENDMDL
MODEL 8
REMARK VINA RESULT:      -4.9      1.269      2.466
REMARK  Name = NuBBE_1734
REMARK  3 active torsions:
REMARK  status: ('A' for Active; 'I' for Inactive)
REMARK    1  A    between atoms: C_1  and  C_2
REMARK    2  A    between atoms: C_2  and  C_3
REMARK    3  A    between atoms: C_6  and  C_7
REMARK                            x       y       z     vdW  Elec       q    Type
REMARK                         _______ _______ _______ _____ _____    ______ ____
ROOT
ATOM      1  C   LIG A   1      -6.905  -3.124 124.179  0.00  0.00    +0.011 C 
ATOM      2  C   LIG A   1      -8.200  -3.156 124.948  0.00  0.00    -0.028 C 
ATOM      3  C   LIG A   1      -9.416  -3.367 124.089  0.00  0.00    +0.011 C 
ATOM      4  C   LIG A   1      -8.296  -2.258 126.143  0.00  0.00    +0.003 C 
ATOM      5  C   LIG A   1      -7.372  -1.663 127.163  0.00  0.00    +0.034 C 
ATOM      6  C   LIG A   1      -7.725  -2.208 128.558  0.00  0.00    -0.076 C 
ATOM      7  C   LIG A   1      -7.089  -1.521 129.728  0.00  0.00    +0.038 C 
ATOM      8  C   LIG A   1      -8.568  -3.260 128.704  0.00  0.00    -0.027 C 
ATOM      9  C   LIG A   1      -9.104  -4.044 127.498  0.00  0.00    +0.031 C 
ATOM     10  C   LIG A   1      -8.204  -3.780 126.328  0.00  0.00    +0.003 C 
ENDROOT
TORSDOF 0
ENDMDL
MODEL 9
REMARK VINA RESULT:      -4.8      1.854      3.533
REMARK  Name = NuBBE_1734
REMARK  3 active torsions:
REMARK  status: ('A' for Active; 'I' for Inactive)
REMARK    1  A    between atoms: C_1  and  C_2
REMARK    2  A    between atoms: C_2  and  C_3
REMARK    3  A    between atoms: C_6  and  C_7
REMARK                            x       y       z     vdW  Elec       q    Type
REMARK                         _______ _______ _______ _____ _____    ______ ____
ROOT
ATOM      1  C   LIG A   1      -7.692   0.766 123.693  0.00  0.00    +0.011 C 
ATOM      2  C   LIG A   1      -8.012  -0.349 124.654  0.00  0.00    -0.028 C 
ATOM      3  C   LIG A   1      -8.994   0.033 125.728  0.00  0.00    +0.011 C 
ATOM      4  C   LIG A   1      -6.898  -1.293 124.986  0.00  0.00    +0.003 C 
ATOM      5  C   LIG A   1      -5.663  -1.830 124.325  0.00  0.00    +0.034 C 
ATOM      6  C   LIG A   1      -5.805  -3.350 124.126  0.00  0.00    -0.076 C 
ATOM      7  C   LIG A   1      -4.565  -4.094 123.733  0.00  0.00    +0.038 C 
ATOM      8  C   LIG A   1      -6.999  -3.968 124.299  0.00  0.00    -0.027 C 
ATOM      9  C   LIG A   1      -8.290  -3.181 124.566  0.00  0.00    +0.031 C 
ATOM     10  C   LIG A   1      -8.077  -1.764 124.122  0.00  0.00    +0.003 C 
ENDROOT
TORSDOF 0
ENDMDL
