MODEL 1
REMARK VINA RESULT:      -8.2      0.000      0.000
REMARK  Name = NuBBE_520
REMARK  12 active torsions:
REMARK  status: ('A' for Active; 'I' for Inactive)
REMARK    1  A    between atoms: C_4  and  C_6
REMARK    2  A    between atoms: C_8  and  C_9
REMARK    3  A    between atoms: C_9  and  C_10
REMARK    4  A    between atoms: C_10  and  C_12
REMARK    5  A    between atoms: C_10  and  C_13
REMARK    6  A    between atoms: C_13  and  O_15
REMARK    7  A    between atoms: C_13  and  C_16
REMARK    8  A    between atoms: C_25  and  C_26
REMARK    9  A    between atoms: C_27  and  C_28
REMARK   10  A    between atoms: C_28  and  C_30
REMARK   11  A    between atoms: C_28  and  C_31
REMARK   12  A    between atoms: C_31  and  C_32
REMARK                            x       y       z     vdW  Elec       q    Type
REMARK                         _______ _______ _______ _____ _____    ______ ____
ROOT
ATOM      1 CL   LIG A   1      -4.114   2.286 126.680  0.00  0.00    -0.079 Cl
ATOM      2  C   LIG A   1      -5.618   1.426 126.732  0.00  0.00    +0.096 C 
ATOM      3  C   LIG A   1      -5.853   0.604 127.975  0.00  0.00    +0.222 C 
ATOM      4  C   LIG A   1      -7.263   0.016 128.189  0.00  0.00    +0.200 C 
ATOM      5  O   LIG A   1      -7.244  -1.217 128.891  0.00  0.00    -0.442 OA
ATOM      6  C   LIG A   1      -8.112   0.997 129.004  0.00  0.00    +0.070 C 
ATOM      7  C   LIG A   1      -7.873  -0.340 126.886  0.00  0.00    +0.031 C 
ATOM      8  C   LIG A   1      -8.253  -1.621 126.839  0.00  0.00    +0.110 C 
ATOM      9  C   LIG A   1      -7.818  -2.185 128.126  0.00  0.00    +0.344 C 
ATOM     10  O   LIG A   1      -7.905  -3.347 128.471  0.00  0.00    -0.245 OA
ATOM     11  O   LIG A   1      -4.961   0.450 128.811  0.00  0.00    -0.286 OA
ATOM     12  C   LIG A   1      -6.547   1.485 125.751  0.00  0.00    +0.011 C 
ATOM     13  C   LIG A   1      -7.782   0.681 125.872  0.00  0.00    +0.027 C 
ATOM     14  C   LIG A   1      -8.788   0.998 125.039  0.00  0.00    +0.204 C 
ATOM     15  O   LIG A   1      -8.689   1.931 124.027  0.00  0.00    -0.463 OA
ATOM     16  C   LIG A   1      -7.429   2.446 123.719  0.00  0.00    +0.128 C 
ATOM     17  C   LIG A   1      -6.370   2.266 124.528  0.00  0.00    +0.056 C 
ENDROOT
BRANCH   8  18
ATOM     18  C   LIG A   1      -8.893  -2.370 125.721  0.00  0.00    +0.176 C 
ATOM     19  O   LIG A   1     -10.115  -2.540 125.721  0.00  0.00    -0.291 OA
BRANCH  18  20
ATOM     20  C   LIG A   1      -7.996  -3.073 124.693  0.00  0.00    +0.085 C 
ATOM     21  C   LIG A   1      -8.784  -3.173 123.386  0.00  0.00    +0.018 C 
BRANCH  20  22
ATOM     22  C   LIG A   1      -6.657  -2.333 124.519  0.00  0.00    +0.122 C 
ATOM     23  C   LIG A   1      -6.580  -1.563 123.202  0.00  0.00    +0.038 C 
BRANCH  22  24
ATOM     24  O   LIG A   1      -5.603  -3.299 124.494  0.00  0.00    -0.391 OA
ATOM     25  H   LIG A   1      -4.773  -2.823 124.676  0.00  0.00    +0.210 HD
ENDBRANCH  22  24
ENDBRANCH  20  22
ENDBRANCH  18  20
ENDBRANCH   8  18
BRANCH  16  26
ATOM     26  C   LIG A   1      -7.344   3.144 122.451  0.00  0.00    +0.042 C 
ATOM     27  C   LIG A   1      -6.333   2.986 121.576  0.00  0.00    -0.020 C 
BRANCH  27  28
ATOM     28  C   LIG A   1      -6.188   3.757 120.290  0.00  0.00    +0.008 C 
ATOM     29  C   LIG A   1      -7.572   4.168 119.781  0.00  0.00    +0.012 C 
BRANCH  28  30
ATOM     30  C   LIG A   1      -5.247   4.967 120.444  0.00  0.00    +0.004 C 
ATOM     31  C   LIG A   1      -4.323   4.930 121.657  0.00  0.00    +0.004 C 
ENDBRANCH  28  30
ENDBRANCH  27  28
ENDBRANCH  16  26
TORSDOF 7
ENDMDL
MODEL 2
REMARK VINA RESULT:      -8.0      3.477      7.763
REMARK  Name = NuBBE_520
REMARK  12 active torsions:
REMARK  status: ('A' for Active; 'I' for Inactive)
REMARK    1  A    between atoms: C_4  and  C_6
REMARK    2  A    between atoms: C_8  and  C_9
REMARK    3  A    between atoms: C_9  and  C_10
REMARK    4  A    between atoms: C_10  and  C_12
REMARK    5  A    between atoms: C_10  and  C_13
REMARK    6  A    between atoms: C_13  and  O_15
REMARK    7  A    between atoms: C_13  and  C_16
REMARK    8  A    between atoms: C_25  and  C_26
REMARK    9  A    between atoms: C_27  and  C_28
REMARK   10  A    between atoms: C_28  and  C_30
REMARK   11  A    between atoms: C_28  and  C_31
REMARK   12  A    between atoms: C_31  and  C_32
REMARK                            x       y       z     vdW  Elec       q    Type
REMARK                         _______ _______ _______ _____ _____    ______ ____
ROOT
ATOM      1 CL   LIG A   1      -8.329   0.786 131.584  0.00  0.00    -0.079 Cl
ATOM      2  C   LIG A   1      -8.074   0.350 129.926  0.00  0.00    +0.096 C 
ATOM      3  C   LIG A   1      -8.500   1.382 128.910  0.00  0.00    +0.222 C 
ATOM      4  C   LIG A   1      -8.080   1.159 127.444  0.00  0.00    +0.200 C 
ATOM      5  O   LIG A   1      -9.018   1.685 126.517  0.00  0.00    -0.442 OA
ATOM      6  C   LIG A   1      -6.736   1.848 127.181  0.00  0.00    +0.070 C 
ATOM      7  C   LIG A   1      -8.063  -0.290 127.130  0.00  0.00    +0.031 C 
ATOM      8  C   LIG A   1      -8.837  -0.590 126.082  0.00  0.00    +0.110 C 
ATOM      9  C   LIG A   1      -9.470   0.686 125.712  0.00  0.00    +0.344 C 
ATOM     10  O   LIG A   1     -10.309   0.851 124.847  0.00  0.00    -0.245 OA
ATOM     11  O   LIG A   1      -9.120   2.390 129.253  0.00  0.00    -0.286 OA
ATOM     12  C   LIG A   1      -7.515  -0.819 129.538  0.00  0.00    +0.011 C 
ATOM     13  C   LIG A   1      -7.378  -1.114 128.096  0.00  0.00    +0.027 C 
ATOM     14  C   LIG A   1      -6.561  -2.128 127.766  0.00  0.00    +0.204 C 
ATOM     15  O   LIG A   1      -5.950  -2.958 128.683  0.00  0.00    -0.463 OA
ATOM     16  C   LIG A   1      -6.340  -2.872 130.020  0.00  0.00    +0.128 C 
ATOM     17  C   LIG A   1      -7.085  -1.851 130.479  0.00  0.00    +0.056 C 
ENDROOT
BRANCH   8  18
ATOM     18  C   LIG A   1      -9.100  -1.917 125.458  0.00  0.00    +0.176 C 
ATOM     19  O   LIG A   1      -9.932  -2.675 125.963  0.00  0.00    -0.291 OA
BRANCH  18  20
ATOM     20  C   LIG A   1      -8.196  -2.386 124.310  0.00  0.00    +0.085 C 
ATOM     21  C   LIG A   1      -7.527  -3.688 124.752  0.00  0.00    +0.018 C 
BRANCH  20  22
ATOM     22  C   LIG A   1      -8.992  -2.547 123.001  0.00  0.00    +0.122 C 
ATOM     23  C   LIG A   1      -9.484  -1.210 122.448  0.00  0.00    +0.038 C 
BRANCH  22  24
ATOM     24  O   LIG A   1     -10.155  -3.335 123.270  0.00  0.00    -0.391 OA
ATOM     25  H   LIG A   1     -10.742  -2.799 123.832  0.00  0.00    +0.210 HD
ENDBRANCH  22  24
ENDBRANCH  20  22
ENDBRANCH  18  20
ENDBRANCH   8  18
BRANCH  16  26
ATOM     26  C   LIG A   1      -5.922  -3.981 130.855  0.00  0.00    +0.042 C 
ATOM     27  C   LIG A   1      -6.072  -4.010 132.193  0.00  0.00    -0.020 C 
BRANCH  27  28
ATOM     28  C   LIG A   1      -5.576  -5.117 133.085  0.00  0.00    +0.008 C 
ATOM     29  C   LIG A   1      -4.063  -4.982 133.275  0.00  0.00    +0.012 C 
BRANCH  28  30
ATOM     30  C   LIG A   1      -6.325  -5.156 134.431  0.00  0.00    +0.004 C 
ATOM     31  C   LIG A   1      -7.534  -4.232 134.535  0.00  0.00    +0.004 C 
ENDBRANCH  28  30
ENDBRANCH  27  28
ENDBRANCH  16  26
TORSDOF 7
ENDMDL
MODEL 3
REMARK VINA RESULT:      -7.7      3.757      6.156
REMARK  Name = NuBBE_520
REMARK  12 active torsions:
REMARK  status: ('A' for Active; 'I' for Inactive)
REMARK    1  A    between atoms: C_4  and  C_6
REMARK    2  A    between atoms: C_8  and  C_9
REMARK    3  A    between atoms: C_9  and  C_10
REMARK    4  A    between atoms: C_10  and  C_12
REMARK    5  A    between atoms: C_10  and  C_13
REMARK    6  A    between atoms: C_13  and  O_15
REMARK    7  A    between atoms: C_13  and  C_16
REMARK    8  A    between atoms: C_25  and  C_26
REMARK    9  A    between atoms: C_27  and  C_28
REMARK   10  A    between atoms: C_28  and  C_30
REMARK   11  A    between atoms: C_28  and  C_31
REMARK   12  A    between atoms: C_31  and  C_32
REMARK                            x       y       z     vdW  Elec       q    Type
REMARK                         _______ _______ _______ _____ _____    ______ ____
ROOT
ATOM      1 CL   LIG A   1      -6.951   2.472 128.254  0.00  0.00    -0.079 Cl
ATOM      2  C   LIG A   1      -7.270   1.135 129.309  0.00  0.00    +0.096 C 
ATOM      3  C   LIG A   1      -7.441   1.484 130.767  0.00  0.00    +0.222 C 
ATOM      4  C   LIG A   1      -7.963   0.383 131.712  0.00  0.00    +0.200 C 
ATOM      5  O   LIG A   1      -7.458   0.507 133.032  0.00  0.00    -0.442 OA
ATOM      6  C   LIG A   1      -9.491   0.455 131.794  0.00  0.00    +0.070 C 
ATOM      7  C   LIG A   1      -7.464  -0.944 131.276  0.00  0.00    +0.031 C 
ATOM      8  C   LIG A   1      -6.806  -1.580 132.250  0.00  0.00    +0.110 C 
ATOM      9  C   LIG A   1      -6.783  -0.626 133.369  0.00  0.00    +0.344 C 
ATOM     10  O   LIG A   1      -6.220  -0.777 134.436  0.00  0.00    -0.245 OA
ATOM     11  O   LIG A   1      -7.217   2.625 131.176  0.00  0.00    -0.286 OA
ATOM     12  C   LIG A   1      -7.384  -0.143 128.883  0.00  0.00    +0.011 C 
ATOM     13  C   LIG A   1      -7.617  -1.220 129.869  0.00  0.00    +0.027 C 
ATOM     14  C   LIG A   1      -8.017  -2.405 129.380  0.00  0.00    +0.204 C 
ATOM     15  O   LIG A   1      -8.107  -2.696 128.034  0.00  0.00    -0.463 OA
ATOM     16  C   LIG A   1      -7.580  -1.783 127.121  0.00  0.00    +0.128 C 
ATOM     17  C   LIG A   1      -7.229  -0.536 127.483  0.00  0.00    +0.056 C 
ENDROOT
BRANCH   8  18
ATOM     18  C   LIG A   1      -6.149  -2.917 132.221  0.00  0.00    +0.176 C 
ATOM     19  O   LIG A   1      -6.698  -3.879 132.766  0.00  0.00    -0.291 OA
BRANCH  18  20
ATOM     20  C   LIG A   1      -4.719  -3.028 131.675  0.00  0.00    +0.085 C 
ATOM     21  C   LIG A   1      -3.830  -3.538 132.810  0.00  0.00    +0.018 C 
BRANCH  20  22
ATOM     22  C   LIG A   1      -4.665  -3.933 130.430  0.00  0.00    +0.122 C 
ATOM     23  C   LIG A   1      -4.482  -3.139 129.137  0.00  0.00    +0.038 C 
BRANCH  22  24
ATOM     24  O   LIG A   1      -5.911  -4.626 130.316  0.00  0.00    -0.391 OA
ATOM     25  H   LIG A   1      -6.554  -4.001 129.937  0.00  0.00    +0.210 HD
ENDBRANCH  22  24
ENDBRANCH  20  22
ENDBRANCH  18  20
ENDBRANCH   8  18
BRANCH  16  26
ATOM     26  C   LIG A   1      -7.400  -2.293 125.776  0.00  0.00    +0.042 C 
ATOM     27  C   LIG A   1      -6.198  -2.477 125.199  0.00  0.00    -0.020 C 
BRANCH  27  28
ATOM     28  C   LIG A   1      -5.992  -2.934 123.778  0.00  0.00    +0.008 C 
ATOM     29  C   LIG A   1      -6.439  -1.829 122.817  0.00  0.00    +0.012 C 
BRANCH  28  30
ATOM     30  C   LIG A   1      -4.538  -3.373 123.516  0.00  0.00    +0.004 C 
ATOM     31  C   LIG A   1      -4.296  -4.879 123.532  0.00  0.00    +0.004 C 
ENDBRANCH  28  30
ENDBRANCH  27  28
ENDBRANCH  16  26
TORSDOF 7
ENDMDL
MODEL 4
REMARK VINA RESULT:      -7.7      7.179     11.071
REMARK  Name = NuBBE_520
REMARK  12 active torsions:
REMARK  status: ('A' for Active; 'I' for Inactive)
REMARK    1  A    between atoms: C_4  and  C_6
REMARK    2  A    between atoms: C_8  and  C_9
REMARK    3  A    between atoms: C_9  and  C_10
REMARK    4  A    between atoms: C_10  and  C_12
REMARK    5  A    between atoms: C_10  and  C_13
REMARK    6  A    between atoms: C_13  and  O_15
REMARK    7  A    between atoms: C_13  and  C_16
REMARK    8  A    between atoms: C_25  and  C_26
REMARK    9  A    between atoms: C_27  and  C_28
REMARK   10  A    between atoms: C_28  and  C_30
REMARK   11  A    between atoms: C_28  and  C_31
REMARK   12  A    between atoms: C_31  and  C_32
REMARK                            x       y       z     vdW  Elec       q    Type
REMARK                         _______ _______ _______ _____ _____    ______ ____
ROOT
ATOM      1 CL   LIG A   1      -3.816   6.785 132.201  0.00  0.00    -0.079 Cl
ATOM      2  C   LIG A   1      -5.188   5.845 131.717  0.00  0.00    +0.096 C 
ATOM      3  C   LIG A   1      -5.202   5.410 130.272  0.00  0.00    +0.222 C 
ATOM      4  C   LIG A   1      -6.263   4.376 129.844  0.00  0.00    +0.200 C 
ATOM      5  O   LIG A   1      -6.677   4.539 128.497  0.00  0.00    -0.442 OA
ATOM      6  C   LIG A   1      -5.690   2.962 129.983  0.00  0.00    +0.070 C 
ATOM      7  C   LIG A   1      -7.513   4.576 130.615  0.00  0.00    +0.031 C 
ATOM      8  C   LIG A   1      -8.573   4.756 129.820  0.00  0.00    +0.110 C 
ATOM      9  C   LIG A   1      -8.019   4.758 128.457  0.00  0.00    +0.344 C 
ATOM     10  O   LIG A   1      -8.634   4.963 127.429  0.00  0.00    -0.245 OA
ATOM     11  O   LIG A   1      -4.362   5.833 129.475  0.00  0.00    -0.286 OA
ATOM     12  C   LIG A   1      -6.186   5.490 132.559  0.00  0.00    +0.011 C 
ATOM     13  C   LIG A   1      -7.335   4.719 132.039  0.00  0.00    +0.027 C 
ATOM     14  C   LIG A   1      -8.133   4.141 132.952  0.00  0.00    +0.204 C 
ATOM     15  O   LIG A   1      -8.005   4.321 134.315  0.00  0.00    -0.463 OA
ATOM     16  C   LIG A   1      -7.124   5.300 134.776  0.00  0.00    +0.128 C 
ATOM     17  C   LIG A   1      -6.221   5.882 133.967  0.00  0.00    +0.056 C 
ENDROOT
BRANCH   8  18
ATOM     18  C   LIG A   1      -9.996   4.996 130.193  0.00  0.00    +0.176 C 
ATOM     19  O   LIG A   1     -10.839   4.122 129.974  0.00  0.00    -0.291 OA
BRANCH  18  20
ATOM     20  C   LIG A   1     -10.411   6.395 130.668  0.00  0.00    +0.085 C 
ATOM     21  C   LIG A   1      -9.782   7.412 129.714  0.00  0.00    +0.018 C 
BRANCH  20  22
ATOM     22  C   LIG A   1     -11.944   6.527 130.744  0.00  0.00    +0.122 C 
ATOM     23  C   LIG A   1     -12.421   7.959 130.509  0.00  0.00    +0.038 C 
BRANCH  22  24
ATOM     24  O   LIG A   1     -12.367   6.162 132.060  0.00  0.00    -0.391 OA
ATOM     25  H   LIG A   1     -12.624   6.982 132.517  0.00  0.00    +0.210 HD
ENDBRANCH  22  24
ENDBRANCH  20  22
ENDBRANCH  18  20
ENDBRANCH   8  18
BRANCH  16  26
ATOM     26  C   LIG A   1      -7.289   5.668 136.168  0.00  0.00    +0.042 C 
ATOM     27  C   LIG A   1      -8.256   6.490 136.617  0.00  0.00    -0.020 C 
BRANCH  27  28
ATOM     28  C   LIG A   1      -8.397   6.944 138.046  0.00  0.00    +0.008 C 
ATOM     29  C   LIG A   1      -7.196   6.455 138.859  0.00  0.00    +0.012 C 
BRANCH  28  30
ATOM     30  C   LIG A   1      -8.583   8.470 138.153  0.00  0.00    +0.004 C 
ATOM     31  C   LIG A   1      -9.906   9.009 137.619  0.00  0.00    +0.004 C 
ENDBRANCH  28  30
ENDBRANCH  27  28
ENDBRANCH  16  26
TORSDOF 7
ENDMDL
MODEL 5
REMARK VINA RESULT:      -7.5      4.396      8.056
REMARK  Name = NuBBE_520
REMARK  12 active torsions:
REMARK  status: ('A' for Active; 'I' for Inactive)
REMARK    1  A    between atoms: C_4  and  C_6
REMARK    2  A    between atoms: C_8  and  C_9
REMARK    3  A    between atoms: C_9  and  C_10
REMARK    4  A    between atoms: C_10  and  C_12
REMARK    5  A    between atoms: C_10  and  C_13
REMARK    6  A    between atoms: C_13  and  O_15
REMARK    7  A    between atoms: C_13  and  C_16
REMARK    8  A    between atoms: C_25  and  C_26
REMARK    9  A    between atoms: C_27  and  C_28
REMARK   10  A    between atoms: C_28  and  C_30
REMARK   11  A    between atoms: C_28  and  C_31
REMARK   12  A    between atoms: C_31  and  C_32
REMARK                            x       y       z     vdW  Elec       q    Type
REMARK                         _______ _______ _______ _____ _____    ______ ____
ROOT
ATOM      1 CL   LIG A   1     -10.022   1.828 132.150  0.00  0.00    -0.079 Cl
ATOM      2  C   LIG A   1      -8.478   2.375 131.586  0.00  0.00    +0.096 C 
ATOM      3  C   LIG A   1      -8.010   3.694 132.151  0.00  0.00    +0.222 C 
ATOM      4  C   LIG A   1      -6.551   4.113 131.879  0.00  0.00    +0.200 C 
ATOM      5  O   LIG A   1      -6.391   5.520 131.792  0.00  0.00    -0.442 OA
ATOM      6  C   LIG A   1      -5.652   3.616 133.015  0.00  0.00    +0.070 C 
ATOM      7  C   LIG A   1      -6.121   3.635 130.543  0.00  0.00    +0.031 C 
ATOM      8  C   LIG A   1      -5.675   4.630 129.770  0.00  0.00    +0.110 C 
ATOM      9  C   LIG A   1      -5.879   5.845 130.574  0.00  0.00    +0.344 C 
ATOM     10  O   LIG A   1      -5.670   6.989 130.219  0.00  0.00    -0.245 OA
ATOM     11  O   LIG A   1      -8.757   4.386 132.845  0.00  0.00    -0.286 OA
ATOM     12  C   LIG A   1      -7.710   1.680 130.716  0.00  0.00    +0.011 C 
ATOM     13  C   LIG A   1      -6.424   2.253 130.264  0.00  0.00    +0.027 C 
ATOM     14  C   LIG A   1      -5.575   1.412 129.652  0.00  0.00    +0.204 C 
ATOM     15  O   LIG A   1      -5.880   0.105 129.327  0.00  0.00    -0.463 OA
ATOM     16  C   LIG A   1      -7.200  -0.323 129.468  0.00  0.00    +0.128 C 
ATOM     17  C   LIG A   1      -8.114   0.399 130.140  0.00  0.00    +0.056 C 
ENDROOT
BRANCH   8  18
ATOM     18  C   LIG A   1      -5.164   4.576 128.372  0.00  0.00    +0.176 C 
ATOM     19  O   LIG A   1      -5.961   4.481 127.434  0.00  0.00    -0.291 OA
BRANCH  18  20
ATOM     20  C   LIG A   1      -3.652   4.450 128.139  0.00  0.00    +0.085 C 
ATOM     21  C   LIG A   1      -3.443   3.477 126.978  0.00  0.00    +0.018 C 
BRANCH  20  22
ATOM     22  C   LIG A   1      -3.011   5.826 127.880  0.00  0.00    +0.122 C 
ATOM     23  C   LIG A   1      -2.169   6.311 129.060  0.00  0.00    +0.038 C 
BRANCH  22  24
ATOM     24  O   LIG A   1      -4.054   6.787 127.694  0.00  0.00    -0.391 OA
ATOM     25  H   LIG A   1      -3.989   7.108 126.778  0.00  0.00    +0.210 HD
ENDBRANCH  22  24
ENDBRANCH  20  22
ENDBRANCH  18  20
ENDBRANCH   8  18
BRANCH  16  26
ATOM     26  C   LIG A   1      -7.516  -1.571 128.800  0.00  0.00    +0.042 C 
ATOM     27  C   LIG A   1      -7.938  -1.652 127.525  0.00  0.00    -0.020 C 
BRANCH  27  28
ATOM     28  C   LIG A   1      -8.343  -2.930 126.838  0.00  0.00    +0.008 C 
ATOM     29  C   LIG A   1      -8.794  -3.952 127.885  0.00  0.00    +0.012 C 
BRANCH  28  30
ATOM     30  C   LIG A   1      -9.420  -2.693 125.762  0.00  0.00    +0.004 C 
ATOM     31  C   LIG A   1      -9.096  -3.243 124.377  0.00  0.00    +0.004 C 
ENDBRANCH  28  30
ENDBRANCH  27  28
ENDBRANCH  16  26
TORSDOF 7
ENDMDL
MODEL 6
REMARK VINA RESULT:      -7.4      2.665      5.432
REMARK  Name = NuBBE_520
REMARK  12 active torsions:
REMARK  status: ('A' for Active; 'I' for Inactive)
REMARK    1  A    between atoms: C_4  and  C_6
REMARK    2  A    between atoms: C_8  and  C_9
REMARK    3  A    between atoms: C_9  and  C_10
REMARK    4  A    between atoms: C_10  and  C_12
REMARK    5  A    between atoms: C_10  and  C_13
REMARK    6  A    between atoms: C_13  and  O_15
REMARK    7  A    between atoms: C_13  and  C_16
REMARK    8  A    between atoms: C_25  and  C_26
REMARK    9  A    between atoms: C_27  and  C_28
REMARK   10  A    between atoms: C_28  and  C_30
REMARK   11  A    between atoms: C_28  and  C_31
REMARK   12  A    between atoms: C_31  and  C_32
REMARK                            x       y       z     vdW  Elec       q    Type
REMARK                         _______ _______ _______ _____ _____    ______ ____
ROOT
ATOM      1 CL   LIG A   1      -8.608   2.898 123.427  0.00  0.00    -0.079 Cl
ATOM      2  C   LIG A   1      -7.826   1.501 124.089  0.00  0.00    +0.096 C 
ATOM      3  C   LIG A   1      -8.392   0.172 123.653  0.00  0.00    +0.222 C 
ATOM      4  C   LIG A   1      -7.595  -1.098 124.011  0.00  0.00    +0.200 C 
ATOM      5  O   LIG A   1      -8.427  -2.229 124.219  0.00  0.00    -0.442 OA
ATOM      6  C   LIG A   1      -6.629  -1.440 122.871  0.00  0.00    +0.070 C 
ATOM      7  C   LIG A   1      -6.916  -0.926 125.318  0.00  0.00    +0.031 C 
ATOM      8  C   LIG A   1      -7.239  -1.890 126.186  0.00  0.00    +0.110 C 
ATOM      9  C   LIG A   1      -8.235  -2.709 125.478  0.00  0.00    +0.344 C 
ATOM     10  O   LIG A   1      -8.845  -3.657 125.933  0.00  0.00    -0.245 OA
ATOM     11  O   LIG A   1      -9.430   0.111 122.991  0.00  0.00    -0.286 OA
ATOM     12  C   LIG A   1      -6.766   1.564 124.927  0.00  0.00    +0.011 C 
ATOM     13  C   LIG A   1      -6.195   0.313 125.471  0.00  0.00    +0.027 C 
ATOM     14  C   LIG A   1      -4.983   0.406 126.042  0.00  0.00    +0.204 C 
ATOM     15  O   LIG A   1      -4.313   1.595 126.247  0.00  0.00    -0.463 OA
ATOM     16  C   LIG A   1      -4.999   2.790 126.024  0.00  0.00    +0.128 C 
ATOM     17  C   LIG A   1      -6.179   2.824 125.380  0.00  0.00    +0.056 C 
ENDROOT
BRANCH   8  18
ATOM     18  C   LIG A   1      -6.786  -2.077 127.593  0.00  0.00    +0.176 C 
ATOM     19  O   LIG A   1      -5.656  -2.521 127.816  0.00  0.00    -0.291 OA
BRANCH  18  20
ATOM     20  C   LIG A   1      -7.801  -1.888 128.729  0.00  0.00    +0.085 C 
ATOM     21  C   LIG A   1      -7.952  -3.234 129.440  0.00  0.00    +0.018 C 
BRANCH  20  22
ATOM     22  C   LIG A   1      -7.367  -0.761 129.684  0.00  0.00    +0.122 C 
ATOM     23  C   LIG A   1      -7.280   0.596 128.986  0.00  0.00    +0.038 C 
BRANCH  22  24
ATOM     24  O   LIG A   1      -6.057  -1.057 130.174  0.00  0.00    -0.391 OA
ATOM     25  H   LIG A   1      -5.424  -0.570 129.617  0.00  0.00    +0.210 HD
ENDBRANCH  22  24
ENDBRANCH  20  22
ENDBRANCH  18  20
ENDBRANCH   8  18
BRANCH  16  26
ATOM     26  C   LIG A   1      -4.366   3.973 126.574  0.00  0.00    +0.042 C 
ATOM     27  C   LIG A   1      -3.552   3.957 127.646  0.00  0.00    -0.020 C 
BRANCH  27  28
ATOM     28  C   LIG A   1      -2.947   5.183 128.278  0.00  0.00    +0.008 C 
ATOM     29  C   LIG A   1      -3.717   6.426 127.823  0.00  0.00    +0.012 C 
BRANCH  28  30
ATOM     30  C   LIG A   1      -2.886   5.072 129.814  0.00  0.00    +0.004 C 
ATOM     31  C   LIG A   1      -3.584   3.855 130.411  0.00  0.00    +0.004 C 
ENDBRANCH  28  30
ENDBRANCH  27  28
ENDBRANCH  16  26
TORSDOF 7
ENDMDL
MODEL 7
REMARK VINA RESULT:      -7.2      6.911     10.869
REMARK  Name = NuBBE_520
REMARK  12 active torsions:
REMARK  status: ('A' for Active; 'I' for Inactive)
REMARK    1  A    between atoms: C_4  and  C_6
REMARK    2  A    between atoms: C_8  and  C_9
REMARK    3  A    between atoms: C_9  and  C_10
REMARK    4  A    between atoms: C_10  and  C_12
REMARK    5  A    between atoms: C_10  and  C_13
REMARK    6  A    between atoms: C_13  and  O_15
REMARK    7  A    between atoms: C_13  and  C_16
REMARK    8  A    between atoms: C_25  and  C_26
REMARK    9  A    between atoms: C_27  and  C_28
REMARK   10  A    between atoms: C_28  and  C_30
REMARK   11  A    between atoms: C_28  and  C_31
REMARK   12  A    between atoms: C_31  and  C_32
REMARK                            x       y       z     vdW  Elec       q    Type
REMARK                         _______ _______ _______ _____ _____    ______ ____
ROOT
ATOM      1 CL   LIG A   1      -3.840   3.603 132.450  0.00  0.00    -0.079 Cl
ATOM      2  C   LIG A   1      -5.474   3.829 131.920  0.00  0.00    +0.096 C 
ATOM      3  C   LIG A   1      -5.785   3.316 130.535  0.00  0.00    +0.222 C 
ATOM      4  C   LIG A   1      -7.264   3.267 130.103  0.00  0.00    +0.200 C 
ATOM      5  O   LIG A   1      -7.438   3.467 128.709  0.00  0.00    -0.442 OA
ATOM      6  C   LIG A   1      -7.857   1.897 130.450  0.00  0.00    +0.070 C 
ATOM      7  C   LIG A   1      -8.012   4.395 130.708  0.00  0.00    +0.031 C 
ATOM      8  C   LIG A   1      -8.633   5.141 129.788  0.00  0.00    +0.110 C 
ATOM      9  C   LIG A   1      -8.233   4.551 128.501  0.00  0.00    +0.344 C 
ATOM     10  O   LIG A   1      -8.520   4.969 127.396  0.00  0.00    -0.245 OA
ATOM     11  O   LIG A   1      -4.888   2.908 129.795  0.00  0.00    -0.286 OA
ATOM     12  C   LIG A   1      -6.435   4.402 132.681  0.00  0.00    +0.011 C 
ATOM     13  C   LIG A   1      -7.791   4.585 132.121  0.00  0.00    +0.027 C 
ATOM     14  C   LIG A   1      -8.768   4.874 132.997  0.00  0.00    +0.204 C 
ATOM     15  O   LIG A   1      -8.556   5.116 134.339  0.00  0.00    -0.463 OA
ATOM     16  C   LIG A   1      -7.243   5.257 134.789  0.00  0.00    +0.128 C 
ATOM     17  C   LIG A   1      -6.189   4.913 134.027  0.00  0.00    +0.056 C 
ENDROOT
BRANCH   8  18
ATOM     18  C   LIG A   1      -9.473   6.357 129.976  0.00  0.00    +0.176 C 
ATOM     19  O   LIG A   1      -8.938   7.427 130.280  0.00  0.00    -0.291 OA
BRANCH  18  20
ATOM     20  C   LIG A   1     -11.001   6.209 129.971  0.00  0.00    +0.085 C 
ATOM     21  C   LIG A   1     -11.512   6.657 131.341  0.00  0.00    +0.018 C 
BRANCH  20  22
ATOM     22  C   LIG A   1     -11.635   7.006 128.815  0.00  0.00    +0.122 C 
ATOM     23  C   LIG A   1     -13.130   6.729 128.666  0.00  0.00    +0.038 C 
BRANCH  22  24
ATOM     24  O   LIG A   1     -11.016   6.601 127.591  0.00  0.00    -0.391 OA
ATOM     25  H   LIG A   1     -11.355   5.713 127.377  0.00  0.00    +0.210 HD
ENDBRANCH  22  24
ENDBRANCH  20  22
ENDBRANCH  18  20
ENDBRANCH   8  18
BRANCH  16  26
ATOM     26  C   LIG A   1      -7.105   5.839 136.110  0.00  0.00    +0.042 C 
ATOM     27  C   LIG A   1      -8.111   6.443 136.770  0.00  0.00    -0.020 C 
BRANCH  27  28
ATOM     28  C   LIG A   1      -7.969   7.120 138.108  0.00  0.00    +0.008 C 
ATOM     29  C   LIG A   1      -6.512   7.040 138.570  0.00  0.00    +0.012 C 
BRANCH  28  30
ATOM     30  C   LIG A   1      -8.488   8.570 138.081  0.00  0.00    +0.004 C 
ATOM     31  C   LIG A   1      -9.796   8.785 137.327  0.00  0.00    +0.004 C 
ENDBRANCH  28  30
ENDBRANCH  27  28
ENDBRANCH  16  26
TORSDOF 7
ENDMDL
MODEL 8
REMARK VINA RESULT:      -7.2      3.117      7.715
REMARK  Name = NuBBE_520
REMARK  12 active torsions:
REMARK  status: ('A' for Active; 'I' for Inactive)
REMARK    1  A    between atoms: C_4  and  C_6
REMARK    2  A    between atoms: C_8  and  C_9
REMARK    3  A    between atoms: C_9  and  C_10
REMARK    4  A    between atoms: C_10  and  C_12
REMARK    5  A    between atoms: C_10  and  C_13
REMARK    6  A    between atoms: C_13  and  O_15
REMARK    7  A    between atoms: C_13  and  C_16
REMARK    8  A    between atoms: C_25  and  C_26
REMARK    9  A    between atoms: C_27  and  C_28
REMARK   10  A    between atoms: C_28  and  C_30
REMARK   11  A    between atoms: C_28  and  C_31
REMARK   12  A    between atoms: C_31  and  C_32
REMARK                            x       y       z     vdW  Elec       q    Type
REMARK                         _______ _______ _______ _____ _____    ______ ____
ROOT
ATOM      1 CL   LIG A   1      -3.901   2.560 131.183  0.00  0.00    -0.079 Cl
ATOM      2  C   LIG A   1      -4.299   2.486 129.498  0.00  0.00    +0.096 C 
ATOM      3  C   LIG A   1      -4.065   3.757 128.719  0.00  0.00    +0.222 C 
ATOM      4  C   LIG A   1      -4.168   3.685 127.182  0.00  0.00    +0.200 C 
ATOM      5  O   LIG A   1      -4.629   4.897 126.605  0.00  0.00    -0.442 OA
ATOM      6  C   LIG A   1      -2.789   3.385 126.586  0.00  0.00    +0.070 C 
ATOM      7  C   LIG A   1      -5.202   2.699 126.784  0.00  0.00    +0.031 C 
ATOM      8  C   LIG A   1      -6.133   3.238 125.989  0.00  0.00    +0.110 C 
ATOM      9  C   LIG A   1      -5.770   4.661 125.902  0.00  0.00    +0.344 C 
ATOM     10  O   LIG A   1      -6.397   5.531 125.331  0.00  0.00    -0.245 OA
ATOM     11  O   LIG A   1      -3.756   4.803 129.292  0.00  0.00    -0.286 OA
ATOM     12  C   LIG A   1      -4.770   1.374 128.889  0.00  0.00    +0.011 C 
ATOM     13  C   LIG A   1      -5.118   1.425 127.453  0.00  0.00    +0.027 C 
ATOM     14  C   LIG A   1      -5.289   0.245 126.835  0.00  0.00    +0.204 C 
ATOM     15  O   LIG A   1      -5.271  -0.976 127.479  0.00  0.00    -0.463 OA
ATOM     16  C   LIG A   1      -5.262  -0.990 128.874  0.00  0.00    +0.128 C 
ATOM     17  C   LIG A   1      -5.013   0.117 129.595  0.00  0.00    +0.056 C 
ENDROOT
BRANCH   8  18
ATOM     18  C   LIG A   1      -7.333   2.596 125.382  0.00  0.00    +0.176 C 
ATOM     19  O   LIG A   1      -8.385   2.541 126.025  0.00  0.00    -0.291 OA
BRANCH  18  20
ATOM     20  C   LIG A   1      -7.182   1.855 124.047  0.00  0.00    +0.085 C 
ATOM     21  C   LIG A   1      -8.118   0.646 124.082  0.00  0.00    +0.018 C 
BRANCH  20  22
ATOM     22  C   LIG A   1      -7.465   2.787 122.855  0.00  0.00    +0.122 C 
ATOM     23  C   LIG A   1      -6.190   3.390 122.267  0.00  0.00    +0.038 C 
BRANCH  22  24
ATOM     24  O   LIG A   1      -8.266   3.881 123.312  0.00  0.00    -0.391 OA
ATOM     25  H   LIG A   1      -8.361   4.499 122.567  0.00  0.00    +0.210 HD
ENDBRANCH  22  24
ENDBRANCH  20  22
ENDBRANCH  18  20
ENDBRANCH   8  18
BRANCH  16  26
ATOM     26  C   LIG A   1      -5.585  -2.268 129.477  0.00  0.00    +0.042 C 
ATOM     27  C   LIG A   1      -5.949  -2.418 130.765  0.00  0.00    -0.020 C 
BRANCH  27  28
ATOM     28  C   LIG A   1      -6.214  -3.744 131.429  0.00  0.00    +0.008 C 
ATOM     29  C   LIG A   1      -5.542  -4.861 130.627  0.00  0.00    +0.012 C 
BRANCH  28  30
ATOM     30  C   LIG A   1      -5.774  -3.749 132.906  0.00  0.00    +0.004 C 
ATOM     31  C   LIG A   1      -5.840  -5.103 133.604  0.00  0.00    +0.004 C 
ENDBRANCH  28  30
ENDBRANCH  27  28
ENDBRANCH  16  26
TORSDOF 7
ENDMDL
MODEL 9
REMARK VINA RESULT:      -7.2      7.693     10.412
REMARK  Name = NuBBE_520
REMARK  12 active torsions:
REMARK  status: ('A' for Active; 'I' for Inactive)
REMARK    1  A    between atoms: C_4  and  C_6
REMARK    2  A    between atoms: C_8  and  C_9
REMARK    3  A    between atoms: C_9  and  C_10
REMARK    4  A    between atoms: C_10  and  C_12
REMARK    5  A    between atoms: C_10  and  C_13
REMARK    6  A    between atoms: C_13  and  O_15
REMARK    7  A    between atoms: C_13  and  C_16
REMARK    8  A    between atoms: C_25  and  C_26
REMARK    9  A    between atoms: C_27  and  C_28
REMARK   10  A    between atoms: C_28  and  C_30
REMARK   11  A    between atoms: C_28  and  C_31
REMARK   12  A    between atoms: C_31  and  C_32
REMARK                            x       y       z     vdW  Elec       q    Type
REMARK                         _______ _______ _______ _____ _____    ______ ____
ROOT
ATOM      1 CL   LIG A   1      -2.782   7.184 128.175  0.00  0.00    -0.079 Cl
ATOM      2  C   LIG A   1      -3.723   6.296 129.328  0.00  0.00    +0.096 C 
ATOM      3  C   LIG A   1      -4.496   5.125 128.772  0.00  0.00    +0.222 C 
ATOM      4  C   LIG A   1      -5.152   4.157 129.777  0.00  0.00    +0.200 C 
ATOM      5  O   LIG A   1      -6.346   3.574 129.280  0.00  0.00    -0.442 OA
ATOM      6  C   LIG A   1      -4.182   3.015 130.102  0.00  0.00    +0.070 C 
ATOM      7  C   LIG A   1      -5.605   4.896 130.980  0.00  0.00    +0.031 C 
ATOM      8  C   LIG A   1      -6.906   4.712 131.225  0.00  0.00    +0.110 C 
ATOM      9  C   LIG A   1      -7.381   3.881 130.108  0.00  0.00    +0.344 C 
ATOM     10  O   LIG A   1      -8.529   3.536 129.902  0.00  0.00    -0.245 OA
ATOM     11  O   LIG A   1      -4.558   4.926 127.558  0.00  0.00    -0.286 OA
ATOM     12  C   LIG A   1      -3.765   6.593 130.647  0.00  0.00    +0.011 C 
ATOM     13  C   LIG A   1      -4.631   5.798 131.543  0.00  0.00    +0.027 C 
ATOM     14  C   LIG A   1      -4.413   5.932 132.862  0.00  0.00    +0.204 C 
ATOM     15  O   LIG A   1      -3.526   6.835 133.412  0.00  0.00    -0.463 OA
ATOM     16  C   LIG A   1      -2.955   7.797 132.577  0.00  0.00    +0.128 C 
ATOM     17  C   LIG A   1      -3.035   7.714 131.238  0.00  0.00    +0.056 C 
ENDROOT
BRANCH   8  18
ATOM     18  C   LIG A   1      -7.744   5.278 132.320  0.00  0.00    +0.176 C 
ATOM     19  O   LIG A   1      -8.229   6.406 132.196  0.00  0.00    -0.291 OA
BRANCH  18  20
ATOM     20  C   LIG A   1      -7.831   4.522 133.652  0.00  0.00    +0.085 C 
ATOM     21  C   LIG A   1      -7.538   5.523 134.771  0.00  0.00    +0.018 C 
BRANCH  20  22
ATOM     22  C   LIG A   1      -9.200   3.836 133.817  0.00  0.00    +0.122 C 
ATOM     23  C   LIG A   1      -9.305   2.540 133.014  0.00  0.00    +0.038 C 
BRANCH  22  24
ATOM     24  O   LIG A   1     -10.212   4.714 133.318  0.00  0.00    -0.391 OA
ATOM     25  H   LIG A   1     -10.225   5.496 133.897  0.00  0.00    +0.210 HD
ENDBRANCH  22  24
ENDBRANCH  20  22
ENDBRANCH  18  20
ENDBRANCH   8  18
BRANCH  16  26
ATOM     26  C   LIG A   1      -2.317   8.903 133.262  0.00  0.00    +0.042 C 
ATOM     27  C   LIG A   1      -2.067  10.096 132.689  0.00  0.00    -0.020 C 
BRANCH  27  28
ATOM     28  C   LIG A   1      -1.337  11.230 133.359  0.00  0.00    +0.008 C 
ATOM     29  C   LIG A   1       0.153  10.890 133.461  0.00  0.00    +0.012 C 
BRANCH  28  30
ATOM     30  C   LIG A   1      -1.574  12.574 132.643  0.00  0.00    +0.004 C 
ATOM     31  C   LIG A   1      -0.591  12.903 131.524  0.00  0.00    +0.004 C 
ENDBRANCH  28  30
ENDBRANCH  27  28
ENDBRANCH  16  26
TORSDOF 7
ENDMDL
