MODEL 1
REMARK VINA RESULT:      -7.0      0.000      0.000
REMARK  Name = NuBBE_1526
REMARK  16 active torsions:
REMARK  status: ('A' for Active; 'I' for Inactive)
REMARK    1  A    between atoms: C_1  and  C_2
REMARK    2  A    between atoms: C_4  and  C_6
REMARK    3  A    between atoms: C_8  and  O_9
REMARK    4  A    between atoms: O_9  and  C_10
REMARK    5  A    between atoms: C_11  and  O_12
REMARK    6  A    between atoms: O_12  and  C_13
REMARK    7  A    between atoms: C_14  and  O_15
REMARK    8  A    between atoms: O_15  and  C_16
REMARK    9  A    between atoms: C_19  and  C_21
REMARK   10  A    between atoms: C_23  and  O_24
REMARK   11  A    between atoms: O_24  and  C_25
REMARK   12  A    between atoms: C_26  and  O_27
REMARK   13  A    between atoms: O_27  and  C_28
REMARK   14  A    between atoms: C_29  and  O_30
REMARK   15  A    between atoms: O_30  and  C_31
REMARK   16  A    between atoms: C_33  and  C_35
REMARK                            x       y       z     vdW  Elec       q    Type
REMARK                         _______ _______ _______ _____ _____    ______ ____
ROOT
ATOM      1  C   LIG A   1      -9.501   2.607 133.023  0.00  0.00    +0.011 C 
ATOM      2  C   LIG A   1      -8.641   3.871 132.992  0.00  0.00    +0.025 C 
ATOM      3  C   LIG A   1      -9.465   5.155 133.088  0.00  0.00    +0.152 C 
ATOM      4  O   LIG A   1      -8.657   6.139 133.740  0.00  0.00    -0.364 OA
ATOM      5  C   LIG A   1      -7.528   5.506 134.349  0.00  0.00    +0.152 C 
ATOM      6  C   LIG A   1      -7.713   3.988 134.198  0.00  0.00    +0.025 C 
ATOM      7  C   LIG A   1      -6.399   3.241 133.977  0.00  0.00    +0.011 C 
ENDROOT
BRANCH   3   8
ATOM      8  C   LIG A   1      -9.927   5.683 131.749  0.00  0.00    -0.011 A 
ATOM      9  C   LIG A   1      -9.138   5.487 130.631  0.00  0.00    +0.056 A 
ATOM     10  C   LIG A   1      -9.562   5.801 129.329  0.00  0.00    +0.166 A 
ATOM     11  C   LIG A   1     -10.788   6.493 129.176  0.00  0.00    +0.203 A 
ATOM     12  C   LIG A   1     -11.570   6.755 130.317  0.00  0.00    +0.166 A 
ATOM     13  C   LIG A   1     -11.162   6.325 131.585  0.00  0.00    +0.056 A 
BRANCH  10  14
ATOM     14  O   LIG A   1      -8.870   5.386 128.216  0.00  0.00    -0.491 OA
ATOM     15  C   LIG A   1      -7.987   4.273 128.371  0.00  0.00    +0.277 C 
ENDBRANCH  10  14
BRANCH  11  16
ATOM     16  O   LIG A   1     -11.359   6.885 127.987  0.00  0.00    -0.488 OA
ATOM     17  C   LIG A   1     -10.876   8.038 127.315  0.00  0.00    +0.277 C 
ENDBRANCH  11  16
BRANCH  12  18
ATOM     18  O   LIG A   1     -12.777   7.404 130.125  0.00  0.00    -0.491 OA
ATOM     19  C   LIG A   1     -12.793   8.789 130.455  0.00  0.00    +0.277 C 
ENDBRANCH  12  18
ENDBRANCH   3   8
BRANCH   5  20
ATOM     20  C   LIG A   1      -7.386   5.981 135.782  0.00  0.00    -0.011 A 
ATOM     21  C   LIG A   1      -8.331   6.797 136.420  0.00  0.00    +0.056 A 
ATOM     22  C   LIG A   1      -8.162   7.209 137.756  0.00  0.00    +0.166 A 
ATOM     23  C   LIG A   1      -7.059   6.753 138.505  0.00  0.00    +0.203 A 
ATOM     24  C   LIG A   1      -6.134   5.890 137.882  0.00  0.00    +0.166 A 
ATOM     25  C   LIG A   1      -6.279   5.568 136.523  0.00  0.00    +0.056 A 
BRANCH  22  26
ATOM     26  O   LIG A   1      -9.201   7.984 138.220  0.00  0.00    -0.491 OA
ATOM     27  C   LIG A   1      -9.464   9.194 137.517  0.00  0.00    +0.277 C 
ENDBRANCH  22  26
BRANCH  23  28
ATOM     28  O   LIG A   1      -7.077   6.991 139.855  0.00  0.00    -0.488 OA
ATOM     29  C   LIG A   1      -6.540   8.208 140.359  0.00  0.00    +0.277 C 
ENDBRANCH  23  28
BRANCH  24  30
ATOM     30  O   LIG A   1      -5.131   5.341 138.643  0.00  0.00    -0.491 OA
ATOM     31  C   LIG A   1      -5.329   3.990 139.050  0.00  0.00    +0.277 C 
ENDBRANCH  24  30
ENDBRANCH   5  20
TORSDOF 8
ENDMDL
MODEL 2
REMARK VINA RESULT:      -6.8      0.623      2.342
REMARK  Name = NuBBE_1526
REMARK  16 active torsions:
REMARK  status: ('A' for Active; 'I' for Inactive)
REMARK    1  A    between atoms: C_1  and  C_2
REMARK    2  A    between atoms: C_4  and  C_6
REMARK    3  A    between atoms: C_8  and  O_9
REMARK    4  A    between atoms: O_9  and  C_10
REMARK    5  A    between atoms: C_11  and  O_12
REMARK    6  A    between atoms: O_12  and  C_13
REMARK    7  A    between atoms: C_14  and  O_15
REMARK    8  A    between atoms: O_15  and  C_16
REMARK    9  A    between atoms: C_19  and  C_21
REMARK   10  A    between atoms: C_23  and  O_24
REMARK   11  A    between atoms: O_24  and  C_25
REMARK   12  A    between atoms: C_26  and  O_27
REMARK   13  A    between atoms: O_27  and  C_28
REMARK   14  A    between atoms: C_29  and  O_30
REMARK   15  A    between atoms: O_30  and  C_31
REMARK   16  A    between atoms: C_33  and  C_35
REMARK                            x       y       z     vdW  Elec       q    Type
REMARK                         _______ _______ _______ _____ _____    ______ ____
ROOT
ATOM      1  C   LIG A   1      -9.517   2.477 132.995  0.00  0.00    +0.011 C 
ATOM      2  C   LIG A   1      -8.591   3.690 132.909  0.00  0.00    +0.025 C 
ATOM      3  C   LIG A   1      -9.337   5.020 133.026  0.00  0.00    +0.152 C 
ATOM      4  O   LIG A   1      -8.445   5.963 133.629  0.00  0.00    -0.364 OA
ATOM      5  C   LIG A   1      -7.327   5.273 134.193  0.00  0.00    +0.152 C 
ATOM      6  C   LIG A   1      -7.603   3.766 134.070  0.00  0.00    +0.025 C 
ATOM      7  C   LIG A   1      -6.344   2.944 133.798  0.00  0.00    +0.011 C 
ENDROOT
BRANCH   3   8
ATOM      8  C   LIG A   1      -9.829   5.559 131.704  0.00  0.00    -0.011 A 
ATOM      9  C   LIG A   1      -9.057   5.393 130.569  0.00  0.00    +0.056 A 
ATOM     10  C   LIG A   1      -9.508   5.718 129.279  0.00  0.00    +0.166 A 
ATOM     11  C   LIG A   1     -10.747   6.392 129.157  0.00  0.00    +0.203 A 
ATOM     12  C   LIG A   1     -11.515   6.625 130.315  0.00  0.00    +0.166 A 
ATOM     13  C   LIG A   1     -11.077   6.183 131.570  0.00  0.00    +0.056 A 
BRANCH  10  14
ATOM     14  O   LIG A   1      -8.829   5.331 128.148  0.00  0.00    -0.491 OA
ATOM     15  C   LIG A   1      -7.922   4.234 128.273  0.00  0.00    +0.277 C 
ENDBRANCH  10  14
BRANCH  11  16
ATOM     16  O   LIG A   1     -11.345   6.793 127.984  0.00  0.00    -0.488 OA
ATOM     17  C   LIG A   1     -10.875   7.948 127.307  0.00  0.00    +0.277 C 
ENDBRANCH  11  16
BRANCH  12  18
ATOM     18  O   LIG A   1     -12.735   7.257 130.153  0.00  0.00    -0.491 OA
ATOM     19  C   LIG A   1     -12.759   8.645 130.470  0.00  0.00    +0.277 C 
ENDBRANCH  12  18
ENDBRANCH   3   8
BRANCH   5  20
ATOM     20  C   LIG A   1      -7.092   5.754 135.611  0.00  0.00    -0.011 A 
ATOM     21  C   LIG A   1      -5.860   5.635 136.271  0.00  0.00    +0.056 A 
ATOM     22  C   LIG A   1      -5.685   6.104 137.587  0.00  0.00    +0.166 A 
ATOM     23  C   LIG A   1      -6.736   6.764 138.252  0.00  0.00    +0.203 A 
ATOM     24  C   LIG A   1      -7.960   6.931 137.572  0.00  0.00    +0.166 A 
ATOM     25  C   LIG A   1      -8.137   6.376 136.295  0.00  0.00    +0.056 A 
BRANCH  22  26
ATOM     26  O   LIG A   1      -4.403   5.924 138.060  0.00  0.00    -0.491 OA
ATOM     27  C   LIG A   1      -3.699   4.781 137.587  0.00  0.00    +0.277 C 
ENDBRANCH  22  26
BRANCH  23  28
ATOM     28  O   LIG A   1      -6.433   7.402 139.426  0.00  0.00    -0.488 OA
ATOM     29  C   LIG A   1      -6.584   6.710 140.660  0.00  0.00    +0.277 C 
ENDBRANCH  23  28
BRANCH  24  30
ATOM     30  O   LIG A   1      -8.944   7.685 138.164  0.00  0.00    -0.491 OA
ATOM     31  C   LIG A   1      -9.279   8.902 137.501  0.00  0.00    +0.277 C 
ENDBRANCH  24  30
ENDBRANCH   5  20
TORSDOF 8
ENDMDL
MODEL 3
REMARK VINA RESULT:      -6.8      4.710      7.837
REMARK  Name = NuBBE_1526
REMARK  16 active torsions:
REMARK  status: ('A' for Active; 'I' for Inactive)
REMARK    1  A    between atoms: C_1  and  C_2
REMARK    2  A    between atoms: C_4  and  C_6
REMARK    3  A    between atoms: C_8  and  O_9
REMARK    4  A    between atoms: O_9  and  C_10
REMARK    5  A    between atoms: C_11  and  O_12
REMARK    6  A    between atoms: O_12  and  C_13
REMARK    7  A    between atoms: C_14  and  O_15
REMARK    8  A    between atoms: O_15  and  C_16
REMARK    9  A    between atoms: C_19  and  C_21
REMARK   10  A    between atoms: C_23  and  O_24
REMARK   11  A    between atoms: O_24  and  C_25
REMARK   12  A    between atoms: C_26  and  O_27
REMARK   13  A    between atoms: O_27  and  C_28
REMARK   14  A    between atoms: C_29  and  O_30
REMARK   15  A    between atoms: O_30  and  C_31
REMARK   16  A    between atoms: C_33  and  C_35
REMARK                            x       y       z     vdW  Elec       q    Type
REMARK                         _______ _______ _______ _____ _____    ______ ____
ROOT
ATOM      1  C   LIG A   1      -1.933   3.238 126.944  0.00  0.00    +0.011 C 
ATOM      2  C   LIG A   1      -3.124   4.178 127.129  0.00  0.00    +0.025 C 
ATOM      3  C   LIG A   1      -4.456   3.437 127.244  0.00  0.00    +0.152 C 
ATOM      4  O   LIG A   1      -5.317   4.223 128.074  0.00  0.00    -0.364 OA
ATOM      5  C   LIG A   1      -4.550   5.223 128.749  0.00  0.00    +0.152 C 
ATOM      6  C   LIG A   1      -3.069   4.956 128.441  0.00  0.00    +0.025 C 
ATOM      7  C   LIG A   1      -2.243   6.235 128.307  0.00  0.00    +0.011 C 
ENDROOT
BRANCH   3   8
ATOM      8  C   LIG A   1      -5.127   3.180 125.915  0.00  0.00    -0.011 A 
ATOM      9  C   LIG A   1      -5.869   2.027 125.737  0.00  0.00    +0.056 A 
ATOM     10  C   LIG A   1      -6.652   1.788 124.595  0.00  0.00    +0.166 A 
ATOM     11  C   LIG A   1      -6.550   2.696 123.514  0.00  0.00    +0.203 A 
ATOM     12  C   LIG A   1      -5.744   3.842 123.660  0.00  0.00    +0.166 A 
ATOM     13  C   LIG A   1      -5.068   4.100 124.859  0.00  0.00    +0.056 A 
BRANCH  10  14
ATOM     14  O   LIG A   1      -7.562   0.758 124.536  0.00  0.00    -0.491 OA
ATOM     15  C   LIG A   1      -7.106  -0.488 124.007  0.00  0.00    +0.277 C 
ENDBRANCH  10  14
BRANCH  11  16
ATOM     16  O   LIG A   1      -7.231   2.623 122.321  0.00  0.00    -0.488 OA
ATOM     17  C   LIG A   1      -8.601   2.988 122.263  0.00  0.00    +0.277 C 
ENDBRANCH  11  16
BRANCH  12  18
ATOM     18  O   LIG A   1      -5.694   4.724 122.595  0.00  0.00    -0.491 OA
ATOM     19  C   LIG A   1      -4.483   4.721 121.847  0.00  0.00    +0.277 C 
ENDBRANCH  12  18
ENDBRANCH   3   8
BRANCH   5  20
ATOM     20  C   LIG A   1      -4.894   5.219 130.226  0.00  0.00    -0.011 A 
ATOM     21  C   LIG A   1      -3.977   4.873 131.229  0.00  0.00    +0.056 A 
ATOM     22  C   LIG A   1      -4.338   4.892 132.591  0.00  0.00    +0.166 A 
ATOM     23  C   LIG A   1      -5.621   5.324 132.980  0.00  0.00    +0.203 A 
ATOM     24  C   LIG A   1      -6.528   5.723 131.976  0.00  0.00    +0.166 A 
ATOM     25  C   LIG A   1      -6.173   5.609 130.622  0.00  0.00    +0.056 A 
BRANCH  22  26
ATOM     26  O   LIG A   1      -3.302   4.545 133.430  0.00  0.00    -0.491 OA
ATOM     27  C   LIG A   1      -2.028   4.341 132.828  0.00  0.00    +0.277 C 
ENDBRANCH  22  26
BRANCH  23  28
ATOM     28  O   LIG A   1      -5.829   5.546 134.316  0.00  0.00    -0.488 OA
ATOM     29  C   LIG A   1      -6.410   4.522 135.115  0.00  0.00    +0.277 C 
ENDBRANCH  23  28
BRANCH  24  30
ATOM     30  O   LIG A   1      -7.731   6.266 132.356  0.00  0.00    -0.491 OA
ATOM     31  C   LIG A   1      -8.640   6.562 131.298  0.00  0.00    +0.277 C 
ENDBRANCH  24  30
ENDBRANCH   5  20
TORSDOF 8
ENDMDL
MODEL 4
REMARK VINA RESULT:      -6.8      4.588      7.458
REMARK  Name = NuBBE_1526
REMARK  16 active torsions:
REMARK  status: ('A' for Active; 'I' for Inactive)
REMARK    1  A    between atoms: C_1  and  C_2
REMARK    2  A    between atoms: C_4  and  C_6
REMARK    3  A    between atoms: C_8  and  O_9
REMARK    4  A    between atoms: O_9  and  C_10
REMARK    5  A    between atoms: C_11  and  O_12
REMARK    6  A    between atoms: O_12  and  C_13
REMARK    7  A    between atoms: C_14  and  O_15
REMARK    8  A    between atoms: O_15  and  C_16
REMARK    9  A    between atoms: C_19  and  C_21
REMARK   10  A    between atoms: C_23  and  O_24
REMARK   11  A    between atoms: O_24  and  C_25
REMARK   12  A    between atoms: C_26  and  O_27
REMARK   13  A    between atoms: O_27  and  C_28
REMARK   14  A    between atoms: C_29  and  O_30
REMARK   15  A    between atoms: O_30  and  C_31
REMARK   16  A    between atoms: C_33  and  C_35
REMARK                            x       y       z     vdW  Elec       q    Type
REMARK                         _______ _______ _______ _____ _____    ______ ____
ROOT
ATOM      1  C   LIG A   1      -1.935   3.252 126.973  0.00  0.00    +0.011 C 
ATOM      2  C   LIG A   1      -3.123   4.198 127.150  0.00  0.00    +0.025 C 
ATOM      3  C   LIG A   1      -4.454   3.461 127.298  0.00  0.00    +0.152 C 
ATOM      4  O   LIG A   1      -5.304   4.266 128.120  0.00  0.00    -0.364 OA
ATOM      5  C   LIG A   1      -4.529   5.280 128.764  0.00  0.00    +0.152 C 
ATOM      6  C   LIG A   1      -3.051   5.005 128.444  0.00  0.00    +0.025 C 
ATOM      7  C   LIG A   1      -2.226   6.279 128.271  0.00  0.00    +0.011 C 
ENDROOT
BRANCH   3   8
ATOM      8  C   LIG A   1      -5.140   3.175 125.983  0.00  0.00    -0.011 A 
ATOM      9  C   LIG A   1      -5.882   2.018 125.838  0.00  0.00    +0.056 A 
ATOM     10  C   LIG A   1      -6.679   1.753 124.712  0.00  0.00    +0.166 A 
ATOM     11  C   LIG A   1      -6.592   2.638 123.611  0.00  0.00    +0.203 A 
ATOM     12  C   LIG A   1      -5.787   3.789 123.723  0.00  0.00    +0.166 A 
ATOM     13  C   LIG A   1      -5.097   4.072 124.908  0.00  0.00    +0.056 A 
BRANCH  10  14
ATOM     14  O   LIG A   1      -7.587   0.721 124.686  0.00  0.00    -0.491 OA
ATOM     15  C   LIG A   1      -8.716   0.820 125.557  0.00  0.00    +0.277 C 
ENDBRANCH  10  14
BRANCH  11  16
ATOM     16  O   LIG A   1      -7.288   2.539 122.429  0.00  0.00    -0.488 OA
ATOM     17  C   LIG A   1      -8.662   2.893 122.382  0.00  0.00    +0.277 C 
ENDBRANCH  11  16
BRANCH  12  18
ATOM     18  O   LIG A   1      -5.752   4.648 122.639  0.00  0.00    -0.491 OA
ATOM     19  C   LIG A   1      -4.532   4.668 121.906  0.00  0.00    +0.277 C 
ENDBRANCH  12  18
ENDBRANCH   3   8
BRANCH   5  20
ATOM     20  C   LIG A   1      -4.854   5.311 130.245  0.00  0.00    -0.011 A 
ATOM     21  C   LIG A   1      -6.097   5.719 130.751  0.00  0.00    +0.056 A 
ATOM     22  C   LIG A   1      -6.358   5.723 132.135  0.00  0.00    +0.166 A 
ATOM     23  C   LIG A   1      -5.389   5.253 133.043  0.00  0.00    +0.203 A 
ATOM     24  C   LIG A   1      -4.158   4.793 132.532  0.00  0.00    +0.166 A 
ATOM     25  C   LIG A   1      -3.890   4.883 131.157  0.00  0.00    +0.056 A 
BRANCH  22  26
ATOM     26  O   LIG A   1      -7.637   6.132 132.443  0.00  0.00    -0.491 OA
ATOM     27  C   LIG A   1      -8.427   6.633 131.371  0.00  0.00    +0.277 C 
ENDBRANCH  22  26
BRANCH  23  28
ATOM     28  O   LIG A   1      -5.787   5.059 134.340  0.00  0.00    -0.488 OA
ATOM     29  C   LIG A   1      -6.406   3.832 134.708  0.00  0.00    +0.277 C 
ENDBRANCH  23  28
BRANCH  24  30
ATOM     30  O   LIG A   1      -3.261   4.215 133.397  0.00  0.00    -0.491 OA
ATOM     31  C   LIG A   1      -2.889   2.871 133.101  0.00  0.00    +0.277 C 
ENDBRANCH  24  30
ENDBRANCH   5  20
TORSDOF 8
ENDMDL
MODEL 5
REMARK VINA RESULT:      -6.7      4.797      7.902
REMARK  Name = NuBBE_1526
REMARK  16 active torsions:
REMARK  status: ('A' for Active; 'I' for Inactive)
REMARK    1  A    between atoms: C_1  and  C_2
REMARK    2  A    between atoms: C_4  and  C_6
REMARK    3  A    between atoms: C_8  and  O_9
REMARK    4  A    between atoms: O_9  and  C_10
REMARK    5  A    between atoms: C_11  and  O_12
REMARK    6  A    between atoms: O_12  and  C_13
REMARK    7  A    between atoms: C_14  and  O_15
REMARK    8  A    between atoms: O_15  and  C_16
REMARK    9  A    between atoms: C_19  and  C_21
REMARK   10  A    between atoms: C_23  and  O_24
REMARK   11  A    between atoms: O_24  and  C_25
REMARK   12  A    between atoms: C_26  and  O_27
REMARK   13  A    between atoms: O_27  and  C_28
REMARK   14  A    between atoms: C_29  and  O_30
REMARK   15  A    between atoms: O_30  and  C_31
REMARK   16  A    between atoms: C_33  and  C_35
REMARK                            x       y       z     vdW  Elec       q    Type
REMARK                         _______ _______ _______ _____ _____    ______ ____
ROOT
ATOM      1  C   LIG A   1      -1.887   3.268 126.596  0.00  0.00    +0.011 C 
ATOM      2  C   LIG A   1      -3.100   4.079 127.051  0.00  0.00    +0.025 C 
ATOM      3  C   LIG A   1      -4.350   3.221 127.251  0.00  0.00    +0.152 C 
ATOM      4  O   LIG A   1      -5.135   3.835 128.277  0.00  0.00    -0.364 OA
ATOM      5  C   LIG A   1      -4.349   4.813 128.963  0.00  0.00    +0.152 C 
ATOM      6  C   LIG A   1      -2.911   4.707 128.429  0.00  0.00    +0.025 C 
ATOM      7  C   LIG A   1      -2.200   6.056 128.345  0.00  0.00    +0.011 C 
ENDROOT
BRANCH   3   8
ATOM      8  C   LIG A   1      -5.183   3.060 126.001  0.00  0.00    -0.011 A 
ATOM      9  C   LIG A   1      -5.178   4.059 125.045  0.00  0.00    +0.056 A 
ATOM     10  C   LIG A   1      -5.792   3.922 123.789  0.00  0.00    +0.166 A 
ATOM     11  C   LIG A   1      -6.584   2.772 123.556  0.00  0.00    +0.203 A 
ATOM     12  C   LIG A   1      -6.650   1.776 124.550  0.00  0.00    +0.166 A 
ATOM     13  C   LIG A   1      -5.930   1.902 125.744  0.00  0.00    +0.056 A 
BRANCH  10  14
ATOM     14  O   LIG A   1      -5.579   4.820 122.770  0.00  0.00    -0.491 OA
ATOM     15  C   LIG A   1      -4.464   4.580 121.909  0.00  0.00    +0.277 C 
ENDBRANCH  10  14
BRANCH  11  16
ATOM     16  O   LIG A   1      -7.262   2.470 122.398  0.00  0.00    -0.488 OA
ATOM     17  C   LIG A   1      -8.527   3.059 122.141  0.00  0.00    +0.277 C 
ENDBRANCH  11  16
BRANCH  12  18
ATOM     18  O   LIG A   1      -7.407   0.652 124.274  0.00  0.00    -0.491 OA
ATOM     19  C   LIG A   1      -6.681  -0.567 124.154  0.00  0.00    +0.277 C 
ENDBRANCH  12  18
ENDBRANCH   3   8
BRANCH   5  20
ATOM     20  C   LIG A   1      -4.478   4.615 130.461  0.00  0.00    -0.011 A 
ATOM     21  C   LIG A   1      -3.577   3.853 131.218  0.00  0.00    +0.056 A 
ATOM     22  C   LIG A   1      -3.732   3.703 132.610  0.00  0.00    +0.166 A 
ATOM     23  C   LIG A   1      -4.770   4.374 133.285  0.00  0.00    +0.203 A 
ATOM     24  C   LIG A   1      -5.647   5.183 132.533  0.00  0.00    +0.166 A 
ATOM     25  C   LIG A   1      -5.525   5.243 131.136  0.00  0.00    +0.056 A 
BRANCH  22  26
ATOM     26  O   LIG A   1      -2.739   2.942 133.186  0.00  0.00    -0.491 OA
ATOM     27  C   LIG A   1      -2.979   1.543 133.288  0.00  0.00    +0.277 C 
ENDBRANCH  22  26
BRANCH  23  28
ATOM     28  O   LIG A   1      -4.725   4.381 134.654  0.00  0.00    -0.488 OA
ATOM     29  C   LIG A   1      -5.473   3.417 135.386  0.00  0.00    +0.277 C 
ENDBRANCH  23  28
BRANCH  24  30
ATOM     30  O   LIG A   1      -6.580   5.939 133.201  0.00  0.00    -0.491 OA
ATOM     31  C   LIG A   1      -7.892   5.388 133.271  0.00  0.00    +0.277 C 
ENDBRANCH  24  30
ENDBRANCH   5  20
TORSDOF 8
ENDMDL
MODEL 6
REMARK VINA RESULT:      -6.6      7.660      9.784
REMARK  Name = NuBBE_1526
REMARK  16 active torsions:
REMARK  status: ('A' for Active; 'I' for Inactive)
REMARK    1  A    between atoms: C_1  and  C_2
REMARK    2  A    between atoms: C_4  and  C_6
REMARK    3  A    between atoms: C_8  and  O_9
REMARK    4  A    between atoms: O_9  and  C_10
REMARK    5  A    between atoms: C_11  and  O_12
REMARK    6  A    between atoms: O_12  and  C_13
REMARK    7  A    between atoms: C_14  and  O_15
REMARK    8  A    between atoms: O_15  and  C_16
REMARK    9  A    between atoms: C_19  and  C_21
REMARK   10  A    between atoms: C_23  and  O_24
REMARK   11  A    between atoms: O_24  and  C_25
REMARK   12  A    between atoms: C_26  and  O_27
REMARK   13  A    between atoms: O_27  and  C_28
REMARK   14  A    between atoms: C_29  and  O_30
REMARK   15  A    between atoms: O_30  and  C_31
REMARK   16  A    between atoms: C_33  and  C_35
REMARK                            x       y       z     vdW  Elec       q    Type
REMARK                         _______ _______ _______ _____ _____    ______ ____
ROOT
ATOM      1  C   LIG A   1      -7.558   2.101 129.840  0.00  0.00    +0.011 C 
ATOM      2  C   LIG A   1      -8.061   0.660 129.752  0.00  0.00    +0.025 C 
ATOM      3  C   LIG A   1      -7.363  -0.149 128.657  0.00  0.00    +0.152 C 
ATOM      4  O   LIG A   1      -7.337  -1.515 129.081  0.00  0.00    -0.364 OA
ATOM      5  C   LIG A   1      -7.661  -1.593 130.472  0.00  0.00    +0.152 C 
ATOM      6  C   LIG A   1      -7.754  -0.154 131.005  0.00  0.00    +0.025 C 
ATOM      7  C   LIG A   1      -8.832   0.022 132.074  0.00  0.00    +0.011 C 
ENDROOT
BRANCH   3   8
ATOM      8  C   LIG A   1      -8.032  -0.049 127.307  0.00  0.00    -0.011 A 
ATOM      9  C   LIG A   1      -8.354  -1.203 126.618  0.00  0.00    +0.056 A 
ATOM     10  C   LIG A   1      -9.117  -1.205 125.438  0.00  0.00    +0.166 A 
ATOM     11  C   LIG A   1      -9.433   0.042 124.847  0.00  0.00    +0.203 A 
ATOM     12  C   LIG A   1      -9.054   1.226 125.508  0.00  0.00    +0.166 A 
ATOM     13  C   LIG A   1      -8.391   1.182 126.741  0.00  0.00    +0.056 A 
BRANCH  10  14
ATOM     14  O   LIG A   1      -9.626  -2.363 124.899  0.00  0.00    -0.491 OA
ATOM     15  C   LIG A   1      -8.696  -3.399 124.577  0.00  0.00    +0.277 C 
ENDBRANCH  10  14
BRANCH  11  16
ATOM     16  O   LIG A   1     -10.163   0.237 123.697  0.00  0.00    -0.488 OA
ATOM     17  C   LIG A   1      -9.666  -0.233 122.453  0.00  0.00    +0.277 C 
ENDBRANCH  11  16
BRANCH  12  18
ATOM     18  O   LIG A   1      -9.409   2.426 124.917  0.00  0.00    -0.491 OA
ATOM     19  C   LIG A   1      -8.356   3.370 124.756  0.00  0.00    +0.277 C 
ENDBRANCH  12  18
ENDBRANCH   3   8
BRANCH   5  20
ATOM     20  C   LIG A   1      -6.645  -2.463 131.186  0.00  0.00    -0.011 A 
ATOM     21  C   LIG A   1      -6.960  -3.266 132.292  0.00  0.00    +0.056 A 
ATOM     22  C   LIG A   1      -5.985  -4.065 132.920  0.00  0.00    +0.166 A 
ATOM     23  C   LIG A   1      -4.675  -4.122 132.406  0.00  0.00    +0.203 A 
ATOM     24  C   LIG A   1      -4.368  -3.355 131.263  0.00  0.00    +0.166 A 
ATOM     25  C   LIG A   1      -5.334  -2.499 130.710  0.00  0.00    +0.056 A 
BRANCH  22  26
ATOM     26  O   LIG A   1      -6.484  -4.802 133.971  0.00  0.00    -0.491 OA
ATOM     27  C   LIG A   1      -6.431  -4.201 135.260  0.00  0.00    +0.277 C 
ENDBRANCH  22  26
BRANCH  23  28
ATOM     28  O   LIG A   1      -3.846  -5.090 132.909  0.00  0.00    -0.488 OA
ATOM     29  C   LIG A   1      -2.900  -4.749 133.916  0.00  0.00    +0.277 C 
ENDBRANCH  23  28
BRANCH  24  30
ATOM     30  O   LIG A   1      -3.132  -3.505 130.682  0.00  0.00    -0.491 OA
ATOM     31  C   LIG A   1      -3.121  -3.603 129.261  0.00  0.00    +0.277 C 
ENDBRANCH  24  30
ENDBRANCH   5  20
TORSDOF 8
ENDMDL
MODEL 7
REMARK VINA RESULT:      -6.6      4.509      7.595
REMARK  Name = NuBBE_1526
REMARK  16 active torsions:
REMARK  status: ('A' for Active; 'I' for Inactive)
REMARK    1  A    between atoms: C_1  and  C_2
REMARK    2  A    between atoms: C_4  and  C_6
REMARK    3  A    between atoms: C_8  and  O_9
REMARK    4  A    between atoms: O_9  and  C_10
REMARK    5  A    between atoms: C_11  and  O_12
REMARK    6  A    between atoms: O_12  and  C_13
REMARK    7  A    between atoms: C_14  and  O_15
REMARK    8  A    between atoms: O_15  and  C_16
REMARK    9  A    between atoms: C_19  and  C_21
REMARK   10  A    between atoms: C_23  and  O_24
REMARK   11  A    between atoms: O_24  and  C_25
REMARK   12  A    between atoms: C_26  and  O_27
REMARK   13  A    between atoms: O_27  and  C_28
REMARK   14  A    between atoms: C_29  and  O_30
REMARK   15  A    between atoms: O_30  and  C_31
REMARK   16  A    between atoms: C_33  and  C_35
REMARK                            x       y       z     vdW  Elec       q    Type
REMARK                         _______ _______ _______ _____ _____    ______ ____
ROOT
ATOM      1  C   LIG A   1      -7.689   6.093 132.008  0.00  0.00    +0.011 C 
ATOM      2  C   LIG A   1      -8.824   5.081 131.846  0.00  0.00    +0.025 C 
ATOM      3  C   LIG A   1      -9.223   4.861 130.387  0.00  0.00    +0.152 C 
ATOM      4  O   LIG A   1      -9.698   3.517 130.267  0.00  0.00    -0.364 OA
ATOM      5  C   LIG A   1      -9.336   2.775 131.435  0.00  0.00    +0.152 C 
ATOM      6  C   LIG A   1      -8.435   3.675 132.294  0.00  0.00    +0.025 C 
ATOM      7  C   LIG A   1      -8.645   3.479 133.795  0.00  0.00    +0.011 C 
ENDROOT
BRANCH   3   8
ATOM      8  C   LIG A   1     -10.282   5.820 129.894  0.00  0.00    -0.011 A 
ATOM      9  C   LIG A   1     -11.445   5.983 130.623  0.00  0.00    +0.056 A 
ATOM     10  C   LIG A   1     -12.405   6.965 130.326  0.00  0.00    +0.166 A 
ATOM     11  C   LIG A   1     -12.246   7.714 129.135  0.00  0.00    +0.203 A 
ATOM     12  C   LIG A   1     -11.094   7.510 128.349  0.00  0.00    +0.166 A 
ATOM     13  C   LIG A   1     -10.107   6.599 128.743  0.00  0.00    +0.056 A 
BRANCH  10  14
ATOM     14  O   LIG A   1     -13.430   7.270 131.190  0.00  0.00    -0.491 OA
ATOM     15  C   LIG A   1     -13.145   8.189 132.245  0.00  0.00    +0.277 C 
ENDBRANCH  10  14
BRANCH  11  16
ATOM     16  O   LIG A   1     -13.081   8.708 128.679  0.00  0.00    -0.488 OA
ATOM     17  C   LIG A   1     -13.044   9.995 129.276  0.00  0.00    +0.277 C 
ENDBRANCH  11  16
BRANCH  12  18
ATOM     18  O   LIG A   1     -10.957   8.282 127.210  0.00  0.00    -0.491 OA
ATOM     19  C   LIG A   1     -10.972   7.572 125.976  0.00  0.00    +0.277 C 
ENDBRANCH  12  18
ENDBRANCH   3   8
BRANCH   5  20
ATOM     20  C   LIG A   1      -8.703   1.458 131.028  0.00  0.00    -0.011 A 
ATOM     21  C   LIG A   1      -8.582   0.362 131.895  0.00  0.00    +0.056 A 
ATOM     22  C   LIG A   1      -7.994  -0.846 131.472  0.00  0.00    +0.166 A 
ATOM     23  C   LIG A   1      -7.568  -1.000 130.138  0.00  0.00    +0.203 A 
ATOM     24  C   LIG A   1      -7.737   0.084 129.250  0.00  0.00    +0.166 A 
ATOM     25  C   LIG A   1      -8.243   1.306 129.720  0.00  0.00    +0.056 A 
BRANCH  22  26
ATOM     26  O   LIG A   1      -7.984  -1.816 132.450  0.00  0.00    -0.491 OA
ATOM     27  C   LIG A   1      -6.950  -1.734 133.425  0.00  0.00    +0.277 C 
ENDBRANCH  22  26
BRANCH  23  28
ATOM     28  O   LIG A   1      -7.229  -2.263 129.730  0.00  0.00    -0.488 OA
ATOM     29  C   LIG A   1      -5.867  -2.672 129.774  0.00  0.00    +0.277 C 
ENDBRANCH  23  28
BRANCH  24  30
ATOM     30  O   LIG A   1      -7.443  -0.103 127.921  0.00  0.00    -0.491 OA
ATOM     31  C   LIG A   1      -8.324   0.528 126.996  0.00  0.00    +0.277 C 
ENDBRANCH  24  30
ENDBRANCH   5  20
TORSDOF 8
ENDMDL
MODEL 8
REMARK VINA RESULT:      -6.6      7.868      9.950
REMARK  Name = NuBBE_1526
REMARK  16 active torsions:
REMARK  status: ('A' for Active; 'I' for Inactive)
REMARK    1  A    between atoms: C_1  and  C_2
REMARK    2  A    between atoms: C_4  and  C_6
REMARK    3  A    between atoms: C_8  and  O_9
REMARK    4  A    between atoms: O_9  and  C_10
REMARK    5  A    between atoms: C_11  and  O_12
REMARK    6  A    between atoms: O_12  and  C_13
REMARK    7  A    between atoms: C_14  and  O_15
REMARK    8  A    between atoms: O_15  and  C_16
REMARK    9  A    between atoms: C_19  and  C_21
REMARK   10  A    between atoms: C_23  and  O_24
REMARK   11  A    between atoms: O_24  and  C_25
REMARK   12  A    between atoms: C_26  and  O_27
REMARK   13  A    between atoms: O_27  and  C_28
REMARK   14  A    between atoms: C_29  and  O_30
REMARK   15  A    between atoms: O_30  and  C_31
REMARK   16  A    between atoms: C_33  and  C_35
REMARK                            x       y       z     vdW  Elec       q    Type
REMARK                         _______ _______ _______ _____ _____    ______ ____
ROOT
ATOM      1  C   LIG A   1      -7.580   2.104 129.413  0.00  0.00    +0.011 C 
ATOM      2  C   LIG A   1      -8.065   0.655 129.362  0.00  0.00    +0.025 C 
ATOM      3  C   LIG A   1      -7.276  -0.203 128.372  0.00  0.00    +0.152 C 
ATOM      4  O   LIG A   1      -7.275  -1.544 128.869  0.00  0.00    -0.364 OA
ATOM      5  C   LIG A   1      -7.709  -1.551 130.231  0.00  0.00    +0.152 C 
ATOM      6  C   LIG A   1      -7.854  -0.088 130.678  0.00  0.00    +0.025 C 
ATOM      7  C   LIG A   1      -9.015   0.133 131.646  0.00  0.00    +0.011 C 
ENDROOT
BRANCH   3   8
ATOM      8  C   LIG A   1      -7.836  -0.181 126.969  0.00  0.00    -0.011 A 
ATOM      9  C   LIG A   1      -7.667   0.946 126.185  0.00  0.00    +0.056 A 
ATOM     10  C   LIG A   1      -8.012   0.992 124.824  0.00  0.00    +0.166 A 
ATOM     11  C   LIG A   1      -8.707  -0.112 124.275  0.00  0.00    +0.203 A 
ATOM     12  C   LIG A   1      -8.943  -1.241 125.083  0.00  0.00    +0.166 A 
ATOM     13  C   LIG A   1      -8.481  -1.289 126.405  0.00  0.00    +0.056 A 
BRANCH  10  14
ATOM     14  O   LIG A   1      -7.624   2.027 124.007  0.00  0.00    -0.491 OA
ATOM     15  C   LIG A   1      -8.114   3.332 124.325  0.00  0.00    +0.277 C 
ENDBRANCH  10  14
BRANCH  11  16
ATOM     16  O   LIG A   1      -9.129  -0.243 122.972  0.00  0.00    -0.488 OA
ATOM     17  C   LIG A   1     -10.240   0.507 122.506  0.00  0.00    +0.277 C 
ENDBRANCH  11  16
BRANCH  12  18
ATOM     18  O   LIG A   1      -9.596  -2.314 124.503  0.00  0.00    -0.491 OA
ATOM     19  C   LIG A   1      -8.843  -3.518 124.410  0.00  0.00    +0.277 C 
ENDBRANCH  12  18
ENDBRANCH   3   8
BRANCH   5  20
ATOM     20  C   LIG A   1      -6.747  -2.371 131.070  0.00  0.00    -0.011 A 
ATOM     21  C   LIG A   1      -7.123  -3.027 132.251  0.00  0.00    +0.056 A 
ATOM     22  C   LIG A   1      -6.197  -3.785 132.995  0.00  0.00    +0.166 A 
ATOM     23  C   LIG A   1      -4.879  -3.953 132.528  0.00  0.00    +0.203 A 
ATOM     24  C   LIG A   1      -4.513  -3.337 131.313  0.00  0.00    +0.166 A 
ATOM     25  C   LIG A   1      -5.429  -2.514 130.639  0.00  0.00    +0.056 A 
BRANCH  22  26
ATOM     26  O   LIG A   1      -6.752  -4.375 134.109  0.00  0.00    -0.491 OA
ATOM     27  C   LIG A   1      -8.088  -4.007 134.433  0.00  0.00    +0.277 C 
ENDBRANCH  22  26
BRANCH  23  28
ATOM     28  O   LIG A   1      -4.103  -4.887 133.164  0.00  0.00    -0.488 OA
ATOM     29  C   LIG A   1      -3.197  -4.473 134.179  0.00  0.00    +0.277 C 
ENDBRANCH  23  28
BRANCH  24  30
ATOM     30  O   LIG A   1      -3.271  -3.602 130.789  0.00  0.00    -0.491 OA
ATOM     31  C   LIG A   1      -3.181  -3.591 129.367  0.00  0.00    +0.277 C 
ENDBRANCH  24  30
ENDBRANCH   5  20
TORSDOF 8
ENDMDL
MODEL 9
REMARK VINA RESULT:      -6.6      4.714     11.214
REMARK  Name = NuBBE_1526
REMARK  16 active torsions:
REMARK  status: ('A' for Active; 'I' for Inactive)
REMARK    1  A    between atoms: C_1  and  C_2
REMARK    2  A    between atoms: C_4  and  C_6
REMARK    3  A    between atoms: C_8  and  O_9
REMARK    4  A    between atoms: O_9  and  C_10
REMARK    5  A    between atoms: C_11  and  O_12
REMARK    6  A    between atoms: O_12  and  C_13
REMARK    7  A    between atoms: C_14  and  O_15
REMARK    8  A    between atoms: O_15  and  C_16
REMARK    9  A    between atoms: C_19  and  C_21
REMARK   10  A    between atoms: C_23  and  O_24
REMARK   11  A    between atoms: O_24  and  C_25
REMARK   12  A    between atoms: C_26  and  O_27
REMARK   13  A    between atoms: O_27  and  C_28
REMARK   14  A    between atoms: C_29  and  O_30
REMARK   15  A    between atoms: O_30  and  C_31
REMARK   16  A    between atoms: C_33  and  C_35
REMARK                            x       y       z     vdW  Elec       q    Type
REMARK                         _______ _______ _______ _____ _____    ______ ____
ROOT
ATOM      1  C   LIG A   1      -2.156   6.205 128.304  0.00  0.00    +0.011 C 
ATOM      2  C   LIG A   1      -2.859   4.851 128.411  0.00  0.00    +0.025 C 
ATOM      3  C   LIG A   1      -4.306   4.968 128.890  0.00  0.00    +0.152 C 
ATOM      4  O   LIG A   1      -5.041   3.886 128.310  0.00  0.00    -0.364 OA
ATOM      5  C   LIG A   1      -4.271   3.291 127.262  0.00  0.00    +0.152 C 
ATOM      6  C   LIG A   1      -3.016   4.155 127.063  0.00  0.00    +0.025 C 
ATOM      7  C   LIG A   1      -1.776   3.339 126.698  0.00  0.00    +0.011 C 
ENDROOT
BRANCH   3   8
ATOM      8  C   LIG A   1      -4.454   4.934 130.393  0.00  0.00    -0.011 A 
ATOM      9  C   LIG A   1      -5.481   5.639 130.993  0.00  0.00    +0.056 A 
ATOM     10  C   LIG A   1      -5.787   5.535 132.360  0.00  0.00    +0.166 A 
ATOM     11  C   LIG A   1      -4.905   4.797 133.186  0.00  0.00    +0.203 A 
ATOM     12  C   LIG A   1      -3.816   4.127 132.594  0.00  0.00    +0.166 A 
ATOM     13  C   LIG A   1      -3.613   4.166 131.209  0.00  0.00    +0.056 A 
BRANCH  10  14
ATOM     14  O   LIG A   1      -6.946   6.051 132.891  0.00  0.00    -0.491 OA
ATOM     15  C   LIG A   1      -8.179   5.478 132.452  0.00  0.00    +0.277 C 
ENDBRANCH  10  14
BRANCH  11  16
ATOM     16  O   LIG A   1      -5.037   4.590 134.540  0.00  0.00    -0.488 OA
ATOM     17  C   LIG A   1      -5.960   3.627 135.024  0.00  0.00    +0.277 C 
ENDBRANCH  11  16
BRANCH  12  18
ATOM     18  O   LIG A   1      -2.995   3.390 133.428  0.00  0.00    -0.491 OA
ATOM     19  C   LIG A   1      -3.010   1.981 133.221  0.00  0.00    +0.277 C 
ENDBRANCH  12  18
ENDBRANCH   3   8
BRANCH   5  20
ATOM     20  C   LIG A   1      -5.129   3.136 126.021  0.00  0.00    -0.011 A 
ATOM     21  C   LIG A   1      -5.058   4.004 124.922  0.00  0.00    +0.056 A 
ATOM     22  C   LIG A   1      -5.869   3.817 123.786  0.00  0.00    +0.166 A 
ATOM     23  C   LIG A   1      -6.733   2.707 123.704  0.00  0.00    +0.203 A 
ATOM     24  C   LIG A   1      -6.768   1.803 124.787  0.00  0.00    +0.166 A 
ATOM     25  C   LIG A   1      -6.016   2.062 125.944  0.00  0.00    +0.056 A 
BRANCH  22  26
ATOM     26  O   LIG A   1      -5.643   4.751 122.799  0.00  0.00    -0.491 OA
ATOM     27  C   LIG A   1      -4.699   4.406 121.792  0.00  0.00    +0.277 C 
ENDBRANCH  22  26
BRANCH  23  28
ATOM     28  O   LIG A   1      -7.311   2.451 122.489  0.00  0.00    -0.488 OA
ATOM     29  C   LIG A   1      -8.595   2.989 122.196  0.00  0.00    +0.277 C 
ENDBRANCH  23  28
BRANCH  24  30
ATOM     30  O   LIG A   1      -7.509   0.654 124.660  0.00  0.00    -0.491 OA
ATOM     31  C   LIG A   1      -7.201  -0.389 125.580  0.00  0.00    +0.277 C 
ENDBRANCH  24  30
ENDBRANCH   5  20
TORSDOF 8
ENDMDL
