MODEL 1
REMARK VINA RESULT:      -7.4      0.000      0.000
REMARK  Name = NuBBE_1822
REMARK  12 active torsions:
REMARK  status: ('A' for Active; 'I' for Inactive)
REMARK    1  A    between atoms: C_2  and  C_3
REMARK    2  A    between atoms: C_2  and  C_4
REMARK    3  A    between atoms: C_5  and  C_6
REMARK    4  A    between atoms: C_10  and  O_11
REMARK    5  A    between atoms: O_11  and  C_12
REMARK    6  A    between atoms: C_12  and  C_13
REMARK    7  A    between atoms: C_16  and  O_17
REMARK    8  A    between atoms: O_17  and  C_18
REMARK    9  A    between atoms: C_18  and  C_19
REMARK   10  A    between atoms: C_22  and  O_23
REMARK   11  A    between atoms: O_23  and  C_24
REMARK   12  A    between atoms: C_24  and  C_25
REMARK                            x       y       z     vdW  Elec       q    Type
REMARK                         _______ _______ _______ _____ _____    ______ ____
ROOT
ATOM      1  C   LIG A   1      -7.785  -0.824 124.851  0.00  0.00    +0.063 A 
ATOM      2  C   LIG A   1      -6.954  -0.998 125.985  0.00  0.00    -0.036 A 
ATOM      3  C   LIG A   1      -6.919  -2.243 126.841  0.00  0.00    +0.044 C 
ATOM      4  C   LIG A   1      -6.059   0.010 126.378  0.00  0.00    +0.013 A 
ATOM      5  C   LIG A   1      -5.936   1.223 125.714  0.00  0.00    -0.007 A 
ATOM      6  C   LIG A   1      -4.968   2.114 126.227  0.00  0.00    +0.055 A 
ATOM      7  C   LIG A   1      -4.779   3.363 125.669  0.00  0.00    +0.136 A 
ATOM      8  C   LIG A   1      -5.569   3.743 124.608  0.00  0.00    +0.093 A 
ATOM      9  C   LIG A   1      -6.493   2.829 124.040  0.00  0.00    +0.146 A 
ATOM     10  C   LIG A   1      -6.738   1.504 124.578  0.00  0.00    +0.068 A 
ATOM     11  C   LIG A   1      -7.656   0.419 124.150  0.00  0.00    +0.153 A 
ENDROOT
BRANCH   1  13
ATOM     12  O   LIG A   1      -9.756  -2.157 125.058  0.00  0.00    -0.292 OA
ATOM     13  C   LIG A   1      -8.678  -2.009 124.473  0.00  0.00    +0.164 C 
ATOM     14  C   LIG A   1      -8.349  -3.000 123.379  0.00  0.00    +0.091 C 
ENDBRANCH   1  13
BRANCH   7  15
ATOM     15  O   LIG A   1      -3.649   4.095 126.066  0.00  0.00    -0.426 OA
BRANCH  15  16
ATOM     16  C   LIG A   1      -2.790   3.651 127.068  0.00  0.00    +0.309 C 
ATOM     17  C   LIG A   1      -1.582   3.003 126.444  0.00  0.00    +0.136 C 
ATOM     18  O   LIG A   1      -2.955   3.802 128.283  0.00  0.00    -0.251 OA
ENDBRANCH  15  16
ENDBRANCH   7  15
BRANCH   9  19
ATOM     19  O   LIG A   1      -7.277   3.283 122.941  0.00  0.00    -0.425 OA
BRANCH  19  20
ATOM     20  C   LIG A   1      -6.710   3.327 121.651  0.00  0.00    +0.309 C 
ATOM     21  C   LIG A   1      -7.752   3.813 120.691  0.00  0.00    +0.136 C 
ATOM     22  O   LIG A   1      -5.576   3.046 121.328  0.00  0.00    -0.251 OA
ENDBRANCH  19  20
ENDBRANCH   9  19
BRANCH  11  23
ATOM     23  O   LIG A   1      -8.453   0.696 123.000  0.00  0.00    -0.425 OA
BRANCH  23  24
ATOM     24  C   LIG A   1      -9.837   0.804 123.164  0.00  0.00    +0.309 C 
ATOM     25  C   LIG A   1     -10.144   1.620 124.393  0.00  0.00    +0.136 C 
ATOM     26  O   LIG A   1     -10.685   0.258 122.485  0.00  0.00    -0.251 OA
ENDBRANCH  23  24
ENDBRANCH  11  23
TORSDOF 7
ENDMDL
MODEL 2
REMARK VINA RESULT:      -7.0      2.305      5.524
REMARK  Name = NuBBE_1822
REMARK  12 active torsions:
REMARK  status: ('A' for Active; 'I' for Inactive)
REMARK    1  A    between atoms: C_2  and  C_3
REMARK    2  A    between atoms: C_2  and  C_4
REMARK    3  A    between atoms: C_5  and  C_6
REMARK    4  A    between atoms: C_10  and  O_11
REMARK    5  A    between atoms: O_11  and  C_12
REMARK    6  A    between atoms: C_12  and  C_13
REMARK    7  A    between atoms: C_16  and  O_17
REMARK    8  A    between atoms: O_17  and  C_18
REMARK    9  A    between atoms: C_18  and  C_19
REMARK   10  A    between atoms: C_22  and  O_23
REMARK   11  A    between atoms: O_23  and  C_24
REMARK   12  A    between atoms: C_24  and  C_25
REMARK                            x       y       z     vdW  Elec       q    Type
REMARK                         _______ _______ _______ _____ _____    ______ ____
ROOT
ATOM      1  C   LIG A   1      -6.747   1.998 124.352  0.00  0.00    +0.063 A 
ATOM      2  C   LIG A   1      -5.843   2.368 125.378  0.00  0.00    -0.036 A 
ATOM      3  C   LIG A   1      -5.306   3.764 125.587  0.00  0.00    +0.044 C 
ATOM      4  C   LIG A   1      -5.398   1.420 126.315  0.00  0.00    +0.013 A 
ATOM      5  C   LIG A   1      -5.786   0.088 126.297  0.00  0.00    -0.007 A 
ATOM      6  C   LIG A   1      -5.264  -0.723 127.329  0.00  0.00    +0.055 A 
ATOM      7  C   LIG A   1      -5.554  -2.072 127.395  0.00  0.00    +0.136 A 
ATOM      8  C   LIG A   1      -6.349  -2.628 126.419  0.00  0.00    +0.093 A 
ATOM      9  C   LIG A   1      -6.937  -1.810 125.421  0.00  0.00    +0.146 A 
ATOM     10  C   LIG A   1      -6.673  -0.388 125.298  0.00  0.00    +0.068 A 
ATOM     11  C   LIG A   1      -7.165   0.628 124.333  0.00  0.00    +0.153 A 
ENDROOT
BRANCH   1  13
ATOM     12  O   LIG A   1      -8.250   3.736 123.703  0.00  0.00    -0.292 OA
ATOM     13  C   LIG A   1      -7.218   3.120 123.423  0.00  0.00    +0.164 C 
ATOM     14  C   LIG A   1      -6.465   3.567 122.189  0.00  0.00    +0.091 C 
ENDBRANCH   1  13
BRANCH   7  15
ATOM     15  O   LIG A   1      -5.207  -2.761 128.567  0.00  0.00    -0.426 OA
BRANCH  15  16
ATOM     16  C   LIG A   1      -6.145  -3.082 129.545  0.00  0.00    +0.309 C 
ATOM     17  C   LIG A   1      -5.704  -4.322 130.277  0.00  0.00    +0.136 C 
ATOM     18  O   LIG A   1      -7.161  -2.433 129.816  0.00  0.00    -0.251 OA
ENDBRANCH  15  16
ENDBRANCH   7  15
BRANCH   9  19
ATOM     19  O   LIG A   1      -7.753  -2.447 124.443  0.00  0.00    -0.425 OA
BRANCH  19  20
ATOM     20  C   LIG A   1      -9.093  -2.761 124.751  0.00  0.00    +0.309 C 
ATOM     21  C   LIG A   1      -9.709  -3.428 123.559  0.00  0.00    +0.136 C 
ATOM     22  O   LIG A   1      -9.683  -2.562 125.790  0.00  0.00    -0.251 OA
ENDBRANCH  19  20
ENDBRANCH   9  19
BRANCH  11  23
ATOM     23  O   LIG A   1      -8.068   0.152 123.336  0.00  0.00    -0.425 OA
BRANCH  23  24
ATOM     24  C   LIG A   1      -9.434   0.385 123.513  0.00  0.00    +0.309 C 
ATOM     25  C   LIG A   1     -10.115   0.480 122.172  0.00  0.00    +0.136 C 
ATOM     26  O   LIG A   1      -9.998   0.578 124.573  0.00  0.00    -0.251 OA
ENDBRANCH  23  24
ENDBRANCH  11  23
TORSDOF 7
ENDMDL
MODEL 3
REMARK VINA RESULT:      -6.8      2.900      6.245
REMARK  Name = NuBBE_1822
REMARK  12 active torsions:
REMARK  status: ('A' for Active; 'I' for Inactive)
REMARK    1  A    between atoms: C_2  and  C_3
REMARK    2  A    between atoms: C_2  and  C_4
REMARK    3  A    between atoms: C_5  and  C_6
REMARK    4  A    between atoms: C_10  and  O_11
REMARK    5  A    between atoms: O_11  and  C_12
REMARK    6  A    between atoms: C_12  and  C_13
REMARK    7  A    between atoms: C_16  and  O_17
REMARK    8  A    between atoms: O_17  and  C_18
REMARK    9  A    between atoms: C_18  and  C_19
REMARK   10  A    between atoms: C_22  and  O_23
REMARK   11  A    between atoms: O_23  and  C_24
REMARK   12  A    between atoms: C_24  and  C_25
REMARK                            x       y       z     vdW  Elec       q    Type
REMARK                         _______ _______ _______ _____ _____    ______ ____
ROOT
ATOM      1  C   LIG A   1      -7.224  -2.739 128.699  0.00  0.00    +0.063 A 
ATOM      2  C   LIG A   1      -8.333  -3.271 127.995  0.00  0.00    -0.036 A 
ATOM      3  C   LIG A   1      -9.231  -4.370 128.511  0.00  0.00    +0.044 C 
ATOM      4  C   LIG A   1      -8.689  -2.764 126.734  0.00  0.00    +0.013 A 
ATOM      5  C   LIG A   1      -7.994  -1.746 126.096  0.00  0.00    -0.007 A 
ATOM      6  C   LIG A   1      -8.503  -1.339 124.843  0.00  0.00    +0.055 A 
ATOM      7  C   LIG A   1      -7.877  -0.358 124.100  0.00  0.00    +0.136 A 
ATOM      8  C   LIG A   1      -6.723   0.210 124.591  0.00  0.00    +0.093 A 
ATOM      9  C   LIG A   1      -6.244  -0.139 125.879  0.00  0.00    +0.146 A 
ATOM     10  C   LIG A   1      -6.857  -1.160 126.708  0.00  0.00    +0.068 A 
ATOM     11  C   LIG A   1      -6.508  -1.678 128.055  0.00  0.00    +0.153 A 
ENDROOT
BRANCH   1  13
ATOM     12  O   LIG A   1      -7.581  -2.864 131.057  0.00  0.00    -0.292 OA
ATOM     13  C   LIG A   1      -6.961  -3.319 130.091  0.00  0.00    +0.164 C 
ATOM     14  C   LIG A   1      -6.011  -4.465 130.363  0.00  0.00    +0.091 C 
ENDBRANCH   1  13
BRANCH   7  15
ATOM     15  O   LIG A   1      -8.562   0.164 122.992  0.00  0.00    -0.426 OA
BRANCH  15  16
ATOM     16  C   LIG A   1      -9.832   0.726 123.101  0.00  0.00    +0.309 C 
ATOM     17  C   LIG A   1      -9.769   1.942 123.986  0.00  0.00    +0.136 C 
ATOM     18  O   LIG A   1     -10.851   0.329 122.526  0.00  0.00    -0.251 OA
ENDBRANCH  15  16
ENDBRANCH   7  15
BRANCH   9  19
ATOM     19  O   LIG A   1      -5.048   0.490 126.329  0.00  0.00    -0.425 OA
BRANCH  19  20
ATOM     20  C   LIG A   1      -5.081   1.837 126.743  0.00  0.00    +0.309 C 
ATOM     21  C   LIG A   1      -3.758   2.464 126.425  0.00  0.00    +0.136 C 
ATOM     22  O   LIG A   1      -6.003   2.434 127.256  0.00  0.00    -0.251 OA
ENDBRANCH  19  20
ENDBRANCH   9  19
BRANCH  11  23
ATOM     23  O   LIG A   1      -5.372  -1.080 128.677  0.00  0.00    -0.425 OA
BRANCH  23  24
ATOM     24  C   LIG A   1      -5.589  -0.148 129.697  0.00  0.00    +0.309 C 
ATOM     25  C   LIG A   1      -4.376  -0.075 130.587  0.00  0.00    +0.136 C 
ATOM     26  O   LIG A   1      -6.622   0.457 129.909  0.00  0.00    -0.251 OA
ENDBRANCH  23  24
ENDBRANCH  11  23
TORSDOF 7
ENDMDL
MODEL 4
REMARK VINA RESULT:      -6.8      3.580      6.187
REMARK  Name = NuBBE_1822
REMARK  12 active torsions:
REMARK  status: ('A' for Active; 'I' for Inactive)
REMARK    1  A    between atoms: C_2  and  C_3
REMARK    2  A    between atoms: C_2  and  C_4
REMARK    3  A    between atoms: C_5  and  C_6
REMARK    4  A    between atoms: C_10  and  O_11
REMARK    5  A    between atoms: O_11  and  C_12
REMARK    6  A    between atoms: C_12  and  C_13
REMARK    7  A    between atoms: C_16  and  O_17
REMARK    8  A    between atoms: O_17  and  C_18
REMARK    9  A    between atoms: C_18  and  C_19
REMARK   10  A    between atoms: C_22  and  O_23
REMARK   11  A    between atoms: O_23  and  C_24
REMARK   12  A    between atoms: C_24  and  C_25
REMARK                            x       y       z     vdW  Elec       q    Type
REMARK                         _______ _______ _______ _____ _____    ______ ____
ROOT
ATOM      1  C   LIG A   1      -8.434  -1.128 124.891  0.00  0.00    +0.063 A 
ATOM      2  C   LIG A   1      -8.775  -2.490 125.082  0.00  0.00    -0.036 A 
ATOM      3  C   LIG A   1      -9.234  -3.423 123.986  0.00  0.00    +0.044 C 
ATOM      4  C   LIG A   1      -8.674  -3.080 126.353  0.00  0.00    +0.013 A 
ATOM      5  C   LIG A   1      -8.260  -2.391 127.484  0.00  0.00    -0.007 A 
ATOM      6  C   LIG A   1      -8.191  -3.144 128.677  0.00  0.00    +0.055 A 
ATOM      7  C   LIG A   1      -7.824  -2.558 129.873  0.00  0.00    +0.136 A 
ATOM      8  C   LIG A   1      -7.545  -1.211 129.893  0.00  0.00    +0.093 A 
ATOM      9  C   LIG A   1      -7.541  -0.461 128.690  0.00  0.00    +0.146 A 
ATOM     10  C   LIG A   1      -7.916  -1.018 127.402  0.00  0.00    +0.068 A 
ATOM     11  C   LIG A   1      -7.992  -0.411 126.049  0.00  0.00    +0.153 A 
ENDROOT
BRANCH   1  13
ATOM     12  O   LIG A   1      -7.546  -0.737 122.708  0.00  0.00    -0.292 OA
ATOM     13  C   LIG A   1      -8.519  -0.601 123.456  0.00  0.00    +0.164 C 
ATOM     14  C   LIG A   1      -9.754   0.043 122.864  0.00  0.00    +0.091 C 
ENDBRANCH   1  13
BRANCH   7  15
ATOM     15  O   LIG A   1      -7.542  -3.403 130.958  0.00  0.00    -0.426 OA
BRANCH  15  16
ATOM     16  C   LIG A   1      -6.245  -3.614 131.418  0.00  0.00    +0.309 C 
ATOM     17  C   LIG A   1      -5.650  -4.805 130.715  0.00  0.00    +0.136 C 
ATOM     18  O   LIG A   1      -5.644  -2.911 132.237  0.00  0.00    -0.251 OA
ENDBRANCH  15  16
ENDBRANCH   7  15
BRANCH   9  19
ATOM     19  O   LIG A   1      -7.239   0.928 128.780  0.00  0.00    -0.425 OA
BRANCH  19  20
ATOM     20  C   LIG A   1      -8.241   1.834 129.184  0.00  0.00    +0.309 C 
ATOM     21  C   LIG A   1      -7.937   2.283 130.581  0.00  0.00    +0.136 C 
ATOM     22  O   LIG A   1      -9.191   2.226 128.543  0.00  0.00    -0.251 OA
ENDBRANCH  19  20
ENDBRANCH   9  19
BRANCH  11  23
ATOM     23  O   LIG A   1      -7.634   0.967 125.965  0.00  0.00    -0.425 OA
BRANCH  23  24
ATOM     24  C   LIG A   1      -6.343   1.291 125.536  0.00  0.00    +0.309 C 
ATOM     25  C   LIG A   1      -6.411   2.349 124.466  0.00  0.00    +0.136 C 
ATOM     26  O   LIG A   1      -5.312   0.751 125.890  0.00  0.00    -0.251 OA
ENDBRANCH  23  24
ENDBRANCH  11  23
TORSDOF 7
ENDMDL
MODEL 5
REMARK VINA RESULT:      -6.7      1.504      1.993
REMARK  Name = NuBBE_1822
REMARK  12 active torsions:
REMARK  status: ('A' for Active; 'I' for Inactive)
REMARK    1  A    between atoms: C_2  and  C_3
REMARK    2  A    between atoms: C_2  and  C_4
REMARK    3  A    between atoms: C_5  and  C_6
REMARK    4  A    between atoms: C_10  and  O_11
REMARK    5  A    between atoms: O_11  and  C_12
REMARK    6  A    between atoms: C_12  and  C_13
REMARK    7  A    between atoms: C_16  and  O_17
REMARK    8  A    between atoms: O_17  and  C_18
REMARK    9  A    between atoms: C_18  and  C_19
REMARK   10  A    between atoms: C_22  and  O_23
REMARK   11  A    between atoms: O_23  and  C_24
REMARK   12  A    between atoms: C_24  and  C_25
REMARK                            x       y       z     vdW  Elec       q    Type
REMARK                         _______ _______ _______ _____ _____    ______ ____
ROOT
ATOM      1  C   LIG A   1      -7.910  -1.655 126.075  0.00  0.00    +0.063 A 
ATOM      2  C   LIG A   1      -7.462  -1.837 127.407  0.00  0.00    -0.036 A 
ATOM      3  C   LIG A   1      -7.845  -3.001 128.290  0.00  0.00    +0.044 C 
ATOM      4  C   LIG A   1      -6.576  -0.919 127.995  0.00  0.00    +0.013 A 
ATOM      5  C   LIG A   1      -6.100   0.209 127.341  0.00  0.00    -0.007 A 
ATOM      6  C   LIG A   1      -5.196   1.012 128.070  0.00  0.00    +0.055 A 
ATOM      7  C   LIG A   1      -4.682   2.176 127.536  0.00  0.00    +0.136 A 
ATOM      8  C   LIG A   1      -5.082   2.562 126.277  0.00  0.00    +0.093 A 
ATOM      9  C   LIG A   1      -5.933   1.727 125.508  0.00  0.00    +0.146 A 
ATOM     10  C   LIG A   1      -6.506   0.492 126.012  0.00  0.00    +0.068 A 
ATOM     11  C   LIG A   1      -7.414  -0.501 125.386  0.00  0.00    +0.153 A 
ENDROOT
BRANCH   1  13
ATOM     12  O   LIG A   1     -10.036  -2.693 125.740  0.00  0.00    -0.292 OA
ATOM     13  C   LIG A   1      -8.824  -2.746 125.509  0.00  0.00    +0.164 C 
ATOM     14  C   LIG A   1      -8.342  -3.879 124.629  0.00  0.00    +0.091 C 
ENDBRANCH   1  13
BRANCH   7  15
ATOM     15  O   LIG A   1      -3.614   2.791 128.207  0.00  0.00    -0.426 OA
BRANCH  15  16
ATOM     16  C   LIG A   1      -2.563   3.403 127.529  0.00  0.00    +0.309 C 
ATOM     17  C   LIG A   1      -2.590   4.886 127.793  0.00  0.00    +0.136 C 
ATOM     18  O   LIG A   1      -1.704   2.827 126.854  0.00  0.00    -0.251 OA
ENDBRANCH  15  16
ENDBRANCH   7  15
BRANCH   9  19
ATOM     19  O   LIG A   1      -6.306   2.183 124.211  0.00  0.00    -0.425 OA
BRANCH  19  20
ATOM     20  C   LIG A   1      -6.737   3.514 124.037  0.00  0.00    +0.309 C 
ATOM     21  C   LIG A   1      -5.729   4.231 123.192  0.00  0.00    +0.136 C 
ATOM     22  O   LIG A   1      -7.748   4.029 124.462  0.00  0.00    -0.251 OA
ENDBRANCH  19  20
ENDBRANCH   9  19
BRANCH  11  23
ATOM     23  O   LIG A   1      -7.811  -0.223 124.045  0.00  0.00    -0.425 OA
BRANCH  23  24
ATOM     24  C   LIG A   1      -9.160   0.048 123.795  0.00  0.00    +0.309 C 
ATOM     25  C   LIG A   1      -9.660   1.087 124.765  0.00  0.00    +0.136 C 
ATOM     26  O   LIG A   1      -9.869  -0.519 122.986  0.00  0.00    -0.251 OA
ENDBRANCH  23  24
ENDBRANCH  11  23
TORSDOF 7
ENDMDL
MODEL 6
REMARK VINA RESULT:      -6.4      2.036      4.335
REMARK  Name = NuBBE_1822
REMARK  12 active torsions:
REMARK  status: ('A' for Active; 'I' for Inactive)
REMARK    1  A    between atoms: C_2  and  C_3
REMARK    2  A    between atoms: C_2  and  C_4
REMARK    3  A    between atoms: C_5  and  C_6
REMARK    4  A    between atoms: C_10  and  O_11
REMARK    5  A    between atoms: O_11  and  C_12
REMARK    6  A    between atoms: C_12  and  C_13
REMARK    7  A    between atoms: C_16  and  O_17
REMARK    8  A    between atoms: O_17  and  C_18
REMARK    9  A    between atoms: C_18  and  C_19
REMARK   10  A    between atoms: C_22  and  O_23
REMARK   11  A    between atoms: O_23  and  C_24
REMARK   12  A    between atoms: C_24  and  C_25
REMARK                            x       y       z     vdW  Elec       q    Type
REMARK                         _______ _______ _______ _____ _____    ______ ____
ROOT
ATOM      1  C   LIG A   1      -8.730   1.420 123.852  0.00  0.00    +0.063 A 
ATOM      2  C   LIG A   1      -8.204   2.510 123.116  0.00  0.00    -0.036 A 
ATOM      3  C   LIG A   1      -8.812   3.066 121.850  0.00  0.00    +0.044 C 
ATOM      4  C   LIG A   1      -7.051   3.181 123.558  0.00  0.00    +0.013 A 
ATOM      5  C   LIG A   1      -6.354   2.827 124.705  0.00  0.00    -0.007 A 
ATOM      6  C   LIG A   1      -5.231   3.624 125.017  0.00  0.00    +0.055 A 
ATOM      7  C   LIG A   1      -4.440   3.347 126.115  0.00  0.00    +0.136 A 
ATOM      8  C   LIG A   1      -4.750   2.259 126.899  0.00  0.00    +0.093 A 
ATOM      9  C   LIG A   1      -5.916   1.496 126.636  0.00  0.00    +0.146 A 
ATOM     10  C   LIG A   1      -6.787   1.735 125.500  0.00  0.00    +0.068 A 
ATOM     11  C   LIG A   1      -8.025   1.055 125.044  0.00  0.00    +0.153 A 
ENDROOT
BRANCH   1  13
ATOM     12  O   LIG A   1     -11.107   1.228 123.727  0.00  0.00    -0.292 OA
ATOM     13  C   LIG A   1     -10.024   0.800 123.317  0.00  0.00    +0.164 C 
ATOM     14  C   LIG A   1     -10.069  -0.287 122.265  0.00  0.00    +0.091 C 
ENDBRANCH   1  13
BRANCH   7  15
ATOM     15  O   LIG A   1      -3.497   4.311 126.504  0.00  0.00    -0.426 OA
BRANCH  15  16
ATOM     16  C   LIG A   1      -2.444   4.015 127.367  0.00  0.00    +0.309 C 
ATOM     17  C   LIG A   1      -1.497   3.056 126.694  0.00  0.00    +0.136 C 
ATOM     18  O   LIG A   1      -2.274   4.494 128.493  0.00  0.00    -0.251 OA
ENDBRANCH  15  16
ENDBRANCH   7  15
BRANCH   9  19
ATOM     19  O   LIG A   1      -6.182   0.385 127.487  0.00  0.00    -0.425 OA
BRANCH  19  20
ATOM     20  C   LIG A   1      -6.776   0.599 128.748  0.00  0.00    +0.309 C 
ATOM     21  C   LIG A   1      -5.818   0.142 129.806  0.00  0.00    +0.136 C 
ATOM     22  O   LIG A   1      -7.861   1.082 128.986  0.00  0.00    -0.251 OA
ENDBRANCH  19  20
ENDBRANCH   9  19
BRANCH  11  23
ATOM     23  O   LIG A   1      -8.469  -0.035 125.851  0.00  0.00    -0.425 OA
BRANCH  23  24
ATOM     24  C   LIG A   1      -8.174  -1.335 125.430  0.00  0.00    +0.309 C 
ATOM     25  C   LIG A   1      -9.289  -2.266 125.828  0.00  0.00    +0.136 C 
ATOM     26  O   LIG A   1      -7.142  -1.702 124.903  0.00  0.00    -0.251 OA
ENDBRANCH  23  24
ENDBRANCH  11  23
TORSDOF 7
ENDMDL
MODEL 7
REMARK VINA RESULT:      -6.4      4.751      5.842
REMARK  Name = NuBBE_1822
REMARK  12 active torsions:
REMARK  status: ('A' for Active; 'I' for Inactive)
REMARK    1  A    between atoms: C_2  and  C_3
REMARK    2  A    between atoms: C_2  and  C_4
REMARK    3  A    between atoms: C_5  and  C_6
REMARK    4  A    between atoms: C_10  and  O_11
REMARK    5  A    between atoms: O_11  and  C_12
REMARK    6  A    between atoms: C_12  and  C_13
REMARK    7  A    between atoms: C_16  and  O_17
REMARK    8  A    between atoms: O_17  and  C_18
REMARK    9  A    between atoms: C_18  and  C_19
REMARK   10  A    between atoms: C_22  and  O_23
REMARK   11  A    between atoms: O_23  and  C_24
REMARK   12  A    between atoms: C_24  and  C_25
REMARK                            x       y       z     vdW  Elec       q    Type
REMARK                         _______ _______ _______ _____ _____    ______ ____
ROOT
ATOM      1  C   LIG A   1      -7.502  -1.443 127.867  0.00  0.00    +0.063 A 
ATOM      2  C   LIG A   1      -7.574  -2.151 129.092  0.00  0.00    -0.036 A 
ATOM      3  C   LIG A   1      -7.252  -3.618 129.258  0.00  0.00    +0.044 C 
ATOM      4  C   LIG A   1      -7.941  -1.493 130.278  0.00  0.00    +0.013 A 
ATOM      5  C   LIG A   1      -8.264  -0.144 130.334  0.00  0.00    -0.007 A 
ATOM      6  C   LIG A   1      -8.585   0.363 131.612  0.00  0.00    +0.055 A 
ATOM      7  C   LIG A   1      -8.955   1.682 131.786  0.00  0.00    +0.136 A 
ATOM      8  C   LIG A   1      -9.030   2.501 130.683  0.00  0.00    +0.093 A 
ATOM      9  C   LIG A   1      -8.641   2.022 129.407  0.00  0.00    +0.146 A 
ATOM     10  C   LIG A   1      -8.243   0.648 129.158  0.00  0.00    +0.068 A 
ATOM     11  C   LIG A   1      -7.821  -0.048 127.916  0.00  0.00    +0.153 A 
ENDROOT
BRANCH   1  13
ATOM     12  O   LIG A   1      -5.825  -2.288 126.391  0.00  0.00    -0.292 OA
ATOM     13  C   LIG A   1      -7.032  -2.241 126.648  0.00  0.00    +0.164 C 
ATOM     14  C   LIG A   1      -7.957  -3.031 125.747  0.00  0.00    +0.091 C 
ENDBRANCH   1  13
BRANCH   7  15
ATOM     15  O   LIG A   1      -9.023   2.177 133.098  0.00  0.00    -0.426 OA
BRANCH  15  16
ATOM     16  C   LIG A   1      -8.004   2.946 133.655  0.00  0.00    +0.309 C 
ATOM     17  C   LIG A   1      -8.595   4.177 134.292  0.00  0.00    +0.136 C 
ATOM     18  O   LIG A   1      -6.804   2.654 133.676  0.00  0.00    -0.251 OA
ENDBRANCH  15  16
ENDBRANCH   7  15
BRANCH   9  19
ATOM     19  O   LIG A   1      -8.738   2.922 128.307  0.00  0.00    -0.425 OA
BRANCH  19  20
ATOM     20  C   LIG A   1      -8.132   4.192 128.390  0.00  0.00    +0.309 C 
ATOM     21  C   LIG A   1      -6.645   4.010 128.371  0.00  0.00    +0.136 C 
ATOM     22  O   LIG A   1      -8.677   5.273 128.451  0.00  0.00    -0.251 OA
ENDBRANCH  19  20
ENDBRANCH   9  19
BRANCH  11  23
ATOM     23  O   LIG A   1      -7.786   0.753 126.736  0.00  0.00    -0.425 OA
BRANCH  23  24
ATOM     24  C   LIG A   1      -8.897   0.732 125.888  0.00  0.00    +0.309 C 
ATOM     25  C   LIG A   1      -8.865   1.930 124.975  0.00  0.00    +0.136 C 
ATOM     26  O   LIG A   1      -9.812  -0.068 125.923  0.00  0.00    -0.251 OA
ENDBRANCH  23  24
ENDBRANCH  11  23
TORSDOF 7
ENDMDL
MODEL 8
REMARK VINA RESULT:      -6.4      3.648      4.270
REMARK  Name = NuBBE_1822
REMARK  12 active torsions:
REMARK  status: ('A' for Active; 'I' for Inactive)
REMARK    1  A    between atoms: C_2  and  C_3
REMARK    2  A    between atoms: C_2  and  C_4
REMARK    3  A    between atoms: C_5  and  C_6
REMARK    4  A    between atoms: C_10  and  O_11
REMARK    5  A    between atoms: O_11  and  C_12
REMARK    6  A    between atoms: C_12  and  C_13
REMARK    7  A    between atoms: C_16  and  O_17
REMARK    8  A    between atoms: O_17  and  C_18
REMARK    9  A    between atoms: C_18  and  C_19
REMARK   10  A    between atoms: C_22  and  O_23
REMARK   11  A    between atoms: O_23  and  C_24
REMARK   12  A    between atoms: C_24  and  C_25
REMARK                            x       y       z     vdW  Elec       q    Type
REMARK                         _______ _______ _______ _____ _____    ______ ____
ROOT
ATOM      1  C   LIG A   1      -7.962  -1.082 127.020  0.00  0.00    +0.063 A 
ATOM      2  C   LIG A   1      -7.771  -1.341 128.399  0.00  0.00    -0.036 A 
ATOM      3  C   LIG A   1      -7.644  -2.719 129.005  0.00  0.00    +0.044 C 
ATOM      4  C   LIG A   1      -7.659  -0.283 129.317  0.00  0.00    +0.013 A 
ATOM      5  C   LIG A   1      -7.739   1.054 128.953  0.00  0.00    -0.007 A 
ATOM      6  C   LIG A   1      -7.579   1.990 129.998  0.00  0.00    +0.055 A 
ATOM      7  C   LIG A   1      -7.672   3.348 129.763  0.00  0.00    +0.136 A 
ATOM      8  C   LIG A   1      -7.947   3.783 128.487  0.00  0.00    +0.093 A 
ATOM      9  C   LIG A   1      -8.038   2.856 127.418  0.00  0.00    +0.146 A 
ATOM     10  C   LIG A   1      -7.949   1.418 127.599  0.00  0.00    +0.068 A 
ATOM     11  C   LIG A   1      -8.032   0.295 126.632  0.00  0.00    +0.153 A 
ENDROOT
BRANCH   1  13
ATOM     12  O   LIG A   1      -6.953  -2.743 125.631  0.00  0.00    -0.292 OA
ATOM     13  C   LIG A   1      -8.009  -2.304 126.098  0.00  0.00    +0.164 C 
ATOM     14  C   LIG A   1      -9.277  -3.055 125.754  0.00  0.00    +0.091 C 
ENDBRANCH   1  13
BRANCH   7  15
ATOM     15  O   LIG A   1      -7.265   4.220 130.785  0.00  0.00    -0.426 OA
BRANCH  15  16
ATOM     16  C   LIG A   1      -8.061   5.276 131.221  0.00  0.00    +0.309 C 
ATOM     17  C   LIG A   1      -7.267   6.555 131.179  0.00  0.00    +0.136 C 
ATOM     18  O   LIG A   1      -9.250   5.199 131.548  0.00  0.00    -0.251 OA
ENDBRANCH  15  16
ENDBRANCH   7  15
BRANCH   9  19
ATOM     19  O   LIG A   1      -8.321   3.372 126.121  0.00  0.00    -0.425 OA
BRANCH  19  20
ATOM     20  C   LIG A   1      -8.106   4.739 125.852  0.00  0.00    +0.309 C 
ATOM     21  C   LIG A   1      -6.725   4.900 125.294  0.00  0.00    +0.136 C 
ATOM     22  O   LIG A   1      -8.879   5.658 126.012  0.00  0.00    -0.251 OA
ENDBRANCH  19  20
ENDBRANCH   9  19
BRANCH  11  23
ATOM     23  O   LIG A   1      -8.230   0.662 125.268  0.00  0.00    -0.425 OA
BRANCH  23  24
ATOM     24  C   LIG A   1      -9.538   0.703 124.776  0.00  0.00    +0.309 C 
ATOM     25  C   LIG A   1      -9.544   1.295 123.390  0.00  0.00    +0.136 C 
ATOM     26  O   LIG A   1     -10.545   0.400 125.386  0.00  0.00    -0.251 OA
ENDBRANCH  23  24
ENDBRANCH  11  23
TORSDOF 7
ENDMDL
MODEL 9
REMARK VINA RESULT:      -6.4      3.685      7.779
REMARK  Name = NuBBE_1822
REMARK  12 active torsions:
REMARK  status: ('A' for Active; 'I' for Inactive)
REMARK    1  A    between atoms: C_2  and  C_3
REMARK    2  A    between atoms: C_2  and  C_4
REMARK    3  A    between atoms: C_5  and  C_6
REMARK    4  A    between atoms: C_10  and  O_11
REMARK    5  A    between atoms: O_11  and  C_12
REMARK    6  A    between atoms: C_12  and  C_13
REMARK    7  A    between atoms: C_16  and  O_17
REMARK    8  A    between atoms: O_17  and  C_18
REMARK    9  A    between atoms: C_18  and  C_19
REMARK   10  A    between atoms: C_22  and  O_23
REMARK   11  A    between atoms: O_23  and  C_24
REMARK   12  A    between atoms: C_24  and  C_25
REMARK                            x       y       z     vdW  Elec       q    Type
REMARK                         _______ _______ _______ _____ _____    ______ ____
ROOT
ATOM      1  C   LIG A   1      -4.608   4.510 127.983  0.00  0.00    +0.063 A 
ATOM      2  C   LIG A   1      -3.997   3.523 127.171  0.00  0.00    -0.036 A 
ATOM      3  C   LIG A   1      -2.581   3.596 126.648  0.00  0.00    +0.044 C 
ATOM      4  C   LIG A   1      -4.695   2.358 126.813  0.00  0.00    +0.013 A 
ATOM      5  C   LIG A   1      -6.002   2.101 127.204  0.00  0.00    -0.007 A 
ATOM      6  C   LIG A   1      -6.545   0.868 126.778  0.00  0.00    +0.055 A 
ATOM      7  C   LIG A   1      -7.846   0.518 127.079  0.00  0.00    +0.136 A 
ATOM      8  C   LIG A   1      -8.625   1.404 127.787  0.00  0.00    +0.093 A 
ATOM      9  C   LIG A   1      -8.069   2.611 128.281  0.00  0.00    +0.146 A 
ATOM     10  C   LIG A   1      -6.710   3.036 128.002  0.00  0.00    +0.068 A 
ATOM     11  C   LIG A   1      -5.952   4.248 128.403  0.00  0.00    +0.153 A 
ENDROOT
BRANCH   1  13
ATOM     12  O   LIG A   1      -3.898   6.780 127.769  0.00  0.00    -0.292 OA
ATOM     13  C   LIG A   1      -3.738   5.710 128.365  0.00  0.00    +0.164 C 
ATOM     14  C   LIG A   1      -2.712   5.691 129.477  0.00  0.00    +0.091 C 
ENDBRANCH   1  13
BRANCH   7  15
ATOM     15  O   LIG A   1      -8.241  -0.808 126.839  0.00  0.00    -0.426 OA
BRANCH  15  16
ATOM     16  C   LIG A   1      -8.933  -1.181 125.690  0.00  0.00    +0.309 C 
ATOM     17  C   LIG A   1      -8.651  -2.627 125.381  0.00  0.00    +0.136 C 
ATOM     18  O   LIG A   1      -9.703  -0.463 125.043  0.00  0.00    -0.251 OA
ENDBRANCH  15  16
ENDBRANCH   7  15
BRANCH   9  19
ATOM     19  O   LIG A   1      -8.928   3.482 129.011  0.00  0.00    -0.425 OA
BRANCH  19  20
ATOM     20  C   LIG A   1      -9.382   3.102 130.291  0.00  0.00    +0.309 C 
ATOM     21  C   LIG A   1     -10.779   3.613 130.469  0.00  0.00    +0.136 C 
ATOM     22  O   LIG A   1      -8.788   2.459 131.129  0.00  0.00    -0.251 OA
ENDBRANCH  19  20
ENDBRANCH   9  19
BRANCH  11  23
ATOM     23  O   LIG A   1      -6.660   5.183 129.216  0.00  0.00    -0.425 OA
BRANCH  23  24
ATOM     24  C   LIG A   1      -6.354   5.240 130.579  0.00  0.00    +0.309 C 
ATOM     25  C   LIG A   1      -6.477   6.658 131.071  0.00  0.00    +0.136 C 
ATOM     26  O   LIG A   1      -5.960   4.317 131.266  0.00  0.00    -0.251 OA
ENDBRANCH  23  24
ENDBRANCH  11  23
TORSDOF 7
ENDMDL
