MODEL 1
REMARK VINA RESULT:      -7.8      0.000      0.000
REMARK  Name = NuBBE_1646
REMARK  20 active torsions:
REMARK  status: ('A' for Active; 'I' for Inactive)
REMARK    1  A    between atoms: C_1  and  C_2
REMARK    2  A    between atoms: C_1  and  C_22
REMARK    3  A    between atoms: C_2  and  C_3
REMARK    4  A    between atoms: C_4  and  C_5
REMARK    5  A    between atoms: C_4  and  C_21
REMARK    6  A    between atoms: C_5  and  C_6
REMARK    7  A    between atoms: C_6  and  C_7
REMARK    8  A    between atoms: C_8  and  C_9
REMARK    9  A    between atoms: C_8  and  C_20
REMARK   10  A    between atoms: C_9  and  C_10
REMARK   11  A    between atoms: C_10  and  C_11
REMARK   12  A    between atoms: C_12  and  C_13
REMARK   13  A    between atoms: C_12  and  C_19
REMARK   14  A    between atoms: C_13  and  C_14
REMARK   15  A    between atoms: C_14  and  C_15
REMARK   16  A    between atoms: C_16  and  C_17
REMARK   17  A    between atoms: C_16  and  C_18
REMARK   18  A    between atoms: C_26  and  O_28
REMARK   19  A    between atoms: O_28  and  C_29
REMARK   20  A    between atoms: C_29  and  C_31
REMARK                            x       y       z     vdW  Elec       q    Type
REMARK                         _______ _______ _______ _____ _____    ______ ____
ROOT
ATOM      1  C   LIG A   1      -8.159   1.915 132.123  0.00  0.00    -0.027 C 
ATOM      2  C   LIG A   1      -7.865   1.989 130.805  0.00  0.00    -0.076 C 
ATOM      3  C   LIG A   1      -8.746   2.722 129.814  0.00  0.00    +0.038 C 
ENDROOT
BRANCH   1   4
ATOM      4  C   LIG A   1      -9.390   2.399 132.877  0.00  0.00    +0.032 C 
BRANCH   4   5
ATOM      5  C   LIG A   1      -9.127   3.779 133.519  0.00  0.00    +0.043 C 
BRANCH   5   6
ATOM      6  C   LIG A   1      -8.944   4.969 132.594  0.00  0.00    -0.001 A 
ATOM      7  C   LIG A   1      -7.705   5.450 132.177  0.00  0.00    +0.139 A 
ATOM      8  C   LIG A   1      -7.594   6.527 131.318  0.00  0.00    +0.009 A 
ATOM      9  C   LIG A   1      -8.672   7.172 130.782  0.00  0.00    +0.054 A 
ATOM     10  C   LIG A   1      -9.924   6.670 131.080  0.00  0.00    +0.132 A 
ATOM     11  C   LIG A   1     -10.070   5.606 132.012  0.00  0.00    +0.053 A 
ATOM     12  C   LIG A   1      -6.177   6.865 131.083  0.00  0.00    +0.160 C 
ATOM     13  C   LIG A   1      -5.526   5.815 131.953  0.00  0.00    +0.317 C 
ATOM     14  O   LIG A   1      -4.323   5.729 132.126  0.00  0.00    -0.250 OA
ATOM     15  O   LIG A   1      -6.467   4.956 132.552  0.00  0.00    -0.425 OA
BRANCH  10  16
ATOM     16  O   LIG A   1     -11.066   7.128 130.407  0.00  0.00    -0.426 OA
BRANCH  16  17
ATOM     17  C   LIG A   1     -11.906   6.266 129.693  0.00  0.00    +0.309 C 
ATOM     18  O   LIG A   1     -11.741   5.068 129.446  0.00  0.00    -0.251 OA
ATOM     19  C   LIG A   1     -13.156   6.996 129.339  0.00  0.00    +0.136 C 
ENDBRANCH  16  17
ENDBRANCH  10  16
ENDBRANCH   5   6
ENDBRANCH   4   5
ENDBRANCH   1   4
BRANCH   2  20
ATOM     20  C   LIG A   1      -6.606   1.327 130.195  0.00  0.00    +0.034 C 
BRANCH  20  21
ATOM     21  C   LIG A   1      -6.785   0.506 128.880  0.00  0.00    +0.031 C 
BRANCH  21  22
ATOM     22  C   LIG A   1      -7.679  -0.725 128.998  0.00  0.00    -0.027 C 
ATOM     23  C   LIG A   1      -7.442  -1.953 128.470  0.00  0.00    -0.076 C 
ATOM     24  C   LIG A   1      -6.196  -2.247 127.667  0.00  0.00    +0.038 C 
BRANCH  23  25
ATOM     25  C   LIG A   1      -8.479  -3.084 128.566  0.00  0.00    +0.034 C 
BRANCH  25  26
ATOM     26  C   LIG A   1      -8.662  -3.957 127.302  0.00  0.00    +0.031 C 
BRANCH  26  27
ATOM     27  C   LIG A   1      -9.175  -3.322 126.015  0.00  0.00    -0.027 C 
ATOM     28  C   LIG A   1      -8.656  -3.374 124.765  0.00  0.00    -0.076 C 
ATOM     29  C   LIG A   1      -7.277  -3.931 124.501  0.00  0.00    +0.038 C 
BRANCH  28  30
ATOM     30  C   LIG A   1      -9.421  -2.946 123.483  0.00  0.00    +0.034 C 
BRANCH  30  31
ATOM     31  C   LIG A   1      -9.228  -1.483 123.014  0.00  0.00    +0.031 C 
BRANCH  31  32
ATOM     32  C   LIG A   1      -8.107  -0.625 123.577  0.00  0.00    -0.028 C 
ATOM     33  C   LIG A   1      -7.969   0.059 124.740  0.00  0.00    -0.080 C 
ATOM     34  C   LIG A   1      -9.016   0.442 125.750  0.00  0.00    +0.038 C 
ATOM     35  C   LIG A   1      -6.575   0.460 125.181  0.00  0.00    +0.038 C 
ENDBRANCH  31  32
ENDBRANCH  30  31
ENDBRANCH  28  30
ENDBRANCH  26  27
ENDBRANCH  25  26
ENDBRANCH  23  25
ENDBRANCH  21  22
ENDBRANCH  20  21
ENDBRANCH   2  20
TORSDOF 14
ENDMDL
MODEL 2
REMARK VINA RESULT:      -7.8      4.861      7.048
REMARK  Name = NuBBE_1646
REMARK  20 active torsions:
REMARK  status: ('A' for Active; 'I' for Inactive)
REMARK    1  A    between atoms: C_1  and  C_2
REMARK    2  A    between atoms: C_1  and  C_22
REMARK    3  A    between atoms: C_2  and  C_3
REMARK    4  A    between atoms: C_4  and  C_5
REMARK    5  A    between atoms: C_4  and  C_21
REMARK    6  A    between atoms: C_5  and  C_6
REMARK    7  A    between atoms: C_6  and  C_7
REMARK    8  A    between atoms: C_8  and  C_9
REMARK    9  A    between atoms: C_8  and  C_20
REMARK   10  A    between atoms: C_9  and  C_10
REMARK   11  A    between atoms: C_10  and  C_11
REMARK   12  A    between atoms: C_12  and  C_13
REMARK   13  A    between atoms: C_12  and  C_19
REMARK   14  A    between atoms: C_13  and  C_14
REMARK   15  A    between atoms: C_14  and  C_15
REMARK   16  A    between atoms: C_16  and  C_17
REMARK   17  A    between atoms: C_16  and  C_18
REMARK   18  A    between atoms: C_26  and  O_28
REMARK   19  A    between atoms: O_28  and  C_29
REMARK   20  A    between atoms: C_29  and  C_31
REMARK                            x       y       z     vdW  Elec       q    Type
REMARK                         _______ _______ _______ _____ _____    ______ ____
ROOT
ATOM      1  C   LIG A   1      -5.098   2.825 127.490  0.00  0.00    -0.027 C 
ATOM      2  C   LIG A   1      -5.711   1.695 127.911  0.00  0.00    -0.076 C 
ATOM      3  C   LIG A   1      -5.607   0.384 127.157  0.00  0.00    +0.038 C 
ENDROOT
BRANCH   1   4
ATOM      4  C   LIG A   1      -4.311   3.092 126.215  0.00  0.00    +0.032 C 
BRANCH   4   5
ATOM      5  C   LIG A   1      -5.057   4.103 125.316  0.00  0.00    +0.043 C 
BRANCH   5   6
ATOM      6  C   LIG A   1      -5.840   3.559 124.134  0.00  0.00    -0.001 A 
ATOM      7  C   LIG A   1      -5.689   4.009 122.825  0.00  0.00    +0.139 A 
ATOM      8  C   LIG A   1      -6.413   3.466 121.780  0.00  0.00    +0.009 A 
ATOM      9  C   LIG A   1      -7.293   2.433 121.936  0.00  0.00    +0.054 A 
ATOM     10  C   LIG A   1      -7.404   1.880 123.197  0.00  0.00    +0.132 A 
ATOM     11  C   LIG A   1      -6.721   2.460 124.301  0.00  0.00    +0.053 A 
ATOM     12  C   LIG A   1      -6.105   4.158 120.514  0.00  0.00    +0.160 C 
ATOM     13  C   LIG A   1      -5.107   5.171 121.023  0.00  0.00    +0.317 C 
ATOM     14  O   LIG A   1      -4.596   6.029 120.326  0.00  0.00    -0.250 OA
ATOM     15  O   LIG A   1      -4.845   5.021 122.399  0.00  0.00    -0.425 OA
BRANCH  10  16
ATOM     16  O   LIG A   1      -8.112   0.686 123.403  0.00  0.00    -0.426 OA
BRANCH  16  17
ATOM     17  C   LIG A   1      -9.504   0.614 123.276  0.00  0.00    +0.309 C 
ATOM     18  O   LIG A   1     -10.168  -0.125 122.543  0.00  0.00    -0.251 OA
ATOM     19  C   LIG A   1     -10.126   1.524 124.279  0.00  0.00    +0.136 C 
ENDBRANCH  16  17
ENDBRANCH  10  16
ENDBRANCH   5   6
ENDBRANCH   4   5
ENDBRANCH   1   4
BRANCH   2  20
ATOM     20  C   LIG A   1      -6.576   1.644 129.193  0.00  0.00    +0.034 C 
BRANCH  20  21
ATOM     21  C   LIG A   1      -5.944   1.007 130.469  0.00  0.00    +0.031 C 
BRANCH  21  22
ATOM     22  C   LIG A   1      -6.116  -0.504 130.595  0.00  0.00    -0.027 C 
ATOM     23  C   LIG A   1      -7.263  -1.168 130.883  0.00  0.00    -0.076 C 
ATOM     24  C   LIG A   1      -8.566  -0.440 131.121  0.00  0.00    +0.038 C 
BRANCH  23  25
ATOM     25  C   LIG A   1      -7.281  -2.691 131.093  0.00  0.00    +0.034 C 
BRANCH  25  26
ATOM     26  C   LIG A   1      -6.988  -3.559 129.847  0.00  0.00    +0.031 C 
BRANCH  26  27
ATOM     27  C   LIG A   1      -7.392  -3.057 128.466  0.00  0.00    -0.027 C 
ATOM     28  C   LIG A   1      -8.527  -3.291 127.765  0.00  0.00    -0.076 C 
ATOM     29  C   LIG A   1      -9.528  -4.335 128.200  0.00  0.00    +0.038 C 
BRANCH  28  30
ATOM     30  C   LIG A   1      -8.958  -2.489 126.507  0.00  0.00    +0.034 C 
BRANCH  30  31
ATOM     31  C   LIG A   1      -8.764  -3.185 125.138  0.00  0.00    +0.031 C 
BRANCH  31  32
ATOM     32  C   LIG A   1      -7.863  -2.578 124.075  0.00  0.00    -0.028 C 
ATOM     33  C   LIG A   1      -6.515  -2.493 123.953  0.00  0.00    -0.080 C 
ATOM     34  C   LIG A   1      -5.448  -2.717 124.990  0.00  0.00    +0.038 C 
ATOM     35  C   LIG A   1      -5.930  -2.209 122.583  0.00  0.00    +0.038 C 
ENDBRANCH  31  32
ENDBRANCH  30  31
ENDBRANCH  28  30
ENDBRANCH  26  27
ENDBRANCH  25  26
ENDBRANCH  23  25
ENDBRANCH  21  22
ENDBRANCH  20  21
ENDBRANCH   2  20
TORSDOF 14
ENDMDL
MODEL 3
REMARK VINA RESULT:      -7.8      2.939      7.612
REMARK  Name = NuBBE_1646
REMARK  20 active torsions:
REMARK  status: ('A' for Active; 'I' for Inactive)
REMARK    1  A    between atoms: C_1  and  C_2
REMARK    2  A    between atoms: C_1  and  C_22
REMARK    3  A    between atoms: C_2  and  C_3
REMARK    4  A    between atoms: C_4  and  C_5
REMARK    5  A    between atoms: C_4  and  C_21
REMARK    6  A    between atoms: C_5  and  C_6
REMARK    7  A    between atoms: C_6  and  C_7
REMARK    8  A    between atoms: C_8  and  C_9
REMARK    9  A    between atoms: C_8  and  C_20
REMARK   10  A    between atoms: C_9  and  C_10
REMARK   11  A    between atoms: C_10  and  C_11
REMARK   12  A    between atoms: C_12  and  C_13
REMARK   13  A    between atoms: C_12  and  C_19
REMARK   14  A    between atoms: C_13  and  C_14
REMARK   15  A    between atoms: C_14  and  C_15
REMARK   16  A    between atoms: C_16  and  C_17
REMARK   17  A    between atoms: C_16  and  C_18
REMARK   18  A    between atoms: C_26  and  O_28
REMARK   19  A    between atoms: O_28  and  C_29
REMARK   20  A    between atoms: C_29  and  C_31
REMARK                            x       y       z     vdW  Elec       q    Type
REMARK                         _______ _______ _______ _____ _____    ______ ____
ROOT
ATOM      1  C   LIG A   1      -6.733  -2.455 126.462  0.00  0.00    -0.027 C 
ATOM      2  C   LIG A   1      -8.003  -2.633 126.891  0.00  0.00    -0.076 C 
ATOM      3  C   LIG A   1      -9.206  -2.217 126.068  0.00  0.00    +0.038 C 
ENDROOT
BRANCH   1   4
ATOM      4  C   LIG A   1      -6.213  -1.755 125.214  0.00  0.00    +0.032 C 
BRANCH   4   5
ATOM      5  C   LIG A   1      -5.343  -0.537 125.595  0.00  0.00    +0.043 C 
BRANCH   5   6
ATOM      6  C   LIG A   1      -6.032   0.805 125.757  0.00  0.00    -0.001 A 
ATOM      7  C   LIG A   1      -5.377   1.981 126.114  0.00  0.00    +0.139 A 
ATOM      8  C   LIG A   1      -6.050   3.183 126.230  0.00  0.00    +0.009 A 
ATOM      9  C   LIG A   1      -7.383   3.324 125.968  0.00  0.00    +0.054 A 
ATOM     10  C   LIG A   1      -8.060   2.210 125.510  0.00  0.00    +0.132 A 
ATOM     11  C   LIG A   1      -7.409   0.948 125.444  0.00  0.00    +0.053 A 
ATOM     12  C   LIG A   1      -5.136   4.254 126.672  0.00  0.00    +0.160 C 
ATOM     13  C   LIG A   1      -3.859   3.455 126.791  0.00  0.00    +0.317 C 
ATOM     14  O   LIG A   1      -2.805   3.916 127.191  0.00  0.00    -0.250 OA
ATOM     15  O   LIG A   1      -4.029   2.112 126.403  0.00  0.00    -0.425 OA
BRANCH  10  16
ATOM     16  O   LIG A   1      -9.367   2.313 125.012  0.00  0.00    -0.426 OA
BRANCH  16  17
ATOM     17  C   LIG A   1      -9.750   1.731 123.798  0.00  0.00    +0.309 C 
ATOM     18  O   LIG A   1     -10.633   0.892 123.596  0.00  0.00    -0.251 OA
ATOM     19  C   LIG A   1      -8.982   2.373 122.694  0.00  0.00    +0.136 C 
ENDBRANCH  16  17
ENDBRANCH  10  16
ENDBRANCH   5   6
ENDBRANCH   4   5
ENDBRANCH   1   4
BRANCH   2  20
ATOM     20  C   LIG A   1      -8.337  -3.270 128.261  0.00  0.00    +0.034 C 
BRANCH  20  21
ATOM     21  C   LIG A   1      -7.864  -2.519 129.545  0.00  0.00    +0.031 C 
BRANCH  21  22
ATOM     22  C   LIG A   1      -7.930  -0.996 129.470  0.00  0.00    -0.027 C 
ATOM     23  C   LIG A   1      -6.879  -0.142 129.384  0.00  0.00    -0.076 C 
ATOM     24  C   LIG A   1      -5.452  -0.637 129.349  0.00  0.00    +0.038 C 
BRANCH  23  25
ATOM     25  C   LIG A   1      -7.075   1.382 129.427  0.00  0.00    +0.034 C 
BRANCH  25  26
ATOM     26  C   LIG A   1      -8.472   1.907 129.021  0.00  0.00    +0.031 C 
BRANCH  26  27
ATOM     27  C   LIG A   1      -9.269   2.765 129.996  0.00  0.00    -0.027 C 
ATOM     28  C   LIG A   1      -9.391   4.112 130.053  0.00  0.00    -0.076 C 
ATOM     29  C   LIG A   1      -8.515   5.025 129.228  0.00  0.00    +0.038 C 
BRANCH  28  30
ATOM     30  C   LIG A   1     -10.462   4.858 130.895  0.00  0.00    +0.034 C 
BRANCH  30  31
ATOM     31  C   LIG A   1     -11.681   5.423 130.127  0.00  0.00    +0.031 C 
BRANCH  31  32
ATOM     32  C   LIG A   1     -12.061   6.890 130.239  0.00  0.00    -0.028 C 
ATOM     33  C   LIG A   1     -11.792   7.971 129.464  0.00  0.00    -0.080 C 
ATOM     34  C   LIG A   1     -10.768   8.131 128.375  0.00  0.00    +0.038 C 
ATOM     35  C   LIG A   1     -12.664   9.203 129.615  0.00  0.00    +0.038 C 
ENDBRANCH  31  32
ENDBRANCH  30  31
ENDBRANCH  28  30
ENDBRANCH  26  27
ENDBRANCH  25  26
ENDBRANCH  23  25
ENDBRANCH  21  22
ENDBRANCH  20  21
ENDBRANCH   2  20
TORSDOF 14
ENDMDL
MODEL 4
REMARK VINA RESULT:      -7.8      1.589      2.652
REMARK  Name = NuBBE_1646
REMARK  20 active torsions:
REMARK  status: ('A' for Active; 'I' for Inactive)
REMARK    1  A    between atoms: C_1  and  C_2
REMARK    2  A    between atoms: C_1  and  C_22
REMARK    3  A    between atoms: C_2  and  C_3
REMARK    4  A    between atoms: C_4  and  C_5
REMARK    5  A    between atoms: C_4  and  C_21
REMARK    6  A    between atoms: C_5  and  C_6
REMARK    7  A    between atoms: C_6  and  C_7
REMARK    8  A    between atoms: C_8  and  C_9
REMARK    9  A    between atoms: C_8  and  C_20
REMARK   10  A    between atoms: C_9  and  C_10
REMARK   11  A    between atoms: C_10  and  C_11
REMARK   12  A    between atoms: C_12  and  C_13
REMARK   13  A    between atoms: C_12  and  C_19
REMARK   14  A    between atoms: C_13  and  C_14
REMARK   15  A    between atoms: C_14  and  C_15
REMARK   16  A    between atoms: C_16  and  C_17
REMARK   17  A    between atoms: C_16  and  C_18
REMARK   18  A    between atoms: C_26  and  O_28
REMARK   19  A    between atoms: O_28  and  C_29
REMARK   20  A    between atoms: C_29  and  C_31
REMARK                            x       y       z     vdW  Elec       q    Type
REMARK                         _______ _______ _______ _____ _____    ______ ____
ROOT
ATOM      1  C   LIG A   1      -9.178   0.338 131.927  0.00  0.00    -0.027 C 
ATOM      2  C   LIG A   1      -7.921  -0.155 131.845  0.00  0.00    -0.076 C 
ATOM      3  C   LIG A   1      -6.693   0.716 132.012  0.00  0.00    +0.038 C 
ENDROOT
BRANCH   1   4
ATOM      4  C   LIG A   1      -9.655   1.776 132.079  0.00  0.00    +0.032 C 
BRANCH   4   5
ATOM      5  C   LIG A   1      -9.710   2.480 130.705  0.00  0.00    +0.043 C 
BRANCH   5   6
ATOM      6  C   LIG A   1      -9.842   3.992 130.687  0.00  0.00    -0.001 A 
ATOM      7  C   LIG A   1      -8.777   4.871 130.864  0.00  0.00    +0.139 A 
ATOM      8  C   LIG A   1      -8.948   6.242 130.819  0.00  0.00    +0.009 A 
ATOM      9  C   LIG A   1     -10.150   6.838 130.562  0.00  0.00    +0.054 A 
ATOM     10  C   LIG A   1     -11.219   6.011 130.276  0.00  0.00    +0.132 A 
ATOM     11  C   LIG A   1     -11.087   4.600 130.379  0.00  0.00    +0.053 A 
ATOM     12  C   LIG A   1      -7.676   6.938 131.091  0.00  0.00    +0.160 C 
ATOM     13  C   LIG A   1      -6.780   5.740 131.301  0.00  0.00    +0.317 C 
ATOM     14  O   LIG A   1      -5.605   5.819 131.615  0.00  0.00    -0.250 OA
ATOM     15  O   LIG A   1      -7.459   4.521 131.109  0.00  0.00    -0.425 OA
BRANCH  10  16
ATOM     16  O   LIG A   1     -12.427   6.534 129.790  0.00  0.00    -0.426 OA
BRANCH  16  17
ATOM     17  C   LIG A   1     -12.525   7.134 128.529  0.00  0.00    +0.309 C 
ATOM     18  O   LIG A   1     -12.347   6.620 127.421  0.00  0.00    -0.251 OA
ATOM     19  C   LIG A   1     -13.008   8.534 128.699  0.00  0.00    +0.136 C 
ENDBRANCH  16  17
ENDBRANCH  10  16
ENDBRANCH   5   6
ENDBRANCH   4   5
ENDBRANCH   1   4
BRANCH   2  20
ATOM     20  C   LIG A   1      -7.630  -1.649 131.567  0.00  0.00    +0.034 C 
BRANCH  20  21
ATOM     21  C   LIG A   1      -7.523  -2.102 130.078  0.00  0.00    +0.031 C 
BRANCH  21  22
ATOM     22  C   LIG A   1      -7.115  -1.010 129.093  0.00  0.00    -0.027 C 
ATOM     23  C   LIG A   1      -6.236  -1.130 128.067  0.00  0.00    -0.076 C 
ATOM     24  C   LIG A   1      -5.530  -2.434 127.773  0.00  0.00    +0.038 C 
BRANCH  23  25
ATOM     25  C   LIG A   1      -5.825   0.080 127.212  0.00  0.00    +0.034 C 
BRANCH  25  26
ATOM     26  C   LIG A   1      -5.232  -0.234 125.818  0.00  0.00    +0.031 C 
BRANCH  26  27
ATOM     27  C   LIG A   1      -6.164  -0.567 124.659  0.00  0.00    -0.027 C 
ATOM     28  C   LIG A   1      -6.163  -1.644 123.839  0.00  0.00    -0.076 C 
ATOM     29  C   LIG A   1      -5.018  -2.629 123.824  0.00  0.00    +0.038 C 
BRANCH  28  30
ATOM     30  C   LIG A   1      -7.335  -2.024 122.895  0.00  0.00    +0.034 C 
BRANCH  30  31
ATOM     31  C   LIG A   1      -8.294  -3.135 123.388  0.00  0.00    +0.031 C 
BRANCH  31  32
ATOM     32  C   LIG A   1      -8.357  -3.514 124.859  0.00  0.00    -0.028 C 
ATOM     33  C   LIG A   1      -8.845  -2.876 125.952  0.00  0.00    -0.080 C 
ATOM     34  C   LIG A   1      -9.230  -1.432 126.120  0.00  0.00    +0.038 C 
ATOM     35  C   LIG A   1      -9.138  -3.694 127.195  0.00  0.00    +0.038 C 
ENDBRANCH  31  32
ENDBRANCH  30  31
ENDBRANCH  28  30
ENDBRANCH  26  27
ENDBRANCH  25  26
ENDBRANCH  23  25
ENDBRANCH  21  22
ENDBRANCH  20  21
ENDBRANCH   2  20
TORSDOF 14
ENDMDL
MODEL 5
REMARK VINA RESULT:      -7.7      3.552      7.292
REMARK  Name = NuBBE_1646
REMARK  20 active torsions:
REMARK  status: ('A' for Active; 'I' for Inactive)
REMARK    1  A    between atoms: C_1  and  C_2
REMARK    2  A    between atoms: C_1  and  C_22
REMARK    3  A    between atoms: C_2  and  C_3
REMARK    4  A    between atoms: C_4  and  C_5
REMARK    5  A    between atoms: C_4  and  C_21
REMARK    6  A    between atoms: C_5  and  C_6
REMARK    7  A    between atoms: C_6  and  C_7
REMARK    8  A    between atoms: C_8  and  C_9
REMARK    9  A    between atoms: C_8  and  C_20
REMARK   10  A    between atoms: C_9  and  C_10
REMARK   11  A    between atoms: C_10  and  C_11
REMARK   12  A    between atoms: C_12  and  C_13
REMARK   13  A    between atoms: C_12  and  C_19
REMARK   14  A    between atoms: C_13  and  C_14
REMARK   15  A    between atoms: C_14  and  C_15
REMARK   16  A    between atoms: C_16  and  C_17
REMARK   17  A    between atoms: C_16  and  C_18
REMARK   18  A    between atoms: C_26  and  O_28
REMARK   19  A    between atoms: O_28  and  C_29
REMARK   20  A    between atoms: C_29  and  C_31
REMARK                            x       y       z     vdW  Elec       q    Type
REMARK                         _______ _______ _______ _____ _____    ______ ____
ROOT
ATOM      1  C   LIG A   1      -7.525  -2.848 126.176  0.00  0.00    -0.027 C 
ATOM      2  C   LIG A   1      -6.383  -2.342 125.656  0.00  0.00    -0.076 C 
ATOM      3  C   LIG A   1      -5.566  -1.282 126.366  0.00  0.00    +0.038 C 
ENDROOT
BRANCH   1   4
ATOM      4  C   LIG A   1      -8.286  -2.450 127.433  0.00  0.00    +0.032 C 
BRANCH   4   5
ATOM      5  C   LIG A   1      -7.868  -3.337 128.626  0.00  0.00    +0.043 C 
BRANCH   5   6
ATOM      6  C   LIG A   1      -7.147  -2.674 129.786  0.00  0.00    -0.001 A 
ATOM      7  C   LIG A   1      -5.762  -2.656 129.937  0.00  0.00    +0.139 A 
ATOM      8  C   LIG A   1      -5.154  -2.021 131.003  0.00  0.00    +0.009 A 
ATOM      9  C   LIG A   1      -5.847  -1.334 131.960  0.00  0.00    +0.054 A 
ATOM     10  C   LIG A   1      -7.215  -1.233 131.801  0.00  0.00    +0.132 A 
ATOM     11  C   LIG A   1      -7.873  -1.930 130.752  0.00  0.00    +0.053 A 
ATOM     12  C   LIG A   1      -3.690  -2.199 130.954  0.00  0.00    +0.160 C 
ATOM     13  C   LIG A   1      -3.587  -3.039 129.701  0.00  0.00    +0.317 C 
ATOM     14  O   LIG A   1      -2.540  -3.492 129.274  0.00  0.00    -0.250 OA
ATOM     15  O   LIG A   1      -4.839  -3.251 129.093  0.00  0.00    -0.425 OA
BRANCH  10  16
ATOM     16  O   LIG A   1      -7.974  -0.371 132.607  0.00  0.00    -0.426 OA
BRANCH  16  17
ATOM     17  C   LIG A   1      -8.132   0.987 132.304  0.00  0.00    +0.309 C 
ATOM     18  O   LIG A   1      -7.269   1.870 132.276  0.00  0.00    -0.251 OA
ATOM     19  C   LIG A   1      -9.543   1.226 131.889  0.00  0.00    +0.136 C 
ENDBRANCH  16  17
ENDBRANCH  10  16
ENDBRANCH   5   6
ENDBRANCH   4   5
ENDBRANCH   1   4
BRANCH   2  20
ATOM     20  C   LIG A   1      -5.818  -2.797 124.289  0.00  0.00    +0.034 C 
BRANCH  20  21
ATOM     21  C   LIG A   1      -6.199  -1.956 123.031  0.00  0.00    +0.031 C 
BRANCH  21  22
ATOM     22  C   LIG A   1      -6.953  -0.661 123.318  0.00  0.00    -0.027 C 
ATOM     23  C   LIG A   1      -8.299  -0.492 123.332  0.00  0.00    -0.076 C 
ATOM     24  C   LIG A   1      -9.247  -1.635 123.051  0.00  0.00    +0.038 C 
BRANCH  23  25
ATOM     25  C   LIG A   1      -8.935   0.894 123.525  0.00  0.00    +0.034 C 
BRANCH  25  26
ATOM     26  C   LIG A   1      -9.771   1.092 124.812  0.00  0.00    +0.031 C 
BRANCH  26  27
ATOM     27  C   LIG A   1      -9.149   0.792 126.170  0.00  0.00    -0.027 C 
ATOM     28  C   LIG A   1      -8.373   1.580 126.952  0.00  0.00    -0.076 C 
ATOM     29  C   LIG A   1      -7.801   2.883 126.446  0.00  0.00    +0.038 C 
BRANCH  28  30
ATOM     30  C   LIG A   1      -8.048   1.283 128.441  0.00  0.00    +0.034 C 
BRANCH  30  31
ATOM     31  C   LIG A   1      -6.611   0.802 128.757  0.00  0.00    +0.031 C 
BRANCH  31  32
ATOM     32  C   LIG A   1      -5.533   1.788 129.173  0.00  0.00    -0.028 C 
ATOM     33  C   LIG A   1      -4.611   2.493 128.471  0.00  0.00    -0.080 C 
ATOM     34  C   LIG A   1      -4.149   2.307 127.051  0.00  0.00    +0.038 C 
ATOM     35  C   LIG A   1      -3.970   3.700 129.127  0.00  0.00    +0.038 C 
ENDBRANCH  31  32
ENDBRANCH  30  31
ENDBRANCH  28  30
ENDBRANCH  26  27
ENDBRANCH  25  26
ENDBRANCH  23  25
ENDBRANCH  21  22
ENDBRANCH  20  21
ENDBRANCH   2  20
TORSDOF 14
ENDMDL
MODEL 6
REMARK VINA RESULT:      -7.6      4.032      8.087
REMARK  Name = NuBBE_1646
REMARK  20 active torsions:
REMARK  status: ('A' for Active; 'I' for Inactive)
REMARK    1  A    between atoms: C_1  and  C_2
REMARK    2  A    between atoms: C_1  and  C_22
REMARK    3  A    between atoms: C_2  and  C_3
REMARK    4  A    between atoms: C_4  and  C_5
REMARK    5  A    between atoms: C_4  and  C_21
REMARK    6  A    between atoms: C_5  and  C_6
REMARK    7  A    between atoms: C_6  and  C_7
REMARK    8  A    between atoms: C_8  and  C_9
REMARK    9  A    between atoms: C_8  and  C_20
REMARK   10  A    between atoms: C_9  and  C_10
REMARK   11  A    between atoms: C_10  and  C_11
REMARK   12  A    between atoms: C_12  and  C_13
REMARK   13  A    between atoms: C_12  and  C_19
REMARK   14  A    between atoms: C_13  and  C_14
REMARK   15  A    between atoms: C_14  and  C_15
REMARK   16  A    between atoms: C_16  and  C_17
REMARK   17  A    between atoms: C_16  and  C_18
REMARK   18  A    between atoms: C_26  and  O_28
REMARK   19  A    between atoms: O_28  and  C_29
REMARK   20  A    between atoms: C_29  and  C_31
REMARK                            x       y       z     vdW  Elec       q    Type
REMARK                         _______ _______ _______ _____ _____    ______ ____
ROOT
ATOM      1  C   LIG A   1      -7.351  -2.786 126.365  0.00  0.00    -0.027 C 
ATOM      2  C   LIG A   1      -6.154  -2.262 126.012  0.00  0.00    -0.076 C 
ATOM      3  C   LIG A   1      -5.436  -1.230 126.858  0.00  0.00    +0.038 C 
ENDROOT
BRANCH   1   4
ATOM      4  C   LIG A   1      -8.265  -2.433 127.530  0.00  0.00    +0.032 C 
BRANCH   4   5
ATOM      5  C   LIG A   1      -7.992  -3.359 128.736  0.00  0.00    +0.043 C 
BRANCH   5   6
ATOM      6  C   LIG A   1      -7.079  -2.844 129.834  0.00  0.00    -0.001 A 
ATOM      7  C   LIG A   1      -7.420  -1.825 130.719  0.00  0.00    +0.139 A 
ATOM      8  C   LIG A   1      -6.558  -1.406 131.714  0.00  0.00    +0.009 A 
ATOM      9  C   LIG A   1      -5.336  -1.975 131.936  0.00  0.00    +0.054 A 
ATOM     10  C   LIG A   1      -4.991  -3.059 131.153  0.00  0.00    +0.132 A 
ATOM     11  C   LIG A   1      -5.829  -3.469 130.080  0.00  0.00    +0.053 A 
ATOM     12  C   LIG A   1      -7.139  -0.280 132.472  0.00  0.00    +0.160 C 
ATOM     13  C   LIG A   1      -8.450  -0.138 131.733  0.00  0.00    +0.317 C 
ATOM     14  O   LIG A   1      -9.273   0.726 131.974  0.00  0.00    -0.250 OA
ATOM     15  O   LIG A   1      -8.605  -1.109 130.724  0.00  0.00    -0.425 OA
BRANCH  10  16
ATOM     16  O   LIG A   1      -3.862  -3.837 131.451  0.00  0.00    -0.426 OA
BRANCH  16  17
ATOM     17  C   LIG A   1      -3.545  -4.218 132.760  0.00  0.00    +0.309 C 
ATOM     18  O   LIG A   1      -2.816  -3.639 133.571  0.00  0.00    -0.251 OA
ATOM     19  C   LIG A   1      -4.334  -5.433 133.112  0.00  0.00    +0.136 C 
ENDBRANCH  16  17
ENDBRANCH  10  16
ENDBRANCH   5   6
ENDBRANCH   4   5
ENDBRANCH   1   4
BRANCH   2  20
ATOM     20  C   LIG A   1      -5.419  -2.667 124.712  0.00  0.00    +0.034 C 
BRANCH  20  21
ATOM     21  C   LIG A   1      -6.268  -2.796 123.409  0.00  0.00    +0.031 C 
BRANCH  21  22
ATOM     22  C   LIG A   1      -7.256  -1.659 123.162  0.00  0.00    -0.027 C 
ATOM     23  C   LIG A   1      -8.609  -1.754 123.127  0.00  0.00    -0.076 C 
ATOM     24  C   LIG A   1      -9.321  -3.069 123.344  0.00  0.00    +0.038 C 
BRANCH  23  25
ATOM     25  C   LIG A   1      -9.492  -0.551 122.755  0.00  0.00    +0.034 C 
BRANCH  25  26
ATOM     26  C   LIG A   1      -9.388   0.687 123.677  0.00  0.00    +0.031 C 
BRANCH  26  27
ATOM     27  C   LIG A   1      -9.236   0.496 125.182  0.00  0.00    -0.027 C 
ATOM     28  C   LIG A   1      -8.321   1.028 126.026  0.00  0.00    -0.076 C 
ATOM     29  C   LIG A   1      -7.105   1.766 125.517  0.00  0.00    +0.038 C 
BRANCH  28  30
ATOM     30  C   LIG A   1      -8.444   1.005 127.574  0.00  0.00    +0.034 C 
BRANCH  30  31
ATOM     31  C   LIG A   1      -7.494   1.940 128.361  0.00  0.00    +0.031 C 
BRANCH  31  32
ATOM     32  C   LIG A   1      -6.342   1.375 129.176  0.00  0.00    -0.028 C 
ATOM     33  C   LIG A   1      -5.008   1.621 129.175  0.00  0.00    -0.080 C 
ATOM     34  C   LIG A   1      -4.172   2.334 128.148  0.00  0.00    +0.038 C 
ATOM     35  C   LIG A   1      -4.197   1.210 130.389  0.00  0.00    +0.038 C 
ENDBRANCH  31  32
ENDBRANCH  30  31
ENDBRANCH  28  30
ENDBRANCH  26  27
ENDBRANCH  25  26
ENDBRANCH  23  25
ENDBRANCH  21  22
ENDBRANCH  20  21
ENDBRANCH   2  20
TORSDOF 14
ENDMDL
MODEL 7
REMARK VINA RESULT:      -7.6      2.845      8.033
REMARK  Name = NuBBE_1646
REMARK  20 active torsions:
REMARK  status: ('A' for Active; 'I' for Inactive)
REMARK    1  A    between atoms: C_1  and  C_2
REMARK    2  A    between atoms: C_1  and  C_22
REMARK    3  A    between atoms: C_2  and  C_3
REMARK    4  A    between atoms: C_4  and  C_5
REMARK    5  A    between atoms: C_4  and  C_21
REMARK    6  A    between atoms: C_5  and  C_6
REMARK    7  A    between atoms: C_6  and  C_7
REMARK    8  A    between atoms: C_8  and  C_9
REMARK    9  A    between atoms: C_8  and  C_20
REMARK   10  A    between atoms: C_9  and  C_10
REMARK   11  A    between atoms: C_10  and  C_11
REMARK   12  A    between atoms: C_12  and  C_13
REMARK   13  A    between atoms: C_12  and  C_19
REMARK   14  A    between atoms: C_13  and  C_14
REMARK   15  A    between atoms: C_14  and  C_15
REMARK   16  A    between atoms: C_16  and  C_17
REMARK   17  A    between atoms: C_16  and  C_18
REMARK   18  A    between atoms: C_26  and  O_28
REMARK   19  A    between atoms: O_28  and  C_29
REMARK   20  A    between atoms: C_29  and  C_31
REMARK                            x       y       z     vdW  Elec       q    Type
REMARK                         _______ _______ _______ _____ _____    ______ ____
ROOT
ATOM      1  C   LIG A   1      -8.343  -2.960 129.120  0.00  0.00    -0.027 C 
ATOM      2  C   LIG A   1      -7.412  -3.059 130.097  0.00  0.00    -0.076 C 
ATOM      3  C   LIG A   1      -6.176  -3.924 129.957  0.00  0.00    +0.038 C 
ENDROOT
BRANCH   1   4
ATOM      4  C   LIG A   1      -8.453  -3.704 127.797  0.00  0.00    +0.032 C 
BRANCH   4   5
ATOM      5  C   LIG A   1      -7.803  -2.888 126.658  0.00  0.00    +0.043 C 
BRANCH   5   6
ATOM      6  C   LIG A   1      -8.067  -1.394 126.615  0.00  0.00    -0.001 A 
ATOM      7  C   LIG A   1      -7.263  -0.441 127.238  0.00  0.00    +0.139 A 
ATOM      8  C   LIG A   1      -7.537   0.911 127.152  0.00  0.00    +0.009 A 
ATOM      9  C   LIG A   1      -8.578   1.420 126.429  0.00  0.00    +0.054 A 
ATOM     10  C   LIG A   1      -9.345   0.526 125.707  0.00  0.00    +0.132 A 
ATOM     11  C   LIG A   1      -9.127  -0.873 125.828  0.00  0.00    +0.053 A 
ATOM     12  C   LIG A   1      -6.568   1.693 127.944  0.00  0.00    +0.160 C 
ATOM     13  C   LIG A   1      -5.724   0.562 128.486  0.00  0.00    +0.317 C 
ATOM     14  O   LIG A   1      -4.799   0.719 129.262  0.00  0.00    -0.250 OA
ATOM     15  O   LIG A   1      -6.138  -0.695 128.004  0.00  0.00    -0.425 OA
BRANCH  10  16
ATOM     16  O   LIG A   1     -10.289   0.975 124.771  0.00  0.00    -0.426 OA
BRANCH  16  17
ATOM     17  C   LIG A   1      -9.925   1.391 123.486  0.00  0.00    +0.309 C 
ATOM     18  O   LIG A   1      -9.333   2.423 123.154  0.00  0.00    -0.251 OA
ATOM     19  C   LIG A   1     -10.267   0.313 122.516  0.00  0.00    +0.136 C 
ENDBRANCH  16  17
ENDBRANCH  10  16
ENDBRANCH   5   6
ENDBRANCH   4   5
ENDBRANCH   1   4
BRANCH   2  20
ATOM     20  C   LIG A   1      -7.532  -2.302 131.441  0.00  0.00    +0.034 C 
BRANCH  20  21
ATOM     21  C   LIG A   1      -7.294  -0.760 131.428  0.00  0.00    +0.031 C 
BRANCH  21  22
ATOM     22  C   LIG A   1      -8.556   0.093 131.322  0.00  0.00    -0.027 C 
ATOM     23  C   LIG A   1      -8.803   1.259 131.970  0.00  0.00    -0.076 C 
ATOM     24  C   LIG A   1      -7.796   1.873 132.915  0.00  0.00    +0.038 C 
BRANCH  23  25
ATOM     25  C   LIG A   1     -10.164   1.967 131.863  0.00  0.00    +0.034 C 
BRANCH  25  26
ATOM     26  C   LIG A   1     -10.302   3.026 130.745  0.00  0.00    +0.031 C 
BRANCH  26  27
ATOM     27  C   LIG A   1     -10.005   4.489 131.051  0.00  0.00    -0.027 C 
ATOM     28  C   LIG A   1      -9.020   5.284 130.571  0.00  0.00    -0.076 C 
ATOM     29  C   LIG A   1      -7.867   4.725 129.772  0.00  0.00    +0.038 C 
BRANCH  28  30
ATOM     30  C   LIG A   1      -8.995   6.830 130.718  0.00  0.00    +0.034 C 
BRANCH  30  31
ATOM     31  C   LIG A   1      -9.737   7.645 129.631  0.00  0.00    +0.031 C 
BRANCH  31  32
ATOM     32  C   LIG A   1     -11.035   7.136 129.026  0.00  0.00    -0.028 C 
ATOM     33  C   LIG A   1     -12.307   7.080 129.494  0.00  0.00    -0.080 C 
ATOM     34  C   LIG A   1     -12.812   7.237 130.902  0.00  0.00    +0.038 C 
ATOM     35  C   LIG A   1     -13.437   6.912 128.496  0.00  0.00    +0.038 C 
ENDBRANCH  31  32
ENDBRANCH  30  31
ENDBRANCH  28  30
ENDBRANCH  26  27
ENDBRANCH  25  26
ENDBRANCH  23  25
ENDBRANCH  21  22
ENDBRANCH  20  21
ENDBRANCH   2  20
TORSDOF 14
ENDMDL
MODEL 8
REMARK VINA RESULT:      -7.6      1.685      4.340
REMARK  Name = NuBBE_1646
REMARK  20 active torsions:
REMARK  status: ('A' for Active; 'I' for Inactive)
REMARK    1  A    between atoms: C_1  and  C_2
REMARK    2  A    between atoms: C_1  and  C_22
REMARK    3  A    between atoms: C_2  and  C_3
REMARK    4  A    between atoms: C_4  and  C_5
REMARK    5  A    between atoms: C_4  and  C_21
REMARK    6  A    between atoms: C_5  and  C_6
REMARK    7  A    between atoms: C_6  and  C_7
REMARK    8  A    between atoms: C_8  and  C_9
REMARK    9  A    between atoms: C_8  and  C_20
REMARK   10  A    between atoms: C_9  and  C_10
REMARK   11  A    between atoms: C_10  and  C_11
REMARK   12  A    between atoms: C_12  and  C_13
REMARK   13  A    between atoms: C_12  and  C_19
REMARK   14  A    between atoms: C_13  and  C_14
REMARK   15  A    between atoms: C_14  and  C_15
REMARK   16  A    between atoms: C_16  and  C_17
REMARK   17  A    between atoms: C_16  and  C_18
REMARK   18  A    between atoms: C_26  and  O_28
REMARK   19  A    between atoms: O_28  and  C_29
REMARK   20  A    between atoms: C_29  and  C_31
REMARK                            x       y       z     vdW  Elec       q    Type
REMARK                         _______ _______ _______ _____ _____    ______ ____
ROOT
ATOM      1  C   LIG A   1      -8.695   2.509 132.363  0.00  0.00    -0.027 C 
ATOM      2  C   LIG A   1      -9.127   2.304 131.098  0.00  0.00    -0.076 C 
ATOM      3  C   LIG A   1     -10.400   2.926 130.562  0.00  0.00    +0.038 C 
ENDROOT
BRANCH   1   4
ATOM      4  C   LIG A   1      -9.361   3.250 133.514  0.00  0.00    +0.032 C 
BRANCH   4   5
ATOM      5  C   LIG A   1      -8.713   4.638 133.715  0.00  0.00    +0.043 C 
BRANCH   5   6
ATOM      6  C   LIG A   1      -8.611   5.556 132.511  0.00  0.00    -0.001 A 
ATOM      7  C   LIG A   1      -9.707   6.138 131.878  0.00  0.00    +0.139 A 
ATOM      8  C   LIG A   1      -9.558   6.983 130.795  0.00  0.00    +0.009 A 
ATOM      9  C   LIG A   1      -8.342   7.345 130.288  0.00  0.00    +0.054 A 
ATOM     10  C   LIG A   1      -7.219   6.878 130.943  0.00  0.00    +0.132 A 
ATOM     11  C   LIG A   1      -7.342   5.956 132.018  0.00  0.00    +0.053 A 
ATOM     12  C   LIG A   1     -10.873   7.414 130.282  0.00  0.00    +0.160 C 
ATOM     13  C   LIG A   1     -11.769   6.669 131.244  0.00  0.00    +0.317 C 
ATOM     14  O   LIG A   1     -12.985   6.673 131.180  0.00  0.00    -0.250 OA
ATOM     15  O   LIG A   1     -11.038   5.956 132.214  0.00  0.00    -0.425 OA
BRANCH  10  16
ATOM     16  O   LIG A   1      -5.943   7.370 130.630  0.00  0.00    -0.426 OA
BRANCH  16  17
ATOM     17  C   LIG A   1      -4.799   6.566 130.690  0.00  0.00    +0.309 C 
ATOM     18  O   LIG A   1      -4.521   5.577 130.004  0.00  0.00    -0.251 OA
ATOM     19  C   LIG A   1      -3.849   7.154 131.676  0.00  0.00    +0.136 C 
ENDBRANCH  16  17
ENDBRANCH  10  16
ENDBRANCH   5   6
ENDBRANCH   4   5
ENDBRANCH   1   4
BRANCH   2  20
ATOM     20  C   LIG A   1      -8.361   1.412 130.091  0.00  0.00    +0.034 C 
BRANCH  20  21
ATOM     21  C   LIG A   1      -8.032   2.017 128.691  0.00  0.00    +0.031 C 
BRANCH  21  22
ATOM     22  C   LIG A   1      -8.729   1.344 127.512  0.00  0.00    -0.027 C 
ATOM     23  C   LIG A   1      -8.626   1.690 126.204  0.00  0.00    -0.076 C 
ATOM     24  C   LIG A   1      -7.757   2.841 125.752  0.00  0.00    +0.038 C 
BRANCH  23  25
ATOM     25  C   LIG A   1      -9.470   1.001 125.119  0.00  0.00    +0.034 C 
BRANCH  25  26
ATOM     26  C   LIG A   1      -8.821   0.875 123.721  0.00  0.00    +0.031 C 
BRANCH  26  27
ATOM     27  C   LIG A   1      -7.629  -0.055 123.524  0.00  0.00    -0.027 C 
ATOM     28  C   LIG A   1      -7.610  -1.367 123.189  0.00  0.00    -0.076 C 
ATOM     29  C   LIG A   1      -8.869  -2.201 123.176  0.00  0.00    +0.038 C 
BRANCH  28  30
ATOM     30  C   LIG A   1      -6.341  -2.131 122.723  0.00  0.00    +0.034 C 
BRANCH  30  31
ATOM     31  C   LIG A   1      -5.288  -2.458 123.809  0.00  0.00    +0.031 C 
BRANCH  31  32
ATOM     32  C   LIG A   1      -5.682  -2.551 125.274  0.00  0.00    -0.028 C 
ATOM     33  C   LIG A   1      -5.812  -1.620 126.252  0.00  0.00    -0.080 C 
ATOM     34  C   LIG A   1      -5.319  -0.200 126.286  0.00  0.00    +0.038 C 
ATOM     35  C   LIG A   1      -6.626  -1.973 127.482  0.00  0.00    +0.038 C 
ENDBRANCH  31  32
ENDBRANCH  30  31
ENDBRANCH  28  30
ENDBRANCH  26  27
ENDBRANCH  25  26
ENDBRANCH  23  25
ENDBRANCH  21  22
ENDBRANCH  20  21
ENDBRANCH   2  20
TORSDOF 14
ENDMDL
MODEL 9
REMARK VINA RESULT:      -7.6      3.167      5.726
REMARK  Name = NuBBE_1646
REMARK  20 active torsions:
REMARK  status: ('A' for Active; 'I' for Inactive)
REMARK    1  A    between atoms: C_1  and  C_2
REMARK    2  A    between atoms: C_1  and  C_22
REMARK    3  A    between atoms: C_2  and  C_3
REMARK    4  A    between atoms: C_4  and  C_5
REMARK    5  A    between atoms: C_4  and  C_21
REMARK    6  A    between atoms: C_5  and  C_6
REMARK    7  A    between atoms: C_6  and  C_7
REMARK    8  A    between atoms: C_8  and  C_9
REMARK    9  A    between atoms: C_8  and  C_20
REMARK   10  A    between atoms: C_9  and  C_10
REMARK   11  A    between atoms: C_10  and  C_11
REMARK   12  A    between atoms: C_12  and  C_13
REMARK   13  A    between atoms: C_12  and  C_19
REMARK   14  A    between atoms: C_13  and  C_14
REMARK   15  A    between atoms: C_14  and  C_15
REMARK   16  A    between atoms: C_16  and  C_17
REMARK   17  A    between atoms: C_16  and  C_18
REMARK   18  A    between atoms: C_26  and  O_28
REMARK   19  A    between atoms: O_28  and  C_29
REMARK   20  A    between atoms: C_29  and  C_31
REMARK                            x       y       z     vdW  Elec       q    Type
REMARK                         _______ _______ _______ _____ _____    ______ ____
ROOT
ATOM      1  C   LIG A   1      -7.461   2.548 130.796  0.00  0.00    -0.027 C 
ATOM      2  C   LIG A   1      -6.389   1.797 131.140  0.00  0.00    -0.076 C 
ATOM      3  C   LIG A   1      -4.986   2.117 130.665  0.00  0.00    +0.038 C 
ENDROOT
BRANCH   1   4
ATOM      4  C   LIG A   1      -7.559   3.731 129.843  0.00  0.00    +0.032 C 
BRANCH   4   5
ATOM      5  C   LIG A   1      -7.984   3.261 128.434  0.00  0.00    +0.043 C 
BRANCH   5   6
ATOM      6  C   LIG A   1      -7.017   3.490 127.287  0.00  0.00    -0.001 A 
ATOM      7  C   LIG A   1      -7.368   3.407 125.942  0.00  0.00    +0.139 A 
ATOM      8  C   LIG A   1      -6.452   3.644 124.934  0.00  0.00    +0.009 A 
ATOM      9  C   LIG A   1      -5.158   4.013 125.170  0.00  0.00    +0.054 A 
ATOM     10  C   LIG A   1      -4.785   4.212 126.485  0.00  0.00    +0.132 A 
ATOM     11  C   LIG A   1      -5.687   3.912 127.543  0.00  0.00    +0.053 A 
ATOM     12  C   LIG A   1      -7.065   3.435 123.608  0.00  0.00    +0.160 C 
ATOM     13  C   LIG A   1      -8.457   3.038 124.041  0.00  0.00    +0.317 C 
ATOM     14  O   LIG A   1      -9.339   2.706 123.269  0.00  0.00    -0.250 OA
ATOM     15  O   LIG A   1      -8.616   3.079 125.440  0.00  0.00    -0.425 OA
BRANCH  10  16
ATOM     16  O   LIG A   1      -3.552   4.798 126.807  0.00  0.00    -0.426 OA
BRANCH  16  17
ATOM     17  C   LIG A   1      -2.660   4.210 127.711  0.00  0.00    +0.309 C 
ATOM     18  O   LIG A   1      -2.525   4.446 128.916  0.00  0.00    -0.251 OA
ATOM     19  C   LIG A   1      -1.922   3.117 127.017  0.00  0.00    +0.136 C 
ENDBRANCH  16  17
ENDBRANCH  10  16
ENDBRANCH   5   6
ENDBRANCH   4   5
ENDBRANCH   1   4
BRANCH   2  20
ATOM     20  C   LIG A   1      -6.505   0.545 132.041  0.00  0.00    +0.034 C 
BRANCH  20  21
ATOM     21  C   LIG A   1      -7.827  -0.281 131.969  0.00  0.00    +0.031 C 
BRANCH  21  22
ATOM     22  C   LIG A   1      -7.709  -1.639 131.283  0.00  0.00    -0.027 C 
ATOM     23  C   LIG A   1      -7.647  -1.871 129.948  0.00  0.00    -0.076 C 
ATOM     24  C   LIG A   1      -7.689  -0.744 128.942  0.00  0.00    +0.038 C 
BRANCH  23  25
ATOM     25  C   LIG A   1      -7.643  -3.299 129.377  0.00  0.00    +0.034 C 
BRANCH  25  26
ATOM     26  C   LIG A   1      -8.776  -3.645 128.384  0.00  0.00    +0.031 C 
BRANCH  26  27
ATOM     27  C   LIG A   1      -8.432  -4.020 126.947  0.00  0.00    -0.027 C 
ATOM     28  C   LIG A   1      -8.587  -3.300 125.811  0.00  0.00    -0.076 C 
ATOM     29  C   LIG A   1      -9.381  -2.015 125.787  0.00  0.00    +0.038 C 
BRANCH  28  30
ATOM     30  C   LIG A   1      -7.927  -3.660 124.452  0.00  0.00    +0.034 C 
BRANCH  30  31
ATOM     31  C   LIG A   1      -6.398  -3.448 124.344  0.00  0.00    +0.031 C 
BRANCH  31  32
ATOM     32  C   LIG A   1      -5.729  -2.248 124.992  0.00  0.00    -0.028 C 
ATOM     33  C   LIG A   1      -5.953  -0.913 124.905  0.00  0.00    -0.080 C 
ATOM     34  C   LIG A   1      -6.762  -0.147 123.894  0.00  0.00    +0.038 C 
ATOM     35  C   LIG A   1      -5.399  -0.014 125.994  0.00  0.00    +0.038 C 
ENDBRANCH  31  32
ENDBRANCH  30  31
ENDBRANCH  28  30
ENDBRANCH  26  27
ENDBRANCH  25  26
ENDBRANCH  23  25
ENDBRANCH  21  22
ENDBRANCH  20  21
ENDBRANCH   2  20
TORSDOF 14
ENDMDL
