MODEL 1
REMARK VINA RESULT:      -7.5      0.000      0.000
REMARK  Name = NuBBE_1274
REMARK  4 active torsions:
REMARK  status: ('A' for Active; 'I' for Inactive)
REMARK    1  A    between atoms: C_12  and  O_14
REMARK    2  A    between atoms: C_15  and  O_17
REMARK    3  A    between atoms: C_18  and  C_19
REMARK    4  A    between atoms: C_18  and  C_20
REMARK                            x       y       z     vdW  Elec       q    Type
REMARK                         _______ _______ _______ _____ _____    ______ ____
ROOT
ATOM      1  O   LIG A   1     -11.377   7.253 126.048  0.00  0.00    -0.245 OA
ATOM      2  C   LIG A   1     -11.154   7.513 127.209  0.00  0.00    +0.337 A 
ATOM      3  C   LIG A   1     -12.014   8.460 127.962  0.00  0.00    +0.092 A 
ATOM      4  C   LIG A   1     -12.008   8.492 129.297  0.00  0.00    +0.018 A 
ATOM      5  O   LIG A   1     -10.051   7.021 127.920  0.00  0.00    -0.422 OA
ATOM      6  C   LIG A   1     -10.047   7.035 129.355  0.00  0.00    +0.148 A 
ATOM      7  C   LIG A   1     -11.208   7.488 129.968  0.00  0.00    +0.018 A 
ATOM      8  C   LIG A   1     -11.702   6.746 131.036  0.00  0.00    +0.015 A 
ATOM      9  C   LIG A   1     -11.173   5.462 131.244  0.00  0.00    +0.047 A 
ATOM     10  C   LIG A   1      -9.999   5.081 130.588  0.00  0.00    +0.131 A 
ATOM     11  C   LIG A   1      -9.257   6.085 130.004  0.00  0.00    +0.068 A 
ATOM     12  C   LIG A   1      -8.343   6.590 131.162  0.00  0.00    +0.184 C 
ATOM     13  C   LIG A   1      -7.776   5.454 132.088  0.00  0.00    +0.191 C 
ATOM     14  C   LIG A   1      -8.450   4.030 131.948  0.00  0.00    +0.134 C 
ATOM     15  C   LIG A   1      -9.270   3.510 133.149  0.00  0.00    +0.058 C 
ATOM     16  C   LIG A   1      -7.312   3.000 131.759  0.00  0.00    +0.058 C 
ATOM     17  O   LIG A   1      -9.346   3.911 130.826  0.00  0.00    -0.483 OA
ENDROOT
BRANCH  12  18
ATOM     18  O   LIG A   1      -7.310   7.433 130.657  0.00  0.00    -0.384 OA
ATOM     19  H   LIG A   1      -7.717   8.311 130.542  0.00  0.00    +0.210 HD
ENDBRANCH  12  18
BRANCH  13  20
ATOM     20  O   LIG A   1      -7.869   5.911 133.458  0.00  0.00    -0.385 OA
ATOM     21  H   LIG A   1      -8.805   6.080 133.657  0.00  0.00    +0.210 HD
ENDBRANCH  13  20
TORSDOF 2
ENDMDL
MODEL 2
REMARK VINA RESULT:      -7.3      7.683     10.366
REMARK  Name = NuBBE_1274
REMARK  4 active torsions:
REMARK  status: ('A' for Active; 'I' for Inactive)
REMARK    1  A    between atoms: C_12  and  O_14
REMARK    2  A    between atoms: C_15  and  O_17
REMARK    3  A    between atoms: C_18  and  C_19
REMARK    4  A    between atoms: C_18  and  C_20
REMARK                            x       y       z     vdW  Elec       q    Type
REMARK                         _______ _______ _______ _____ _____    ______ ____
ROOT
ATOM      1  O   LIG A   1      -8.510  -0.039 131.177  0.00  0.00    -0.245 OA
ATOM      2  C   LIG A   1      -8.030  -0.892 130.467  0.00  0.00    +0.337 A 
ATOM      3  C   LIG A   1      -7.660  -2.224 131.009  0.00  0.00    +0.092 A 
ATOM      4  C   LIG A   1      -7.467  -3.272 130.203  0.00  0.00    +0.018 A 
ATOM      5  O   LIG A   1      -7.709  -0.693 129.116  0.00  0.00    -0.422 OA
ATOM      6  C   LIG A   1      -7.519  -1.814 128.241  0.00  0.00    +0.148 A 
ATOM      7  C   LIG A   1      -7.740  -3.069 128.795  0.00  0.00    +0.018 A 
ATOM      8  C   LIG A   1      -8.492  -3.974 128.054  0.00  0.00    +0.015 A 
ATOM      9  C   LIG A   1      -9.206  -3.485 126.947  0.00  0.00    +0.047 A 
ATOM     10  C   LIG A   1      -8.925  -2.209 126.450  0.00  0.00    +0.131 A 
ATOM     11  C   LIG A   1      -7.757  -1.615 126.881  0.00  0.00    +0.068 A 
ATOM     12  C   LIG A   1      -6.682  -2.146 125.885  0.00  0.00    +0.184 C 
ATOM     13  C   LIG A   1      -7.165  -2.237 124.392  0.00  0.00    +0.191 C 
ATOM     14  C   LIG A   1      -8.722  -2.112 124.147  0.00  0.00    +0.134 C 
ATOM     15  C   LIG A   1      -9.465  -3.365 123.634  0.00  0.00    +0.058 C 
ATOM     16  C   LIG A   1      -8.930  -1.041 123.050  0.00  0.00    +0.058 C 
ATOM     17  O   LIG A   1      -9.470  -1.705 125.309  0.00  0.00    -0.483 OA
ENDROOT
BRANCH  12  18
ATOM     18  O   LIG A   1      -5.470  -1.406 126.010  0.00  0.00    -0.384 OA
ATOM     19  H   LIG A   1      -5.483  -0.753 125.288  0.00  0.00    +0.210 HD
ENDBRANCH  12  18
BRANCH  13  20
ATOM     20  O   LIG A   1      -6.679  -3.485 123.843  0.00  0.00    -0.385 OA
ATOM     21  H   LIG A   1      -6.900  -4.195 124.468  0.00  0.00    +0.210 HD
ENDBRANCH  13  20
TORSDOF 2
ENDMDL
MODEL 3
REMARK VINA RESULT:      -7.1      1.532      5.568
REMARK  Name = NuBBE_1274
REMARK  4 active torsions:
REMARK  status: ('A' for Active; 'I' for Inactive)
REMARK    1  A    between atoms: C_12  and  O_14
REMARK    2  A    between atoms: C_15  and  O_17
REMARK    3  A    between atoms: C_18  and  C_19
REMARK    4  A    between atoms: C_18  and  C_20
REMARK                            x       y       z     vdW  Elec       q    Type
REMARK                         _______ _______ _______ _____ _____    ______ ____
ROOT
ATOM      1  O   LIG A   1      -8.625   4.424 135.034  0.00  0.00    -0.245 OA
ATOM      2  C   LIG A   1      -8.622   4.471 133.825  0.00  0.00    +0.337 A 
ATOM      3  C   LIG A   1      -8.183   3.309 133.013  0.00  0.00    +0.092 A 
ATOM      4  C   LIG A   1      -8.497   3.210 131.718  0.00  0.00    +0.018 A 
ATOM      5  O   LIG A   1      -8.949   5.619 133.090  0.00  0.00    -0.422 OA
ATOM      6  C   LIG A   1      -9.305   5.516 131.703  0.00  0.00    +0.148 A 
ATOM      7  C   LIG A   1      -9.372   4.231 131.181  0.00  0.00    +0.018 A 
ATOM      8  C   LIG A   1     -10.472   3.916 130.390  0.00  0.00    +0.015 A 
ATOM      9  C   LIG A   1     -11.564   4.799 130.400  0.00  0.00    +0.047 A 
ATOM     10  C   LIG A   1     -11.416   6.077 130.947  0.00  0.00    +0.131 A 
ATOM     11  C   LIG A   1     -10.127   6.512 131.176  0.00  0.00    +0.068 A 
ATOM     12  C   LIG A   1      -9.701   7.140 129.814  0.00  0.00    +0.184 C 
ATOM     13  C   LIG A   1     -10.831   7.962 129.094  0.00  0.00    +0.191 C 
ATOM     14  C   LIG A   1     -12.301   7.774 129.646  0.00  0.00    +0.134 C 
ATOM     15  C   LIG A   1     -13.322   7.071 128.726  0.00  0.00    +0.058 C 
ATOM     16  C   LIG A   1     -12.883   9.185 129.894  0.00  0.00    +0.058 C 
ATOM     17  O   LIG A   1     -12.374   7.041 130.885  0.00  0.00    -0.483 OA
ENDROOT
BRANCH  12  18
ATOM     18  O   LIG A   1      -8.501   7.895 129.960  0.00  0.00    -0.384 OA
ATOM     19  H   LIG A   1      -7.822   7.260 130.250  0.00  0.00    +0.210 HD
ENDBRANCH  12  18
BRANCH  13  20
ATOM     20  O   LIG A   1     -10.788   7.635 127.684  0.00  0.00    -0.385 OA
ATOM     21  H   LIG A   1      -9.984   7.114 127.520  0.00  0.00    +0.210 HD
ENDBRANCH  13  20
TORSDOF 2
ENDMDL
MODEL 4
REMARK VINA RESULT:      -6.9      7.632      9.681
REMARK  Name = NuBBE_1274
REMARK  4 active torsions:
REMARK  status: ('A' for Active; 'I' for Inactive)
REMARK    1  A    between atoms: C_12  and  O_14
REMARK    2  A    between atoms: C_15  and  O_17
REMARK    3  A    between atoms: C_18  and  C_19
REMARK    4  A    between atoms: C_18  and  C_20
REMARK                            x       y       z     vdW  Elec       q    Type
REMARK                         _______ _______ _______ _____ _____    ______ ____
ROOT
ATOM      1  O   LIG A   1      -9.103  -4.032 124.001  0.00  0.00    -0.245 OA
ATOM      2  C   LIG A   1      -9.078  -2.994 124.622  0.00  0.00    +0.337 A 
ATOM      3  C   LIG A   1      -8.903  -2.984 126.096  0.00  0.00    +0.092 A 
ATOM      4  C   LIG A   1      -8.526  -1.878 126.742  0.00  0.00    +0.018 A 
ATOM      5  O   LIG A   1      -9.282  -1.734 124.041  0.00  0.00    -0.422 OA
ATOM      6  C   LIG A   1      -8.862  -0.544 124.722  0.00  0.00    +0.148 A 
ATOM      7  C   LIG A   1      -8.193  -0.729 125.926  0.00  0.00    +0.018 A 
ATOM      8  C   LIG A   1      -7.040   0.018 126.142  0.00  0.00    +0.015 A 
ATOM      9  C   LIG A   1      -6.474   0.685 125.043  0.00  0.00    +0.047 A 
ATOM     10  C   LIG A   1      -7.212   0.829 123.864  0.00  0.00    +0.131 A 
ATOM     11  C   LIG A   1      -8.565   0.574 123.941  0.00  0.00    +0.068 A 
ATOM     12  C   LIG A   1      -9.174   1.937 124.387  0.00  0.00    +0.184 C 
ATOM     13  C   LIG A   1      -8.518   3.196 123.713  0.00  0.00    +0.191 C 
ATOM     14  C   LIG A   1      -7.148   2.957 122.959  0.00  0.00    +0.134 C 
ATOM     15  C   LIG A   1      -5.881   3.603 123.562  0.00  0.00    +0.058 C 
ATOM     16  C   LIG A   1      -7.286   3.577 121.548  0.00  0.00    +0.058 C 
ATOM     17  O   LIG A   1      -6.799   1.569 122.799  0.00  0.00    -0.483 OA
ENDROOT
BRANCH  12  18
ATOM     18  O   LIG A   1     -10.592   1.929 124.236  0.00  0.00    -0.384 OA
ATOM     19  H   LIG A   1     -10.760   1.592 123.337  0.00  0.00    +0.210 HD
ENDBRANCH  12  18
BRANCH  13  20
ATOM     20  O   LIG A   1      -8.348   4.208 124.733  0.00  0.00    -0.385 OA
ATOM     21  H   LIG A   1      -7.931   3.791 125.505  0.00  0.00    +0.210 HD
ENDBRANCH  13  20
TORSDOF 2
ENDMDL
MODEL 5
REMARK VINA RESULT:      -6.8      1.532      1.928
REMARK  Name = NuBBE_1274
REMARK  4 active torsions:
REMARK  status: ('A' for Active; 'I' for Inactive)
REMARK    1  A    between atoms: C_12  and  O_14
REMARK    2  A    between atoms: C_15  and  O_17
REMARK    3  A    between atoms: C_18  and  C_19
REMARK    4  A    between atoms: C_18  and  C_20
REMARK                            x       y       z     vdW  Elec       q    Type
REMARK                         _______ _______ _______ _____ _____    ______ ____
ROOT
ATOM      1  O   LIG A   1     -10.197   8.770 127.735  0.00  0.00    -0.245 OA
ATOM      2  C   LIG A   1     -10.679   8.175 128.672  0.00  0.00    +0.337 A 
ATOM      3  C   LIG A   1     -12.150   8.064 128.838  0.00  0.00    +0.092 A 
ATOM      4  C   LIG A   1     -12.690   7.142 129.639  0.00  0.00    +0.018 A 
ATOM      5  O   LIG A   1      -9.921   7.610 129.709  0.00  0.00    -0.422 OA
ATOM      6  C   LIG A   1     -10.491   6.605 130.560  0.00  0.00    +0.148 A 
ATOM      7  C   LIG A   1     -11.779   6.193 130.246  0.00  0.00    +0.018 A 
ATOM      8  C   LIG A   1     -12.034   4.826 130.247  0.00  0.00    +0.015 A 
ATOM      9  C   LIG A   1     -10.935   3.952 130.285  0.00  0.00    +0.047 A 
ATOM     10  C   LIG A   1      -9.668   4.446 130.608  0.00  0.00    +0.131 A 
ATOM     11  C   LIG A   1      -9.614   5.706 131.167  0.00  0.00    +0.068 A 
ATOM     12  C   LIG A   1      -9.806   5.443 132.692  0.00  0.00    +0.184 C 
ATOM     13  C   LIG A   1      -9.061   4.169 133.232  0.00  0.00    +0.191 C 
ATOM     14  C   LIG A   1      -8.512   3.159 132.145  0.00  0.00    +0.134 C 
ATOM     15  C   LIG A   1      -9.175   1.766 132.069  0.00  0.00    +0.058 C 
ATOM     16  C   LIG A   1      -7.028   2.883 132.482  0.00  0.00    +0.058 C 
ATOM     17  O   LIG A   1      -8.574   3.658 130.795  0.00  0.00    -0.483 OA
ENDROOT
BRANCH  12  18
ATOM     18  O   LIG A   1      -9.489   6.608 133.448  0.00  0.00    -0.384 OA
ATOM     19  H   LIG A   1      -9.224   6.288 134.329  0.00  0.00    +0.210 HD
ENDBRANCH  12  18
BRANCH  13  20
ATOM     20  O   LIG A   1      -9.956   3.480 134.137  0.00  0.00    -0.385 OA
ATOM     21  H   LIG A   1     -10.442   4.150 134.647  0.00  0.00    +0.210 HD
ENDBRANCH  13  20
TORSDOF 2
ENDMDL
MODEL 6
REMARK VINA RESULT:      -6.7      2.154      5.096
REMARK  Name = NuBBE_1274
REMARK  4 active torsions:
REMARK  status: ('A' for Active; 'I' for Inactive)
REMARK    1  A    between atoms: C_12  and  O_14
REMARK    2  A    between atoms: C_15  and  O_17
REMARK    3  A    between atoms: C_18  and  C_19
REMARK    4  A    between atoms: C_18  and  C_20
REMARK                            x       y       z     vdW  Elec       q    Type
REMARK                         _______ _______ _______ _____ _____    ______ ____
ROOT
ATOM      1  O   LIG A   1      -5.737   3.803 127.806  0.00  0.00    -0.245 OA
ATOM      2  C   LIG A   1      -6.371   4.141 128.779  0.00  0.00    +0.337 A 
ATOM      3  C   LIG A   1      -5.692   4.534 130.039  0.00  0.00    +0.092 A 
ATOM      4  C   LIG A   1      -6.331   5.231 130.983  0.00  0.00    +0.018 A 
ATOM      5  O   LIG A   1      -7.772   4.123 128.841  0.00  0.00    -0.422 OA
ATOM      6  C   LIG A   1      -8.464   4.884 129.841  0.00  0.00    +0.148 A 
ATOM      7  C   LIG A   1      -7.675   5.672 130.669  0.00  0.00    +0.018 A 
ATOM      8  C   LIG A   1      -8.094   6.977 130.905  0.00  0.00    +0.015 A 
ATOM      9  C   LIG A   1      -9.111   7.499 130.088  0.00  0.00    +0.047 A 
ATOM     10  C   LIG A   1      -9.861   6.639 129.281  0.00  0.00    +0.131 A 
ATOM     11  C   LIG A   1      -9.768   5.290 129.552  0.00  0.00    +0.068 A 
ATOM     12  C   LIG A   1     -10.846   5.058 130.653  0.00  0.00    +0.184 C 
ATOM     13  C   LIG A   1     -12.182   5.857 130.436  0.00  0.00    +0.191 C 
ATOM     14  C   LIG A   1     -12.142   7.015 129.359  0.00  0.00    +0.134 C 
ATOM     15  C   LIG A   1     -12.284   8.466 129.868  0.00  0.00    +0.058 C 
ATOM     16  C   LIG A   1     -13.344   6.800 128.409  0.00  0.00    +0.058 C 
ATOM     17  O   LIG A   1     -10.945   7.033 128.559  0.00  0.00    -0.483 OA
ENDROOT
BRANCH  12  18
ATOM     18  O   LIG A   1     -11.082   3.665 130.842  0.00  0.00    -0.384 OA
ATOM     19  H   LIG A   1     -10.221   3.230 130.706  0.00  0.00    +0.210 HD
ENDBRANCH  12  18
BRANCH  13  20
ATOM     20  O   LIG A   1     -12.594   6.390 131.717  0.00  0.00    -0.385 OA
ATOM     21  H   LIG A   1     -12.403   5.723 132.396  0.00  0.00    +0.210 HD
ENDBRANCH  13  20
TORSDOF 2
ENDMDL
MODEL 7
REMARK VINA RESULT:      -6.6      6.869      8.120
REMARK  Name = NuBBE_1274
REMARK  4 active torsions:
REMARK  status: ('A' for Active; 'I' for Inactive)
REMARK    1  A    between atoms: C_12  and  O_14
REMARK    2  A    between atoms: C_15  and  O_17
REMARK    3  A    between atoms: C_18  and  C_19
REMARK    4  A    between atoms: C_18  and  C_20
REMARK                            x       y       z     vdW  Elec       q    Type
REMARK                         _______ _______ _______ _____ _____    ______ ____
ROOT
ATOM      1  O   LIG A   1      -9.369   4.217 119.957  0.00  0.00    -0.245 OA
ATOM      2  C   LIG A   1      -8.411   3.796 120.565  0.00  0.00    +0.337 A 
ATOM      3  C   LIG A   1      -7.028   4.070 120.102  0.00  0.00    +0.092 A 
ATOM      4  C   LIG A   1      -5.982   3.927 120.921  0.00  0.00    +0.018 A 
ATOM      5  O   LIG A   1      -8.506   2.968 121.692  0.00  0.00    -0.422 OA
ATOM      6  C   LIG A   1      -7.392   2.826 122.585  0.00  0.00    +0.148 A 
ATOM      7  C   LIG A   1      -6.275   3.601 122.301  0.00  0.00    +0.018 A 
ATOM      8  C   LIG A   1      -5.673   4.273 123.359  0.00  0.00    +0.015 A 
ATOM      9  C   LIG A   1      -6.379   4.357 124.571  0.00  0.00    +0.047 A 
ATOM     10  C   LIG A   1      -7.496   3.543 124.780  0.00  0.00    +0.131 A 
ATOM     11  C   LIG A   1      -7.669   2.487 123.910  0.00  0.00    +0.068 A 
ATOM     12  C   LIG A   1      -6.824   1.341 124.544  0.00  0.00    +0.184 C 
ATOM     13  C   LIG A   1      -6.909   1.259 126.111  0.00  0.00    +0.191 C 
ATOM     14  C   LIG A   1      -7.541   2.507 126.849  0.00  0.00    +0.134 C 
ATOM     15  C   LIG A   1      -6.606   3.359 127.735  0.00  0.00    +0.058 C 
ATOM     16  C   LIG A   1      -8.630   1.971 127.808  0.00  0.00    +0.058 C 
ATOM     17  O   LIG A   1      -8.161   3.461 125.965  0.00  0.00    -0.483 OA
ENDROOT
BRANCH  12  18
ATOM     18  O   LIG A   1      -7.123   0.092 123.926  0.00  0.00    -0.384 OA
ATOM     19  H   LIG A   1      -7.669   0.306 123.148  0.00  0.00    +0.210 HD
ENDBRANCH  12  18
BRANCH  13  20
ATOM     20  O   LIG A   1      -5.575   1.011 126.616  0.00  0.00    -0.385 OA
ATOM     21  H   LIG A   1      -5.470   1.506 127.446  0.00  0.00    +0.210 HD
ENDBRANCH  13  20
TORSDOF 2
ENDMDL
MODEL 8
REMARK VINA RESULT:      -6.5      7.644      9.644
REMARK  Name = NuBBE_1274
REMARK  4 active torsions:
REMARK  status: ('A' for Active; 'I' for Inactive)
REMARK    1  A    between atoms: C_12  and  O_14
REMARK    2  A    between atoms: C_15  and  O_17
REMARK    3  A    between atoms: C_18  and  C_19
REMARK    4  A    between atoms: C_18  and  C_20
REMARK                            x       y       z     vdW  Elec       q    Type
REMARK                         _______ _______ _______ _____ _____    ______ ____
ROOT
ATOM      1  O   LIG A   1      -9.810  -0.668 122.801  0.00  0.00    -0.245 OA
ATOM      2  C   LIG A   1      -9.140  -1.435 123.454  0.00  0.00    +0.337 A 
ATOM      3  C   LIG A   1      -8.064  -2.242 122.826  0.00  0.00    +0.092 A 
ATOM      4  C   LIG A   1      -7.105  -2.811 123.561  0.00  0.00    +0.018 A 
ATOM      5  O   LIG A   1      -9.353  -1.690 124.817  0.00  0.00    -0.422 OA
ATOM      6  C   LIG A   1      -8.319  -2.283 125.615  0.00  0.00    +0.148 A 
ATOM      7  C   LIG A   1      -7.106  -2.511 124.978  0.00  0.00    +0.018 A 
ATOM      8  C   LIG A   1      -5.946  -2.145 125.653  0.00  0.00    +0.015 A 
ATOM      9  C   LIG A   1      -6.077  -1.326 126.787  0.00  0.00    +0.047 A 
ATOM     10  C   LIG A   1      -7.335  -1.146 127.370  0.00  0.00    +0.131 A 
ATOM     11  C   LIG A   1      -8.332  -2.017 126.985  0.00  0.00    +0.068 A 
ATOM     12  C   LIG A   1      -8.155  -3.230 127.947  0.00  0.00    +0.184 C 
ATOM     13  C   LIG A   1      -7.802  -2.841 129.429  0.00  0.00    +0.191 C 
ATOM     14  C   LIG A   1      -7.349  -1.346 129.675  0.00  0.00    +0.134 C 
ATOM     15  C   LIG A   1      -5.884  -1.107 130.099  0.00  0.00    +0.058 C 
ATOM     16  C   LIG A   1      -8.203  -0.793 130.840  0.00  0.00    +0.058 C 
ATOM     17  O   LIG A   1      -7.537  -0.480 128.539  0.00  0.00    -0.483 OA
ENDROOT
BRANCH  12  18
ATOM     18  O   LIG A   1      -9.284  -4.098 127.878  0.00  0.00    -0.384 OA
ATOM     19  H   LIG A   1      -9.732  -4.018 128.739  0.00  0.00    +0.210 HD
ENDBRANCH  12  18
BRANCH  13  20
ATOM     20  O   LIG A   1      -6.777  -3.750 129.895  0.00  0.00    -0.385 OA
ATOM     21  H   LIG A   1      -5.967  -3.577 129.385  0.00  0.00    +0.210 HD
ENDBRANCH  13  20
TORSDOF 2
ENDMDL
MODEL 9
REMARK VINA RESULT:      -6.4      5.847      7.981
REMARK  Name = NuBBE_1274
REMARK  4 active torsions:
REMARK  status: ('A' for Active; 'I' for Inactive)
REMARK    1  A    between atoms: C_12  and  O_14
REMARK    2  A    between atoms: C_15  and  O_17
REMARK    3  A    between atoms: C_18  and  C_19
REMARK    4  A    between atoms: C_18  and  C_20
REMARK                            x       y       z     vdW  Elec       q    Type
REMARK                         _______ _______ _______ _____ _____    ______ ____
ROOT
ATOM      1  O   LIG A   1      -4.456   5.633 130.711  0.00  0.00    -0.245 OA
ATOM      2  C   LIG A   1      -4.203   5.465 129.540  0.00  0.00    +0.337 A 
ATOM      3  C   LIG A   1      -2.800   5.402 129.059  0.00  0.00    +0.092 A 
ATOM      4  C   LIG A   1      -2.497   4.878 127.869  0.00  0.00    +0.018 A 
ATOM      5  O   LIG A   1      -5.178   5.390 128.535  0.00  0.00    -0.422 OA
ATOM      6  C   LIG A   1      -4.864   4.811 127.260  0.00  0.00    +0.148 A 
ATOM      7  C   LIG A   1      -3.587   4.280 127.125  0.00  0.00    +0.018 A 
ATOM      8  C   LIG A   1      -3.472   3.029 126.529  0.00  0.00    +0.015 A 
ATOM      9  C   LIG A   1      -4.642   2.269 126.363  0.00  0.00    +0.047 A 
ATOM     10  C   LIG A   1      -5.890   2.878 126.518  0.00  0.00    +0.131 A 
ATOM     11  C   LIG A   1      -5.915   4.257 126.529  0.00  0.00    +0.068 A 
ATOM     12  C   LIG A   1      -6.013   4.638 125.021  0.00  0.00    +0.184 C 
ATOM     13  C   LIG A   1      -6.961   3.713 124.175  0.00  0.00    +0.191 C 
ATOM     14  C   LIG A   1      -7.412   2.358 124.854  0.00  0.00    +0.134 C 
ATOM     15  C   LIG A   1      -6.886   1.043 124.238  0.00  0.00    +0.058 C 
ATOM     16  C   LIG A   1      -8.952   2.274 124.733  0.00  0.00    +0.058 C 
ATOM     17  O   LIG A   1      -7.072   2.258 126.251  0.00  0.00    -0.483 OA
ENDROOT
BRANCH  12  18
ATOM     18  O   LIG A   1      -6.338   6.018 124.869  0.00  0.00    -0.384 OA
ATOM     19  H   LIG A   1      -7.247   6.113 125.206  0.00  0.00    +0.210 HD
ENDBRANCH  12  18
BRANCH  13  20
ATOM     20  O   LIG A   1      -6.304   3.438 122.915  0.00  0.00    -0.385 OA
ATOM     21  H   LIG A   1      -6.862   3.790 122.201  0.00  0.00    +0.210 HD
ENDBRANCH  13  20
TORSDOF 2
ENDMDL
