MODEL 1
REMARK VINA RESULT:      -8.7      0.000      0.000
REMARK  Name = NuBBE_1288
REMARK  18 active torsions:
REMARK  status: ('A' for Active; 'I' for Inactive)
REMARK    1  A    between atoms: C_1  and  C_2
REMARK    2  A    between atoms: C_2  and  C_41
REMARK    3  A    between atoms: C_8  and  O_9
REMARK    4  A    between atoms: C_8  and  C_10
REMARK    5  A    between atoms: C_10  and  O_11
REMARK    6  A    between atoms: O_11  and  C_12
REMARK    7  A    between atoms: C_20  and  C_34
REMARK    8  A    between atoms: C_21  and  O_23
REMARK    9  A    between atoms: O_23  and  C_24
REMARK   10  A    between atoms: C_24  and  C_25
REMARK   11  A    between atoms: C_25  and  C_26
REMARK   12  A    between atoms: C_27  and  C_28
REMARK   13  A    between atoms: C_31  and  O_33
REMARK   14  A    between atoms: C_34  and  O_35
REMARK   15  A    between atoms: O_35  and  C_36
REMARK   16  A    between atoms: C_38  and  O_40
REMARK   17  A    between atoms: C_42  and  C_43
REMARK   18  A    between atoms: C_52  and  O_56
REMARK                            x       y       z     vdW  Elec       q    Type
REMARK                         _______ _______ _______ _____ _____    ______ ____
ROOT
ATOM      1  C   LIG A   1      -4.813   0.959 128.998  0.00  0.00    +0.017 C 
ATOM      2  C   LIG A   1      -6.150   1.738 128.991  0.00  0.00    +0.039 C 
ATOM      3  C   LIG A   1      -5.953   3.265 129.577  0.00  0.00    +0.082 C 
ATOM      4  C   LIG A   1      -7.289   4.110 129.825  0.00  0.00    +0.036 C 
ATOM      5  C   LIG A   1      -7.337   4.871 128.477  0.00  0.00    +0.174 C 
ATOM      6  O   LIG A   1      -5.987   4.982 127.982  0.00  0.00    -0.339 OA
ATOM      7  C   LIG A   1      -5.081   4.260 128.814  0.00  0.00    +0.272 C 
ATOM      8  C   LIG A   1      -8.513   3.200 130.166  0.00  0.00    +0.054 C 
ATOM      9  C   LIG A   1      -8.424   1.678 130.096  0.00  0.00    +0.152 C 
ATOM     10  O   LIG A   1      -9.200   1.137 131.191  0.00  0.00    -0.372 OA
ATOM     11  C   LIG A   1     -10.097   2.187 131.594  0.00  0.00    +0.182 C 
ATOM     12  C   LIG A   1      -9.202   3.416 131.543  0.00  0.00    +0.133 C 
ATOM     13  C   LIG A   1      -9.829   4.802 131.525  0.00  0.00    +0.199 C 
ATOM     14  C   LIG A   1      -8.738   5.851 131.184  0.00  0.00    +0.077 C 
ATOM     15  C   LIG A   1      -7.298   5.314 130.882  0.00  0.00    +0.127 C 
ATOM     16  C   LIG A   1      -7.025   1.102 130.130  0.00  0.00    +0.153 C 
ENDROOT
BRANCH   2  17
ATOM     17  C   LIG A   1      -6.819   1.495 127.573  0.00  0.00    +0.133 C 
ATOM     18  C   LIG A   1      -6.393   0.517 126.368  0.00  0.00    +0.105 C 
ATOM     19  C   LIG A   1      -5.215  -0.304 126.019  0.00  0.00    +0.045 C 
ATOM     20  C   LIG A   1      -7.655   0.183 125.595  0.00  0.00    +0.068 C 
ATOM     21  C   LIG A   1      -8.707   0.246 126.723  0.00  0.00    +0.044 C 
ATOM     22  C   LIG A   1      -8.373   1.608 127.352  0.00  0.00    +0.158 C 
ATOM     23  O   LIG A   1      -8.807   2.669 126.417  0.00  0.00    -0.333 OA
ATOM     24  C   LIG A   1      -8.131   2.627 125.155  0.00  0.00    +0.343 C 
ATOM     25  C   LIG A   1      -8.095   1.205 124.544  0.00  0.00    +0.154 C 
ATOM     26  C   LIG A   1      -7.420   1.570 123.277  0.00  0.00    +0.051 C 
ATOM     27  C   LIG A   1      -7.793   2.833 123.026  0.00  0.00    +0.189 C 
ATOM     28  O   LIG A   1      -8.571   3.446 124.037  0.00  0.00    -0.468 OA
ATOM     29  O   LIG A   1      -6.030   1.872 126.482  0.00  0.00    -0.358 OA
BRANCH  25  30
ATOM     30  O   LIG A   1      -9.406   0.760 124.104  0.00  0.00    -0.378 OA
ATOM     31  H   LIG A   1      -9.800   0.287 124.864  0.00  0.00    +0.211 HD
ENDBRANCH  25  30
ENDBRANCH   2  17
BRANCH   7  32
ATOM     32  O   LIG A   1      -4.556   5.194 129.782  0.00  0.00    -0.356 OA
ATOM     33  H   LIG A   1      -5.033   6.020 129.577  0.00  0.00    +0.213 HD
ENDBRANCH   7  32
BRANCH   7  34
ATOM     34  C   LIG A   1      -3.712   3.848 128.188  0.00  0.00    +0.367 C 
ATOM     35  O   LIG A   1      -2.676   3.588 128.798  0.00  0.00    -0.245 OA
BRANCH  34  36
ATOM     36  O   LIG A   1      -3.776   4.002 126.831  0.00  0.00    -0.464 OA
ATOM     37  C   LIG A   1      -2.687   3.487 126.070  0.00  0.00    +0.280 C 
ENDBRANCH  34  36
ENDBRANCH   7  34
BRANCH  15  38
ATOM     38  O   LIG A   1      -6.552   6.472 130.454  0.00  0.00    -0.391 OA
ATOM     39  H   LIG A   1      -5.654   6.407 130.827  0.00  0.00    +0.210 HD
ENDBRANCH  15  38
BRANCH  12  40
ATOM     40  C   LIG A   1      -8.357   3.251 132.815  0.00  0.00    +0.319 C 
ATOM     41  O   LIG A   1      -7.239   2.738 132.850  0.00  0.00    -0.250 OA
BRANCH  40  42
ATOM     42  O   LIG A   1      -9.020   3.704 133.916  0.00  0.00    -0.467 OA
ATOM     43  C   LIG A   1      -8.229   4.466 134.835  0.00  0.00    +0.280 C 
ENDBRANCH  40  42
ENDBRANCH  12  40
BRANCH  16  44
ATOM     44  O   LIG A   1      -7.103  -0.325 130.092  0.00  0.00    -0.389 OA
ATOM     45  H   LIG A   1      -6.305  -0.643 130.563  0.00  0.00    +0.210 HD
ENDBRANCH  16  44
BRANCH  13  46
ATOM     46  O   LIG A   1     -10.850   4.908 130.492  0.00  0.00    -0.457 OA
BRANCH  46  47
ATOM     47  C   LIG A   1     -11.713   5.964 130.554  0.00  0.00    +0.335 C 
ATOM     48  O   LIG A   1     -12.292   6.328 131.562  0.00  0.00    -0.245 OA
BRANCH  47  49
ATOM     49  C   LIG A   1     -11.851   6.632 129.216  0.00  0.00    +0.029 C 
ATOM     50  C   LIG A   1     -13.276   6.750 128.757  0.00  0.00    +0.051 C 
ATOM     51  C   LIG A   1     -10.779   7.073 128.518  0.00  0.00    -0.020 C 
ATOM     52  C   LIG A   1     -10.804   7.867 127.246  0.00  0.00    +0.035 C 
ENDBRANCH  47  49
ENDBRANCH  46  47
ENDBRANCH  13  46
TORSDOF 12
ENDMDL
MODEL 2
REMARK VINA RESULT:      -8.7      2.549      6.230
REMARK  Name = NuBBE_1288
REMARK  18 active torsions:
REMARK  status: ('A' for Active; 'I' for Inactive)
REMARK    1  A    between atoms: C_1  and  C_2
REMARK    2  A    between atoms: C_2  and  C_41
REMARK    3  A    between atoms: C_8  and  O_9
REMARK    4  A    between atoms: C_8  and  C_10
REMARK    5  A    between atoms: C_10  and  O_11
REMARK    6  A    between atoms: O_11  and  C_12
REMARK    7  A    between atoms: C_20  and  C_34
REMARK    8  A    between atoms: C_21  and  O_23
REMARK    9  A    between atoms: O_23  and  C_24
REMARK   10  A    between atoms: C_24  and  C_25
REMARK   11  A    between atoms: C_25  and  C_26
REMARK   12  A    between atoms: C_27  and  C_28
REMARK   13  A    between atoms: C_31  and  O_33
REMARK   14  A    between atoms: C_34  and  O_35
REMARK   15  A    between atoms: O_35  and  C_36
REMARK   16  A    between atoms: C_38  and  O_40
REMARK   17  A    between atoms: C_42  and  C_43
REMARK   18  A    between atoms: C_52  and  O_56
REMARK                            x       y       z     vdW  Elec       q    Type
REMARK                         _______ _______ _______ _____ _____    ______ ____
ROOT
ATOM      1  C   LIG A   1     -10.103   2.609 131.223  0.00  0.00    +0.017 C 
ATOM      2  C   LIG A   1      -8.990   3.677 131.337  0.00  0.00    +0.039 C 
ATOM      3  C   LIG A   1      -7.506   3.027 131.036  0.00  0.00    +0.082 C 
ATOM      4  C   LIG A   1      -6.245   3.968 131.325  0.00  0.00    +0.036 C 
ATOM      5  C   LIG A   1      -6.042   4.533 129.897  0.00  0.00    +0.174 C 
ATOM      6  O   LIG A   1      -6.559   3.566 128.960  0.00  0.00    -0.339 OA
ATOM      7  C   LIG A   1      -7.189   2.483 129.645  0.00  0.00    +0.272 C 
ATOM      8  C   LIG A   1      -6.525   5.004 132.461  0.00  0.00    +0.054 C 
ATOM      9  C   LIG A   1      -7.913   5.164 133.075  0.00  0.00    +0.152 C 
ATOM     10  O   LIG A   1      -7.745   5.409 134.492  0.00  0.00    -0.372 OA
ATOM     11  C   LIG A   1      -6.391   5.866 134.655  0.00  0.00    +0.182 C 
ATOM     12  C   LIG A   1      -5.621   4.940 133.724  0.00  0.00    +0.133 C 
ATOM     13  C   LIG A   1      -4.210   5.310 133.295  0.00  0.00    +0.199 C 
ATOM     14  C   LIG A   1      -3.766   4.372 132.142  0.00  0.00    +0.077 C 
ATOM     15  C   LIG A   1      -4.810   3.323 131.630  0.00  0.00    +0.127 C 
ATOM     16  C   LIG A   1      -8.858   4.001 132.868  0.00  0.00    +0.153 C 
ENDROOT
BRANCH   2  17
ATOM     17  C   LIG A   1      -9.492   4.954 130.538  0.00  0.00    +0.133 C 
ATOM     18  C   LIG A   1     -10.617   6.044 130.906  0.00  0.00    +0.105 C 
ATOM     19  C   LIG A   1     -11.690   6.179 131.913  0.00  0.00    +0.045 C 
ATOM     20  C   LIG A   1     -10.241   7.331 130.197  0.00  0.00    +0.068 C 
ATOM     21  C   LIG A   1      -8.703   7.211 130.180  0.00  0.00    +0.044 C 
ATOM     22  C   LIG A   1      -8.531   5.792 129.616  0.00  0.00    +0.158 C 
ATOM     23  O   LIG A   1      -8.890   5.817 128.181  0.00  0.00    -0.333 OA
ATOM     24  C   LIG A   1     -10.252   6.189 127.942  0.00  0.00    +0.343 C 
ATOM     25  C   LIG A   1     -10.676   7.449 128.735  0.00  0.00    +0.154 C 
ATOM     26  C   LIG A   1     -12.049   7.552 128.187  0.00  0.00    +0.051 C 
ATOM     27  C   LIG A   1     -11.980   7.039 126.951  0.00  0.00    +0.189 C 
ATOM     28  O   LIG A   1     -10.730   6.478 126.599  0.00  0.00    -0.468 OA
ATOM     29  O   LIG A   1     -10.824   4.895 130.119  0.00  0.00    -0.358 OA
BRANCH  25  30
ATOM     30  O   LIG A   1     -10.032   8.654 128.240  0.00  0.00    -0.378 OA
ATOM     31  H   LIG A   1     -10.746   9.207 127.865  0.00  0.00    +0.211 HD
ENDBRANCH  25  30
ENDBRANCH   2  17
BRANCH   7  32
ATOM     32  O   LIG A   1      -6.195   1.449 129.810  0.00  0.00    -0.356 OA
ATOM     33  H   LIG A   1      -6.021   1.156 128.896  0.00  0.00    +0.213 HD
ENDBRANCH   7  32
BRANCH   7  34
ATOM     34  C   LIG A   1      -8.216   1.631 128.836  0.00  0.00    +0.367 C 
ATOM     35  O   LIG A   1      -8.426   0.425 128.960  0.00  0.00    -0.245 OA
BRANCH  34  36
ATOM     36  O   LIG A   1      -8.728   2.390 127.821  0.00  0.00    -0.464 OA
ATOM     37  C   LIG A   1      -8.403   1.995 126.492  0.00  0.00    +0.280 C 
ENDBRANCH  34  36
ENDBRANCH   7  34
BRANCH  15  38
ATOM     38  O   LIG A   1      -4.189   2.713 130.480  0.00  0.00    -0.391 OA
ATOM     39  H   LIG A   1      -4.860   2.166 130.030  0.00  0.00    +0.210 HD
ENDBRANCH  15  38
BRANCH  12  40
ATOM     40  C   LIG A   1      -5.587   3.632 134.530  0.00  0.00    +0.319 C 
ATOM     41  O   LIG A   1      -6.339   2.677 134.345  0.00  0.00    -0.250 OA
BRANCH  40  42
ATOM     42  O   LIG A   1      -4.644   3.678 135.513  0.00  0.00    -0.467 OA
ATOM     43  C   LIG A   1      -4.019   2.425 135.818  0.00  0.00    +0.280 C 
ENDBRANCH  40  42
ENDBRANCH  12  40
BRANCH  16  44
ATOM     44  O   LIG A   1     -10.097   4.279 133.524  0.00  0.00    -0.389 OA
ATOM     45  H   LIG A   1      -9.861   4.806 134.316  0.00  0.00    +0.210 HD
ENDBRANCH  16  44
BRANCH  13  46
ATOM     46  O   LIG A   1      -4.154   6.669 132.774  0.00  0.00    -0.457 OA
BRANCH  46  47
ATOM     47  C   LIG A   1      -3.010   7.066 132.145  0.00  0.00    +0.335 C 
ATOM     48  O   LIG A   1      -1.960   7.320 132.710  0.00  0.00    -0.245 OA
BRANCH  47  49
ATOM     49  C   LIG A   1      -3.204   7.138 130.657  0.00  0.00    +0.029 C 
ATOM     50  C   LIG A   1      -4.457   7.862 130.258  0.00  0.00    +0.051 C 
ATOM     51  C   LIG A   1      -2.319   6.595 129.789  0.00  0.00    -0.020 C 
ATOM     52  C   LIG A   1      -2.340   6.721 128.294  0.00  0.00    +0.035 C 
ENDBRANCH  47  49
ENDBRANCH  46  47
ENDBRANCH  13  46
TORSDOF 12
ENDMDL
MODEL 3
REMARK VINA RESULT:      -8.3      2.241      7.481
REMARK  Name = NuBBE_1288
REMARK  18 active torsions:
REMARK  status: ('A' for Active; 'I' for Inactive)
REMARK    1  A    between atoms: C_1  and  C_2
REMARK    2  A    between atoms: C_2  and  C_41
REMARK    3  A    between atoms: C_8  and  O_9
REMARK    4  A    between atoms: C_8  and  C_10
REMARK    5  A    between atoms: C_10  and  O_11
REMARK    6  A    between atoms: O_11  and  C_12
REMARK    7  A    between atoms: C_20  and  C_34
REMARK    8  A    between atoms: C_21  and  O_23
REMARK    9  A    between atoms: O_23  and  C_24
REMARK   10  A    between atoms: C_24  and  C_25
REMARK   11  A    between atoms: C_25  and  C_26
REMARK   12  A    between atoms: C_27  and  C_28
REMARK   13  A    between atoms: C_31  and  O_33
REMARK   14  A    between atoms: C_34  and  O_35
REMARK   15  A    between atoms: O_35  and  C_36
REMARK   16  A    between atoms: C_38  and  O_40
REMARK   17  A    between atoms: C_42  and  C_43
REMARK   18  A    between atoms: C_52  and  O_56
REMARK                            x       y       z     vdW  Elec       q    Type
REMARK                         _______ _______ _______ _____ _____    ______ ____
ROOT
ATOM      1  C   LIG A   1      -7.946   5.895 130.723  0.00  0.00    +0.017 C 
ATOM      2  C   LIG A   1      -7.338   4.568 130.211  0.00  0.00    +0.039 C 
ATOM      3  C   LIG A   1      -6.169   4.843 129.083  0.00  0.00    +0.082 C 
ATOM      4  C   LIG A   1      -5.603   3.558 128.316  0.00  0.00    +0.036 C 
ATOM      5  C   LIG A   1      -4.367   3.280 129.206  0.00  0.00    +0.174 C 
ATOM      6  O   LIG A   1      -3.961   4.528 129.804  0.00  0.00    -0.339 OA
ATOM      7  C   LIG A   1      -4.886   5.567 129.487  0.00  0.00    +0.272 C 
ATOM      8  C   LIG A   1      -6.665   2.417 128.205  0.00  0.00    +0.054 C 
ATOM      9  C   LIG A   1      -8.016   2.509 128.909  0.00  0.00    +0.152 C 
ATOM     10  O   LIG A   1      -9.013   1.931 128.033  0.00  0.00    -0.372 OA
ATOM     11  C   LIG A   1      -8.289   1.102 127.106  0.00  0.00    +0.182 C 
ATOM     12  C   LIG A   1      -7.079   1.964 126.776  0.00  0.00    +0.133 C 
ATOM     13  C   LIG A   1      -5.859   1.329 126.128  0.00  0.00    +0.199 C 
ATOM     14  C   LIG A   1      -4.680   2.337 126.163  0.00  0.00    +0.077 C 
ATOM     15  C   LIG A   1      -4.935   3.713 126.867  0.00  0.00    +0.127 C 
ATOM     16  C   LIG A   1      -8.446   3.900 129.320  0.00  0.00    +0.153 C 
ENDROOT
BRANCH   2  17
ATOM     17  C   LIG A   1      -7.036   3.676 131.488  0.00  0.00    +0.133 C 
ATOM     18  C   LIG A   1      -7.342   3.939 133.046  0.00  0.00    +0.105 C 
ATOM     19  C   LIG A   1      -7.775   5.084 133.874  0.00  0.00    +0.045 C 
ATOM     20  C   LIG A   1      -7.474   2.583 133.712  0.00  0.00    +0.068 C 
ATOM     21  C   LIG A   1      -8.036   1.744 132.544  0.00  0.00    +0.044 C 
ATOM     22  C   LIG A   1      -7.042   2.103 131.428  0.00  0.00    +0.158 C 
ATOM     23  O   LIG A   1      -5.749   1.450 131.731  0.00  0.00    -0.333 OA
ATOM     24  C   LIG A   1      -5.161   1.896 132.958  0.00  0.00    +0.343 C 
ATOM     25  C   LIG A   1      -6.168   1.906 134.134  0.00  0.00    +0.154 C 
ATOM     26  C   LIG A   1      -5.212   2.325 135.186  0.00  0.00    +0.051 C 
ATOM     27  C   LIG A   1      -4.023   1.841 134.800  0.00  0.00    +0.189 C 
ATOM     28  O   LIG A   1      -4.007   1.219 133.530  0.00  0.00    -0.468 OA
ATOM     29  O   LIG A   1      -6.130   4.237 132.393  0.00  0.00    -0.358 OA
BRANCH  25  30
ATOM     30  O   LIG A   1      -6.547   0.567 134.548  0.00  0.00    -0.378 OA
ATOM     31  H   LIG A   1      -5.878   0.286 135.202  0.00  0.00    +0.211 HD
ENDBRANCH  25  30
ENDBRANCH   2  17
BRANCH   7  32
ATOM     32  O   LIG A   1      -4.387   6.235 128.308  0.00  0.00    -0.356 OA
ATOM     33  H   LIG A   1      -4.786   7.123 128.368  0.00  0.00    +0.213 HD
ENDBRANCH   7  32
BRANCH   7  34
ATOM     34  C   LIG A   1      -4.901   6.817 130.421  0.00  0.00    +0.367 C 
ATOM     35  O   LIG A   1      -5.360   7.927 130.153  0.00  0.00    -0.245 OA
BRANCH  34  36
ATOM     36  O   LIG A   1      -4.149   6.555 131.533  0.00  0.00    -0.464 OA
ATOM     37  C   LIG A   1      -3.182   7.533 131.904  0.00  0.00    +0.280 C 
ENDBRANCH  34  36
ENDBRANCH   7  34
BRANCH  15  38
ATOM     38  O   LIG A   1      -3.649   4.365 126.884  0.00  0.00    -0.391 OA
ATOM     39  H   LIG A   1      -3.749   5.240 126.464  0.00  0.00    +0.210 HD
ENDBRANCH  15  38
BRANCH  12  40
ATOM     40  C   LIG A   1      -7.680   3.010 125.825  0.00  0.00    +0.319 C 
ATOM     41  O   LIG A   1      -8.200   4.065 126.185  0.00  0.00    -0.250 OA
BRANCH  40  42
ATOM     42  O   LIG A   1      -7.607   2.602 124.527  0.00  0.00    -0.467 OA
ATOM     43  C   LIG A   1      -8.849   2.621 123.811  0.00  0.00    +0.280 C 
ENDBRANCH  40  42
ENDBRANCH  12  40
BRANCH  16  44
ATOM     44  O   LIG A   1      -9.736   3.832 129.932  0.00  0.00    -0.389 OA
ATOM     45  H   LIG A   1      -9.623   4.216 130.826  0.00  0.00    +0.210 HD
ENDBRANCH  16  44
BRANCH  13  46
ATOM     46  O   LIG A   1      -5.422   0.150 126.863  0.00  0.00    -0.457 OA
BRANCH  46  47
ATOM     47  C   LIG A   1      -5.626  -1.072 126.290  0.00  0.00    +0.335 C 
ATOM     48  O   LIG A   1      -5.375  -1.344 125.129  0.00  0.00    -0.245 OA
BRANCH  47  49
ATOM     49  C   LIG A   1      -6.191  -2.050 127.281  0.00  0.00    +0.029 C 
ATOM     50  C   LIG A   1      -5.193  -2.489 128.313  0.00  0.00    +0.051 C 
ATOM     51  C   LIG A   1      -7.475  -2.474 127.221  0.00  0.00    -0.020 C 
ATOM     52  C   LIG A   1      -8.179  -3.337 128.226  0.00  0.00    +0.035 C 
ENDBRANCH  47  49
ENDBRANCH  46  47
ENDBRANCH  13  46
TORSDOF 12
ENDMDL
MODEL 4
REMARK VINA RESULT:      -8.2      2.781      7.310
REMARK  Name = NuBBE_1288
REMARK  18 active torsions:
REMARK  status: ('A' for Active; 'I' for Inactive)
REMARK    1  A    between atoms: C_1  and  C_2
REMARK    2  A    between atoms: C_2  and  C_41
REMARK    3  A    between atoms: C_8  and  O_9
REMARK    4  A    between atoms: C_8  and  C_10
REMARK    5  A    between atoms: C_10  and  O_11
REMARK    6  A    between atoms: O_11  and  C_12
REMARK    7  A    between atoms: C_20  and  C_34
REMARK    8  A    between atoms: C_21  and  O_23
REMARK    9  A    between atoms: O_23  and  C_24
REMARK   10  A    between atoms: C_24  and  C_25
REMARK   11  A    between atoms: C_25  and  C_26
REMARK   12  A    between atoms: C_27  and  C_28
REMARK   13  A    between atoms: C_31  and  O_33
REMARK   14  A    between atoms: C_34  and  O_35
REMARK   15  A    between atoms: O_35  and  C_36
REMARK   16  A    between atoms: C_38  and  O_40
REMARK   17  A    between atoms: C_42  and  C_43
REMARK   18  A    between atoms: C_52  and  O_56
REMARK                            x       y       z     vdW  Elec       q    Type
REMARK                         _______ _______ _______ _____ _____    ______ ____
ROOT
ATOM      1  C   LIG A   1      -4.290   2.828 131.911  0.00  0.00    +0.017 C 
ATOM      2  C   LIG A   1      -5.322   1.994 131.114  0.00  0.00    +0.039 C 
ATOM      3  C   LIG A   1      -5.741   0.626 131.931  0.00  0.00    +0.082 C 
ATOM      4  C   LIG A   1      -6.637  -0.432 131.134  0.00  0.00    +0.036 C 
ATOM      5  C   LIG A   1      -8.032   0.024 131.628  0.00  0.00    +0.174 C 
ATOM      6  O   LIG A   1      -7.865   0.640 132.921  0.00  0.00    -0.339 OA
ATOM      7  C   LIG A   1      -6.483   0.739 133.261  0.00  0.00    +0.272 C 
ATOM      8  C   LIG A   1      -6.382  -0.385 129.593  0.00  0.00    +0.054 C 
ATOM      9  C   LIG A   1      -5.492   0.682 128.960  0.00  0.00    +0.152 C 
ATOM     10  O   LIG A   1      -4.749   0.059 127.886  0.00  0.00    -0.372 OA
ATOM     11  C   LIG A   1      -5.474  -1.137 127.547  0.00  0.00    +0.182 C 
ATOM     12  C   LIG A   1      -5.858  -1.682 128.915  0.00  0.00    +0.133 C 
ATOM     13  C   LIG A   1      -6.956  -2.729 129.026  0.00  0.00    +0.199 C 
ATOM     14  C   LIG A   1      -7.349  -2.900 130.517  0.00  0.00    +0.077 C 
ATOM     15  C   LIG A   1      -6.628  -1.978 131.557  0.00  0.00    +0.127 C 
ATOM     16  C   LIG A   1      -4.535   1.378 129.903  0.00  0.00    +0.153 C 
ENDROOT
BRANCH   2  17
ATOM     17  C   LIG A   1      -6.434   3.004 130.602  0.00  0.00    +0.133 C 
ATOM     18  C   LIG A   1      -6.650   4.569 130.908  0.00  0.00    +0.105 C 
ATOM     19  C   LIG A   1      -6.106   5.559 131.860  0.00  0.00    +0.045 C 
ATOM     20  C   LIG A   1      -7.380   5.161 129.719  0.00  0.00    +0.068 C 
ATOM     21  C   LIG A   1      -6.850   4.264 128.580  0.00  0.00    +0.044 C 
ATOM     22  C   LIG A   1      -7.091   2.869 129.178  0.00  0.00    +0.158 C 
ATOM     23  O   LIG A   1      -8.547   2.608 129.173  0.00  0.00    -0.333 OA
ATOM     24  C   LIG A   1      -9.293   3.530 129.976  0.00  0.00    +0.343 C 
ATOM     25  C   LIG A   1      -8.902   5.004 129.712  0.00  0.00    +0.154 C 
ATOM     26  C   LIG A   1      -9.895   5.619 130.624  0.00  0.00    +0.051 C 
ATOM     27  C   LIG A   1     -10.937   4.775 130.639  0.00  0.00    +0.189 C 
ATOM     28  O   LIG A   1     -10.746   3.569 129.924  0.00  0.00    -0.468 OA
ATOM     29  O   LIG A   1      -7.269   3.511 131.602  0.00  0.00    -0.358 OA
BRANCH  25  30
ATOM     30  O   LIG A   1      -9.329   5.462 128.401  0.00  0.00    -0.378 OA
ATOM     31  H   LIG A   1      -8.533   5.834 127.973  0.00  0.00    +0.211 HD
ENDBRANCH  25  30
ENDBRANCH   2  17
BRANCH   7  32
ATOM     32  O   LIG A   1      -6.150  -0.435 134.033  0.00  0.00    -0.356 OA
ATOM     33  H   LIG A   1      -6.954  -0.983 133.965  0.00  0.00    +0.213 HD
ENDBRANCH   7  32
BRANCH   7  34
ATOM     34  C   LIG A   1      -6.089   1.794 134.341  0.00  0.00    +0.367 C 
ATOM     35  O   LIG A   1      -6.599   2.902 134.503  0.00  0.00    -0.245 OA
BRANCH  34  36
ATOM     36  O   LIG A   1      -4.950   1.384 134.975  0.00  0.00    -0.464 OA
ATOM     37  C   LIG A   1      -4.203   2.378 135.670  0.00  0.00    +0.280 C 
ENDBRANCH  34  36
ENDBRANCH   7  34
BRANCH  15  38
ATOM     38  O   LIG A   1      -7.291  -2.243 132.810  0.00  0.00    -0.391 OA
ATOM     39  H   LIG A   1      -6.956  -3.091 133.155  0.00  0.00    +0.210 HD
ENDBRANCH  15  38
BRANCH  12  40
ATOM     40  C   LIG A   1      -4.530  -2.276 129.408  0.00  0.00    +0.319 C 
ATOM     41  O   LIG A   1      -3.778  -1.733 130.215  0.00  0.00    -0.250 OA
BRANCH  40  42
ATOM     42  O   LIG A   1      -4.263  -3.467 128.802  0.00  0.00    -0.467 OA
ATOM     43  C   LIG A   1      -2.896  -3.893 128.870  0.00  0.00    +0.280 C 
ENDBRANCH  40  42
ENDBRANCH  12  40
BRANCH  16  44
ATOM     44  O   LIG A   1      -3.749   2.318 129.166  0.00  0.00    -0.389 OA
ATOM     45  H   LIG A   1      -3.554   1.882 128.310  0.00  0.00    +0.210 HD
ENDBRANCH  16  44
BRANCH  13  46
ATOM     46  O   LIG A   1      -8.160  -2.311 128.321  0.00  0.00    -0.457 OA
BRANCH  46  47
ATOM     47  C   LIG A   1      -8.754  -3.209 127.482  0.00  0.00    +0.335 C 
ATOM     48  O   LIG A   1      -9.153  -4.311 127.818  0.00  0.00    -0.245 OA
BRANCH  47  49
ATOM     49  C   LIG A   1      -8.868  -2.661 126.089  0.00  0.00    +0.029 C 
ATOM     50  C   LIG A   1      -8.830  -1.160 126.039  0.00  0.00    +0.051 C 
ATOM     51  C   LIG A   1      -8.990  -3.464 125.007  0.00  0.00    -0.020 C 
ATOM     52  C   LIG A   1      -8.977  -3.037 123.569  0.00  0.00    +0.035 C 
ENDBRANCH  47  49
ENDBRANCH  46  47
ENDBRANCH  13  46
TORSDOF 12
ENDMDL
MODEL 5
REMARK VINA RESULT:      -8.2      1.933      7.585
REMARK  Name = NuBBE_1288
REMARK  18 active torsions:
REMARK  status: ('A' for Active; 'I' for Inactive)
REMARK    1  A    between atoms: C_1  and  C_2
REMARK    2  A    between atoms: C_2  and  C_41
REMARK    3  A    between atoms: C_8  and  O_9
REMARK    4  A    between atoms: C_8  and  C_10
REMARK    5  A    between atoms: C_10  and  O_11
REMARK    6  A    between atoms: O_11  and  C_12
REMARK    7  A    between atoms: C_20  and  C_34
REMARK    8  A    between atoms: C_21  and  O_23
REMARK    9  A    between atoms: O_23  and  C_24
REMARK   10  A    between atoms: C_24  and  C_25
REMARK   11  A    between atoms: C_25  and  C_26
REMARK   12  A    between atoms: C_27  and  C_28
REMARK   13  A    between atoms: C_31  and  O_33
REMARK   14  A    between atoms: C_34  and  O_35
REMARK   15  A    between atoms: O_35  and  C_36
REMARK   16  A    between atoms: C_38  and  O_40
REMARK   17  A    between atoms: C_42  and  C_43
REMARK   18  A    between atoms: C_52  and  O_56
REMARK                            x       y       z     vdW  Elec       q    Type
REMARK                         _______ _______ _______ _____ _____    ______ ____
ROOT
ATOM      1  C   LIG A   1     -10.027   2.675 131.247  0.00  0.00    +0.017 C 
ATOM      2  C   LIG A   1      -8.550   2.693 130.787  0.00  0.00    +0.039 C 
ATOM      3  C   LIG A   1      -8.378   3.513 129.368  0.00  0.00    +0.082 C 
ATOM      4  C   LIG A   1      -6.942   3.432 128.669  0.00  0.00    +0.036 C 
ATOM      5  C   LIG A   1      -6.329   4.734 129.241  0.00  0.00    +0.174 C 
ATOM      6  O   LIG A   1      -7.410   5.642 129.533  0.00  0.00    -0.339 OA
ATOM      7  C   LIG A   1      -8.673   5.011 129.323  0.00  0.00    +0.272 C 
ATOM      8  C   LIG A   1      -6.197   2.097 128.996  0.00  0.00    +0.054 C 
ATOM      9  C   LIG A   1      -6.753   1.096 130.004  0.00  0.00    +0.152 C 
ATOM     10  O   LIG A   1      -6.480  -0.235 129.505  0.00  0.00    -0.372 OA
ATOM     11  C   LIG A   1      -5.416  -0.086 128.548  0.00  0.00    +0.182 C 
ATOM     12  C   LIG A   1      -5.827   1.175 127.800  0.00  0.00    +0.133 C 
ATOM     13  C   LIG A   1      -4.801   1.914 126.955  0.00  0.00    +0.199 C 
ATOM     14  C   LIG A   1      -5.380   3.294 126.543  0.00  0.00    +0.077 C 
ATOM     15  C   LIG A   1      -6.799   3.667 127.090  0.00  0.00    +0.127 C 
ATOM     16  C   LIG A   1      -8.228   1.230 130.314  0.00  0.00    +0.153 C 
ENDROOT
BRANCH   2  17
ATOM     17  C   LIG A   1      -7.676   3.075 132.055  0.00  0.00    +0.133 C 
ATOM     18  C   LIG A   1      -8.117   3.598 133.512  0.00  0.00    +0.105 C 
ATOM     19  C   LIG A   1      -9.356   4.102 134.140  0.00  0.00    +0.045 C 
ATOM     20  C   LIG A   1      -7.033   3.177 134.485  0.00  0.00    +0.068 C 
ATOM     21  C   LIG A   1      -6.540   1.874 133.820  0.00  0.00    +0.044 C 
ATOM     22  C   LIG A   1      -6.314   2.355 132.378  0.00  0.00    +0.158 C 
ATOM     23  O   LIG A   1      -5.117   3.225 132.361  0.00  0.00    -0.333 OA
ATOM     24  C   LIG A   1      -5.257   4.401 133.167  0.00  0.00    +0.343 C 
ATOM     25  C   LIG A   1      -5.813   4.095 134.579  0.00  0.00    +0.154 C 
ATOM     26  C   LIG A   1      -5.740   5.479 135.104  0.00  0.00    +0.051 C 
ATOM     27  C   LIG A   1      -4.714   6.052 134.459  0.00  0.00    +0.189 C 
ATOM     28  O   LIG A   1      -4.118   5.261 133.449  0.00  0.00    -0.468 OA
ATOM     29  O   LIG A   1      -7.747   4.420 132.430  0.00  0.00    -0.358 OA
BRANCH  25  30
ATOM     30  O   LIG A   1      -4.857   3.379 135.405  0.00  0.00    -0.378 OA
ATOM     31  H   LIG A   1      -4.622   2.571 134.907  0.00  0.00    +0.211 HD
ENDBRANCH  25  30
ENDBRANCH   2  17
BRANCH   7  32
ATOM     32  O   LIG A   1      -9.084   5.322 127.974  0.00  0.00    -0.356 OA
ATOM     33  H   LIG A   1      -8.578   4.686 127.434  0.00  0.00    +0.213 HD
ENDBRANCH   7  32
BRANCH   7  34
ATOM     34  C   LIG A   1      -9.909   5.633 130.045  0.00  0.00    +0.367 C 
ATOM     35  O   LIG A   1      -9.915   6.178 131.148  0.00  0.00    -0.245 OA
BRANCH  34  36
ATOM     36  O   LIG A   1     -11.042   5.314 129.350  0.00  0.00    -0.464 OA
ATOM     37  C   LIG A   1     -12.175   6.157 129.539  0.00  0.00    +0.280 C 
ENDBRANCH  34  36
ENDBRANCH   7  34
BRANCH  15  38
ATOM     38  O   LIG A   1      -7.005   5.035 126.684  0.00  0.00    -0.391 OA
ATOM     39  H   LIG A   1      -7.651   5.039 125.953  0.00  0.00    +0.210 HD
ENDBRANCH  15  38
BRANCH  12  40
ATOM     40  C   LIG A   1      -6.959   0.659 126.900  0.00  0.00    +0.319 C 
ATOM     41  O   LIG A   1      -8.145   0.958 127.027  0.00  0.00    -0.250 OA
BRANCH  40  42
ATOM     42  O   LIG A   1      -6.491  -0.214 125.963  0.00  0.00    -0.467 OA
ATOM     43  C   LIG A   1      -7.486  -1.051 125.359  0.00  0.00    +0.280 C 
ENDBRANCH  40  42
ENDBRANCH  12  40
BRANCH  16  44
ATOM     44  O   LIG A   1      -8.608   0.210 131.241  0.00  0.00    -0.389 OA
ATOM     45  H   LIG A   1      -9.481   0.485 131.589  0.00  0.00    +0.210 HD
ENDBRANCH  16  44
BRANCH  13  46
ATOM     46  O   LIG A   1      -3.584   2.179 127.710  0.00  0.00    -0.457 OA
BRANCH  46  47
ATOM     47  C   LIG A   1      -2.768   3.184 127.275  0.00  0.00    +0.335 C 
ATOM     48  O   LIG A   1      -2.100   3.143 126.257  0.00  0.00    -0.245 OA
BRANCH  47  49
ATOM     49  C   LIG A   1      -2.807   4.359 128.210  0.00  0.00    +0.029 C 
ATOM     50  C   LIG A   1      -3.030   3.968 129.643  0.00  0.00    +0.051 C 
ATOM     51  C   LIG A   1      -2.655   5.630 127.774  0.00  0.00    -0.020 C 
ATOM     52  C   LIG A   1      -2.543   6.861 128.624  0.00  0.00    +0.035 C 
ENDBRANCH  47  49
ENDBRANCH  46  47
ENDBRANCH  13  46
TORSDOF 12
ENDMDL
MODEL 6
REMARK VINA RESULT:      -8.2      2.753      6.531
REMARK  Name = NuBBE_1288
REMARK  18 active torsions:
REMARK  status: ('A' for Active; 'I' for Inactive)
REMARK    1  A    between atoms: C_1  and  C_2
REMARK    2  A    between atoms: C_2  and  C_41
REMARK    3  A    between atoms: C_8  and  O_9
REMARK    4  A    between atoms: C_8  and  C_10
REMARK    5  A    between atoms: C_10  and  O_11
REMARK    6  A    between atoms: O_11  and  C_12
REMARK    7  A    between atoms: C_20  and  C_34
REMARK    8  A    between atoms: C_21  and  O_23
REMARK    9  A    between atoms: O_23  and  C_24
REMARK   10  A    between atoms: C_24  and  C_25
REMARK   11  A    between atoms: C_25  and  C_26
REMARK   12  A    between atoms: C_27  and  C_28
REMARK   13  A    between atoms: C_31  and  O_33
REMARK   14  A    between atoms: C_34  and  O_35
REMARK   15  A    between atoms: O_35  and  C_36
REMARK   16  A    between atoms: C_38  and  O_40
REMARK   17  A    between atoms: C_42  and  C_43
REMARK   18  A    between atoms: C_52  and  O_56
REMARK                            x       y       z     vdW  Elec       q    Type
REMARK                         _______ _______ _______ _____ _____    ______ ____
ROOT
ATOM      1  C   LIG A   1      -5.635   5.500 132.162  0.00  0.00    +0.017 C 
ATOM      2  C   LIG A   1      -5.855   4.130 131.477  0.00  0.00    +0.039 C 
ATOM      3  C   LIG A   1      -7.352   3.529 131.814  0.00  0.00    +0.082 C 
ATOM      4  C   LIG A   1      -7.637   2.026 131.345  0.00  0.00    +0.036 C 
ATOM      5  C   LIG A   1      -8.309   2.329 129.984  0.00  0.00    +0.174 C 
ATOM      6  O   LIG A   1      -8.912   3.637 130.068  0.00  0.00    -0.339 OA
ATOM      7  C   LIG A   1      -8.592   4.264 131.309  0.00  0.00    +0.272 C 
ATOM      8  C   LIG A   1      -6.338   1.157 131.315  0.00  0.00    +0.054 C 
ATOM      9  C   LIG A   1      -4.960   1.767 131.555  0.00  0.00    +0.152 C 
ATOM     10  O   LIG A   1      -4.181   0.816 132.318  0.00  0.00    -0.372 OA
ATOM     11  C   LIG A   1      -4.822  -0.459 132.131  0.00  0.00    +0.182 C 
ATOM     12  C   LIG A   1      -6.297  -0.097 132.232  0.00  0.00    +0.133 C 
ATOM     13  C   LIG A   1      -7.346  -1.072 131.719  0.00  0.00    +0.199 C 
ATOM     14  C   LIG A   1      -8.723  -0.359 131.671  0.00  0.00    +0.077 C 
ATOM     15  C   LIG A   1      -8.762   1.152 132.079  0.00  0.00    +0.127 C 
ATOM     16  C   LIG A   1      -4.952   3.108 132.255  0.00  0.00    +0.153 C 
ENDROOT
BRANCH   2  17
ATOM     17  C   LIG A   1      -5.363   4.281 129.975  0.00  0.00    +0.133 C 
ATOM     18  C   LIG A   1      -4.633   5.506 129.230  0.00  0.00    +0.105 C 
ATOM     19  C   LIG A   1      -4.349   6.925 129.527  0.00  0.00    +0.045 C 
ATOM     20  C   LIG A   1      -3.822   4.918 128.092  0.00  0.00    +0.068 C 
ATOM     21  C   LIG A   1      -3.462   3.536 128.679  0.00  0.00    +0.044 C 
ATOM     22  C   LIG A   1      -4.846   3.051 129.140  0.00  0.00    +0.158 C 
ATOM     23  O   LIG A   1      -5.644   2.718 127.939  0.00  0.00    -0.333 OA
ATOM     24  C   LIG A   1      -5.871   3.840 127.079  0.00  0.00    +0.343 C 
ATOM     25  C   LIG A   1      -4.581   4.644 126.791  0.00  0.00    +0.154 C 
ATOM     26  C   LIG A   1      -5.182   5.621 125.853  0.00  0.00    +0.051 C 
ATOM     27  C   LIG A   1      -6.191   4.969 125.258  0.00  0.00    +0.189 C 
ATOM     28  O   LIG A   1      -6.445   3.668 125.753  0.00  0.00    -0.468 OA
ATOM     29  O   LIG A   1      -6.021   5.271 129.240  0.00  0.00    -0.358 OA
BRANCH  25  30
ATOM     30  O   LIG A   1      -3.649   3.911 125.952  0.00  0.00    -0.378 OA
ATOM     31  H   LIG A   1      -3.813   4.215 125.037  0.00  0.00    +0.211 HD
ENDBRANCH  25  30
ENDBRANCH   2  17
BRANCH   7  32
ATOM     32  O   LIG A   1      -9.666   3.963 132.226  0.00  0.00    -0.356 OA
ATOM     33  H   LIG A   1      -9.480   3.044 132.496  0.00  0.00    +0.213 HD
ENDBRANCH   7  32
BRANCH   7  34
ATOM     34  C   LIG A   1      -8.716   5.818 131.375  0.00  0.00    +0.367 C 
ATOM     35  O   LIG A   1      -8.895   6.497 132.385  0.00  0.00    -0.245 OA
BRANCH  34  36
ATOM     36  O   LIG A   1      -8.786   6.316 130.103  0.00  0.00    -0.464 OA
ATOM     37  C   LIG A   1      -9.782   7.303 129.851  0.00  0.00    +0.280 C 
ENDBRANCH  34  36
ENDBRANCH   7  34
BRANCH  15  38
ATOM     38  O   LIG A   1     -10.110   1.579 131.794  0.00  0.00    -0.391 OA
ATOM     39  H   LIG A   1     -10.062   2.372 131.228  0.00  0.00    +0.210 HD
ENDBRANCH  15  38
BRANCH  12  40
ATOM     40  C   LIG A   1      -6.476   0.100 133.745  0.00  0.00    +0.319 C 
ATOM     41  O   LIG A   1      -6.508   1.192 134.309  0.00  0.00    -0.250 OA
BRANCH  40  42
ATOM     42  O   LIG A   1      -6.548  -1.095 134.397  0.00  0.00    -0.467 OA
ATOM     43  C   LIG A   1      -5.840  -1.154 135.642  0.00  0.00    +0.280 C 
ENDBRANCH  40  42
ENDBRANCH  12  40
BRANCH  16  44
ATOM     44  O   LIG A   1      -3.599   3.534 132.439  0.00  0.00    -0.389 OA
ATOM     45  H   LIG A   1      -3.569   3.930 133.335  0.00  0.00    +0.210 HD
ENDBRANCH  16  44
BRANCH  13  46
ATOM     46  O   LIG A   1      -7.050  -1.502 130.359  0.00  0.00    -0.457 OA
BRANCH  46  47
ATOM     47  C   LIG A   1      -7.144  -2.833 130.075  0.00  0.00    +0.335 C 
ATOM     48  O   LIG A   1      -8.187  -3.421 129.844  0.00  0.00    -0.245 OA
BRANCH  47  49
ATOM     49  C   LIG A   1      -5.791  -3.486 130.069  0.00  0.00    +0.029 C 
ATOM     50  C   LIG A   1      -5.720  -4.708 130.939  0.00  0.00    +0.051 C 
ATOM     51  C   LIG A   1      -4.760  -2.997 129.343  0.00  0.00    -0.020 C 
ATOM     52  C   LIG A   1      -3.415  -3.634 129.157  0.00  0.00    +0.035 C 
ENDBRANCH  47  49
ENDBRANCH  46  47
ENDBRANCH  13  46
TORSDOF 12
ENDMDL
MODEL 7
REMARK VINA RESULT:      -8.1      2.469      7.357
REMARK  Name = NuBBE_1288
REMARK  18 active torsions:
REMARK  status: ('A' for Active; 'I' for Inactive)
REMARK    1  A    between atoms: C_1  and  C_2
REMARK    2  A    between atoms: C_2  and  C_41
REMARK    3  A    between atoms: C_8  and  O_9
REMARK    4  A    between atoms: C_8  and  C_10
REMARK    5  A    between atoms: C_10  and  O_11
REMARK    6  A    between atoms: O_11  and  C_12
REMARK    7  A    between atoms: C_20  and  C_34
REMARK    8  A    between atoms: C_21  and  O_23
REMARK    9  A    between atoms: O_23  and  C_24
REMARK   10  A    between atoms: C_24  and  C_25
REMARK   11  A    between atoms: C_25  and  C_26
REMARK   12  A    between atoms: C_27  and  C_28
REMARK   13  A    between atoms: C_31  and  O_33
REMARK   14  A    between atoms: C_34  and  O_35
REMARK   15  A    between atoms: O_35  and  C_36
REMARK   16  A    between atoms: C_38  and  O_40
REMARK   17  A    between atoms: C_42  and  C_43
REMARK   18  A    between atoms: C_52  and  O_56
REMARK                            x       y       z     vdW  Elec       q    Type
REMARK                         _______ _______ _______ _____ _____    ______ ____
ROOT
ATOM      1  C   LIG A   1      -6.636   2.917 131.890  0.00  0.00    +0.017 C 
ATOM      2  C   LIG A   1      -6.275   2.347 130.498  0.00  0.00    +0.039 C 
ATOM      3  C   LIG A   1      -7.629   2.045 129.608  0.00  0.00    +0.082 C 
ATOM      4  C   LIG A   1      -7.416   1.259 128.232  0.00  0.00    +0.036 C 
ATOM      5  C   LIG A   1      -7.329   2.476 127.278  0.00  0.00    +0.174 C 
ATOM      6  O   LIG A   1      -8.069   3.561 127.875  0.00  0.00    -0.339 OA
ATOM      7  C   LIG A   1      -8.525   3.206 129.180  0.00  0.00    +0.272 C 
ATOM      8  C   LIG A   1      -6.177   0.307 128.277  0.00  0.00    +0.054 C 
ATOM      9  C   LIG A   1      -5.221   0.294 129.467  0.00  0.00    +0.152 C 
ATOM     10  O   LIG A   1      -4.816  -1.077 129.695  0.00  0.00    -0.372 OA
ATOM     11  C   LIG A   1      -5.081  -1.776 128.466  0.00  0.00    +0.182 C 
ATOM     12  C   LIG A   1      -6.433  -1.210 128.056  0.00  0.00    +0.133 C 
ATOM     13  C   LIG A   1      -6.919  -1.385 126.625  0.00  0.00    +0.199 C 
ATOM     14  C   LIG A   1      -8.162  -0.486 126.395  0.00  0.00    +0.077 C 
ATOM     15  C   LIG A   1      -8.620   0.421 127.586  0.00  0.00    +0.127 C 
ATOM     16  C   LIG A   1      -5.764   0.884 130.750  0.00  0.00    +0.153 C 
ENDROOT
BRANCH   2  17
ATOM     17  C   LIG A   1      -5.110   3.253 129.916  0.00  0.00    +0.133 C 
ATOM     18  C   LIG A   1      -3.706   3.699 130.565  0.00  0.00    +0.105 C 
ATOM     19  C   LIG A   1      -3.080   3.650 131.903  0.00  0.00    +0.045 C 
ATOM     20  C   LIG A   1      -2.746   3.959 129.420  0.00  0.00    +0.068 C 
ATOM     21  C   LIG A   1      -3.274   2.957 128.371  0.00  0.00    +0.044 C 
ATOM     22  C   LIG A   1      -4.773   3.295 128.379  0.00  0.00    +0.158 C 
ATOM     23  O   LIG A   1      -4.956   4.609 127.724  0.00  0.00    -0.333 OA
ATOM     24  C   LIG A   1      -4.293   5.681 128.404  0.00  0.00    +0.343 C 
ATOM     25  C   LIG A   1      -2.828   5.341 128.769  0.00  0.00    +0.154 C 
ATOM     26  C   LIG A   1      -2.479   6.657 129.355  0.00  0.00    +0.051 C 
ATOM     27  C   LIG A   1      -3.240   7.549 128.706  0.00  0.00    +0.189 C 
ATOM     28  O   LIG A   1      -4.176   6.999 127.800  0.00  0.00    -0.468 OA
ATOM     29  O   LIG A   1      -4.897   4.449 130.609  0.00  0.00    -0.358 OA
BRANCH  25  30
ATOM     30  O   LIG A   1      -1.971   5.263 127.598  0.00  0.00    -0.378 OA
ATOM     31  H   LIG A   1      -2.496   5.622 126.855  0.00  0.00    +0.211 HD
ENDBRANCH  25  30
ENDBRANCH   2  17
BRANCH   7  32
ATOM     32  O   LIG A   1      -9.861   2.680 129.035  0.00  0.00    -0.356 OA
ATOM     33  H   LIG A   1      -9.735   1.903 128.458  0.00  0.00    +0.213 HD
ENDBRANCH   7  32
BRANCH   7  34
ATOM     34  C   LIG A   1      -8.885   4.374 130.150  0.00  0.00    +0.367 C 
ATOM     35  O   LIG A   1      -9.822   4.402 130.947  0.00  0.00    -0.245 OA
BRANCH  34  36
ATOM     36  O   LIG A   1      -8.110   5.460 129.852  0.00  0.00    -0.464 OA
ATOM     37  C   LIG A   1      -7.898   6.408 130.894  0.00  0.00    +0.280 C 
ENDBRANCH  34  36
ENDBRANCH   7  34
BRANCH  15  38
ATOM     38  O   LIG A   1      -9.675   1.241 127.044  0.00  0.00    -0.391 OA
ATOM     39  H   LIG A   1      -9.557   2.148 127.383  0.00  0.00    +0.210 HD
ENDBRANCH  15  38
BRANCH  12  40
ATOM     40  C   LIG A   1      -7.389  -1.935 129.015  0.00  0.00    +0.319 C 
ATOM     41  O   LIG A   1      -7.977  -1.400 129.954  0.00  0.00    -0.250 OA
BRANCH  40  42
ATOM     42  O   LIG A   1      -7.470  -3.265 128.726  0.00  0.00    -0.467 OA
ATOM     43  C   LIG A   1      -8.794  -3.757 128.485  0.00  0.00    +0.280 C 
ENDBRANCH  40  42
ENDBRANCH  12  40
BRANCH  16  44
ATOM     44  O   LIG A   1      -4.775   0.770 131.776  0.00  0.00    -0.389 OA
ATOM     45  H   LIG A   1      -4.589  -0.188 131.855  0.00  0.00    +0.210 HD
ENDBRANCH  16  44
BRANCH  13  46
ATOM     46  O   LIG A   1      -5.909  -0.958 125.667  0.00  0.00    -0.457 OA
BRANCH  46  47
ATOM     47  C   LIG A   1      -6.100  -1.274 124.353  0.00  0.00    +0.335 C 
ATOM     48  O   LIG A   1      -6.401  -0.474 123.484  0.00  0.00    -0.245 OA
BRANCH  47  49
ATOM     49  C   LIG A   1      -5.879  -2.739 124.108  0.00  0.00    +0.029 C 
ATOM     50  C   LIG A   1      -7.149  -3.539 124.116  0.00  0.00    +0.051 C 
ATOM     51  C   LIG A   1      -4.645  -3.256 123.905  0.00  0.00    -0.020 C 
ATOM     52  C   LIG A   1      -4.319  -4.669 123.522  0.00  0.00    +0.035 C 
ENDBRANCH  47  49
ENDBRANCH  46  47
ENDBRANCH  13  46
TORSDOF 12
ENDMDL
MODEL 8
REMARK VINA RESULT:      -8.1      2.938      6.966
REMARK  Name = NuBBE_1288
REMARK  18 active torsions:
REMARK  status: ('A' for Active; 'I' for Inactive)
REMARK    1  A    between atoms: C_1  and  C_2
REMARK    2  A    between atoms: C_2  and  C_41
REMARK    3  A    between atoms: C_8  and  O_9
REMARK    4  A    between atoms: C_8  and  C_10
REMARK    5  A    between atoms: C_10  and  O_11
REMARK    6  A    between atoms: O_11  and  C_12
REMARK    7  A    between atoms: C_20  and  C_34
REMARK    8  A    between atoms: C_21  and  O_23
REMARK    9  A    between atoms: O_23  and  C_24
REMARK   10  A    between atoms: C_24  and  C_25
REMARK   11  A    between atoms: C_25  and  C_26
REMARK   12  A    between atoms: C_27  and  C_28
REMARK   13  A    between atoms: C_31  and  O_33
REMARK   14  A    between atoms: C_34  and  O_35
REMARK   15  A    between atoms: O_35  and  C_36
REMARK   16  A    between atoms: C_38  and  O_40
REMARK   17  A    between atoms: C_42  and  C_43
REMARK   18  A    between atoms: C_52  and  O_56
REMARK                            x       y       z     vdW  Elec       q    Type
REMARK                         _______ _______ _______ _____ _____    ______ ____
ROOT
ATOM      1  C   LIG A   1      -6.301   4.843 133.255  0.00  0.00    +0.017 C 
ATOM      2  C   LIG A   1      -6.137   3.575 132.384  0.00  0.00    +0.039 C 
ATOM      3  C   LIG A   1      -7.478   2.621 132.462  0.00  0.00    +0.082 C 
ATOM      4  C   LIG A   1      -7.366   1.179 131.780  0.00  0.00    +0.036 C 
ATOM      5  C   LIG A   1      -7.967   1.528 130.395  0.00  0.00    +0.174 C 
ATOM      6  O   LIG A   1      -8.860   2.646 130.568  0.00  0.00    -0.339 OA
ATOM      7  C   LIG A   1      -8.805   3.137 131.907  0.00  0.00    +0.272 C 
ATOM      8  C   LIG A   1      -5.905   0.625 131.797  0.00  0.00    +0.054 C 
ATOM      9  C   LIG A   1      -4.732   1.476 132.275  0.00  0.00    +0.152 C 
ATOM     10  O   LIG A   1      -3.825   0.613 133.001  0.00  0.00    -0.372 OA
ATOM     11  C   LIG A   1      -4.136  -0.728 132.582  0.00  0.00    +0.182 C 
ATOM     12  C   LIG A   1      -5.657  -0.712 132.550  0.00  0.00    +0.133 C 
ATOM     13  C   LIG A   1      -6.403  -1.803 131.797  0.00  0.00    +0.199 C 
ATOM     14  C   LIG A   1      -7.898  -1.407 131.674  0.00  0.00    +0.077 C 
ATOM     15  C   LIG A   1      -8.320  -0.017 132.259  0.00  0.00    +0.127 C 
ATOM     16  C   LIG A   1      -5.095   2.669 133.132  0.00  0.00    +0.153 C 
ENDROOT
BRANCH   2  17
ATOM     17  C   LIG A   1      -5.561   4.048 130.983  0.00  0.00    +0.133 C 
ATOM     18  C   LIG A   1      -4.735   3.240 129.862  0.00  0.00    +0.105 C 
ATOM     19  C   LIG A   1      -4.047   1.936 129.771  0.00  0.00    +0.045 C 
ATOM     20  C   LIG A   1      -5.017   3.909 128.530  0.00  0.00    +0.068 C 
ATOM     21  C   LIG A   1      -6.452   4.426 128.766  0.00  0.00    +0.044 C 
ATOM     22  C   LIG A   1      -6.279   5.147 130.113  0.00  0.00    +0.158 C 
ATOM     23  O   LIG A   1      -5.500   6.383 129.882  0.00  0.00    -0.333 OA
ATOM     24  C   LIG A   1      -4.182   6.139 129.378  0.00  0.00    +0.343 C 
ATOM     25  C   LIG A   1      -4.169   5.138 128.197  0.00  0.00    +0.154 C 
ATOM     26  C   LIG A   1      -2.715   5.206 127.920  0.00  0.00    +0.051 C 
ATOM     27  C   LIG A   1      -2.341   6.442 128.279  0.00  0.00    +0.189 C 
ATOM     28  O   LIG A   1      -3.350   7.226 128.888  0.00  0.00    -0.468 OA
ATOM     29  O   LIG A   1      -4.167   4.024 130.885  0.00  0.00    -0.358 OA
BRANCH  25  30
ATOM     30  O   LIG A   1      -4.761   5.697 126.994  0.00  0.00    -0.378 OA
ATOM     31  H   LIG A   1      -5.651   5.298 126.921  0.00  0.00    +0.211 HD
ENDBRANCH  25  30
ENDBRANCH   2  17
BRANCH   7  32
ATOM     32  O   LIG A   1      -9.857   2.479 132.645  0.00  0.00    -0.356 OA
ATOM     33  H   LIG A   1     -10.574   3.141 132.651  0.00  0.00    +0.213 HD
ENDBRANCH   7  32
BRANCH   7  34
ATOM     34  C   LIG A   1      -9.289   4.600 132.150  0.00  0.00    +0.367 C 
ATOM     35  O   LIG A   1      -9.586   5.104 133.233  0.00  0.00    -0.245 OA
BRANCH  34  36
ATOM     36  O   LIG A   1      -9.522   5.202 130.945  0.00  0.00    -0.464 OA
ATOM     37  C   LIG A   1      -9.561   6.626 130.930  0.00  0.00    +0.280 C 
ENDBRANCH  34  36
ENDBRANCH   7  34
BRANCH  15  38
ATOM     38  O   LIG A   1      -9.699   0.146 131.870  0.00  0.00    -0.391 OA
ATOM     39  H   LIG A   1      -9.723   0.700 131.067  0.00  0.00    +0.210 HD
ENDBRANCH  15  38
BRANCH  12  40
ATOM     40  C   LIG A   1      -6.010  -0.785 134.043  0.00  0.00    +0.319 C 
ATOM     41  O   LIG A   1      -6.399   0.168 134.716  0.00  0.00    -0.250 OA
BRANCH  40  42
ATOM     42  O   LIG A   1      -5.794  -2.033 134.545  0.00  0.00    -0.467 OA
ATOM     43  C   LIG A   1      -6.862  -2.565 135.339  0.00  0.00    +0.280 C 
ENDBRANCH  40  42
ENDBRANCH  12  40
BRANCH  16  44
ATOM     44  O   LIG A   1      -3.899   3.344 133.528  0.00  0.00    -0.389 OA
ATOM     45  H   LIG A   1      -4.036   3.590 134.466  0.00  0.00    +0.210 HD
ENDBRANCH  16  44
BRANCH  13  46
ATOM     46  O   LIG A   1      -5.897  -1.953 130.440  0.00  0.00    -0.457 OA
BRANCH  46  47
ATOM     47  C   LIG A   1      -6.100  -3.147 129.810  0.00  0.00    +0.335 C 
ATOM     48  O   LIG A   1      -5.628  -4.211 130.172  0.00  0.00    -0.245 OA
BRANCH  47  49
ATOM     49  C   LIG A   1      -6.994  -2.985 128.614  0.00  0.00    +0.029 C 
ATOM     50  C   LIG A   1      -6.427  -2.065 127.571  0.00  0.00    +0.051 C 
ATOM     51  C   LIG A   1      -8.186  -3.617 128.516  0.00  0.00    -0.020 C 
ATOM     52  C   LIG A   1      -9.094  -3.636 127.322  0.00  0.00    +0.035 C 
ENDBRANCH  47  49
ENDBRANCH  46  47
ENDBRANCH  13  46
TORSDOF 12
ENDMDL
MODEL 9
REMARK VINA RESULT:      -8.0      2.339      7.027
REMARK  Name = NuBBE_1288
REMARK  18 active torsions:
REMARK  status: ('A' for Active; 'I' for Inactive)
REMARK    1  A    between atoms: C_1  and  C_2
REMARK    2  A    between atoms: C_2  and  C_41
REMARK    3  A    between atoms: C_8  and  O_9
REMARK    4  A    between atoms: C_8  and  C_10
REMARK    5  A    between atoms: C_10  and  O_11
REMARK    6  A    between atoms: O_11  and  C_12
REMARK    7  A    between atoms: C_20  and  C_34
REMARK    8  A    between atoms: C_21  and  O_23
REMARK    9  A    between atoms: O_23  and  C_24
REMARK   10  A    between atoms: C_24  and  C_25
REMARK   11  A    between atoms: C_25  and  C_26
REMARK   12  A    between atoms: C_27  and  C_28
REMARK   13  A    between atoms: C_31  and  O_33
REMARK   14  A    between atoms: C_34  and  O_35
REMARK   15  A    between atoms: O_35  and  C_36
REMARK   16  A    between atoms: C_38  and  O_40
REMARK   17  A    between atoms: C_42  and  C_43
REMARK   18  A    between atoms: C_52  and  O_56
REMARK                            x       y       z     vdW  Elec       q    Type
REMARK                         _______ _______ _______ _____ _____    ______ ____
ROOT
ATOM      1  C   LIG A   1      -7.523   3.922 133.212  0.00  0.00    +0.017 C 
ATOM      2  C   LIG A   1      -6.815   3.373 131.951  0.00  0.00    +0.039 C 
ATOM      3  C   LIG A   1      -7.907   2.954 130.789  0.00  0.00    +0.082 C 
ATOM      4  C   LIG A   1      -7.328   2.177 129.516  0.00  0.00    +0.036 C 
ATOM      5  C   LIG A   1      -7.124   3.390 128.575  0.00  0.00    +0.174 C 
ATOM      6  O   LIG A   1      -8.062   4.415 128.962  0.00  0.00    -0.339 OA
ATOM      7  C   LIG A   1      -8.770   4.035 130.141  0.00  0.00    +0.272 C 
ATOM      8  C   LIG A   1      -6.061   1.331 129.862  0.00  0.00    +0.054 C 
ATOM      9  C   LIG A   1      -5.399   1.404 131.236  0.00  0.00    +0.152 C 
ATOM     10  O   LIG A   1      -4.951   0.073 131.584  0.00  0.00    -0.372 OA
ATOM     11  C   LIG A   1      -4.877  -0.655 130.345  0.00  0.00    +0.182 C 
ATOM     12  C   LIG A   1      -6.142  -0.204 129.629  0.00  0.00    +0.133 C 
ATOM     13  C   LIG A   1      -6.278  -0.430 128.131  0.00  0.00    +0.199 C 
ATOM     14  C   LIG A   1      -7.504   0.362 127.605  0.00  0.00    +0.077 C 
ATOM     15  C   LIG A   1      -8.287   1.239 128.640  0.00  0.00    +0.127 C 
ATOM     16  C   LIG A   1      -6.261   1.958 132.349  0.00  0.00    +0.153 C 
ENDROOT
BRANCH   2  17
ATOM     17  C   LIG A   1      -5.623   4.367 131.621  0.00  0.00    +0.133 C 
ATOM     18  C   LIG A   1      -4.845   5.418 132.559  0.00  0.00    +0.105 C 
ATOM     19  C   LIG A   1      -5.036   5.999 133.904  0.00  0.00    +0.045 C 
ATOM     20  C   LIG A   1      -3.454   5.589 131.981  0.00  0.00    +0.068 C 
ATOM     21  C   LIG A   1      -3.225   4.192 131.365  0.00  0.00    +0.044 C 
ATOM     22  C   LIG A   1      -4.519   4.021 130.553  0.00  0.00    +0.158 C 
ATOM     23  O   LIG A   1      -4.458   4.927 129.386  0.00  0.00    -0.333 OA
ATOM     24  C   LIG A   1      -4.382   6.312 129.744  0.00  0.00    +0.343 C 
ATOM     25  C   LIG A   1      -3.317   6.590 130.832  0.00  0.00    +0.154 C 
ATOM     26  C   LIG A   1      -3.479   8.063 130.869  0.00  0.00    +0.051 C 
ATOM     27  C   LIG A   1      -3.861   8.411 129.632  0.00  0.00    +0.189 C 
ATOM     28  O   LIG A   1      -4.099   7.333 128.748  0.00  0.00    -0.468 OA
ATOM     29  O   LIG A   1      -5.944   5.723 131.733  0.00  0.00    -0.358 OA
BRANCH  25  30
ATOM     30  O   LIG A   1      -1.963   6.419 130.334  0.00  0.00    -0.378 OA
ATOM     31  H   LIG A   1      -1.379   6.473 131.117  0.00  0.00    +0.211 HD
ENDBRANCH  25  30
ENDBRANCH   2  17
BRANCH   7  32
ATOM     32  O   LIG A   1      -9.995   3.399 129.715  0.00  0.00    -0.356 OA
ATOM     33  H   LIG A   1      -9.832   3.210 128.771  0.00  0.00    +0.213 HD
ENDBRANCH   7  32
BRANCH   7  34
ATOM     34  C   LIG A   1      -9.430   5.177 130.975  0.00  0.00    +0.367 C 
ATOM     35  O   LIG A   1     -10.385   5.066 131.743  0.00  0.00    -0.245 OA
BRANCH  34  36
ATOM     36  O   LIG A   1      -8.907   6.378 130.583  0.00  0.00    -0.464 OA
ATOM     37  C   LIG A   1      -9.795   7.292 129.947  0.00  0.00    +0.280 C 
ENDBRANCH  34  36
ENDBRANCH   7  34
BRANCH  15  38
ATOM     38  O   LIG A   1      -9.254   1.965 127.854  0.00  0.00    -0.391 OA
ATOM     39  H   LIG A   1     -10.050   1.408 127.765  0.00  0.00    +0.210 HD
ENDBRANCH  15  38
BRANCH  12  40
ATOM     40  C   LIG A   1      -7.229  -0.998 130.369  0.00  0.00    +0.319 C 
ATOM     41  O   LIG A   1      -8.120  -0.494 131.051  0.00  0.00    -0.250 OA
BRANCH  40  42
ATOM     42  O   LIG A   1      -7.058  -2.341 130.213  0.00  0.00    -0.467 OA
ATOM     43  C   LIG A   1      -8.169  -3.035 129.631  0.00  0.00    +0.280 C 
ENDBRANCH  40  42
ENDBRANCH  12  40
BRANCH  16  44
ATOM     44  O   LIG A   1      -5.523   1.934 133.572  0.00  0.00    -0.389 OA
ATOM     45  H   LIG A   1      -5.855   1.154 134.063  0.00  0.00    +0.210 HD
ENDBRANCH  16  44
BRANCH  13  46
ATOM     46  O   LIG A   1      -5.115   0.071 127.412  0.00  0.00    -0.457 OA
BRANCH  46  47
ATOM     47  C   LIG A   1      -5.280   0.439 126.107  0.00  0.00    +0.335 C 
ATOM     48  O   LIG A   1      -5.573  -0.325 125.204  0.00  0.00    -0.245 OA
BRANCH  47  49
ATOM     49  C   LIG A   1      -5.064   1.914 125.927  0.00  0.00    +0.029 C 
ATOM     50  C   LIG A   1      -3.950   2.458 126.774  0.00  0.00    +0.051 C 
ATOM     51  C   LIG A   1      -5.816   2.652 125.078  0.00  0.00    -0.020 C 
ATOM     52  C   LIG A   1      -5.607   4.093 124.719  0.00  0.00    +0.035 C 
ENDBRANCH  47  49
ENDBRANCH  46  47
ENDBRANCH  13  46
TORSDOF 12
ENDMDL
