MODEL 1
REMARK VINA RESULT:      -8.6      0.000      0.000
REMARK  Name = NuBBE_1330
REMARK  11 active torsions:
REMARK  status: ('A' for Active; 'I' for Inactive)
REMARK    1  A    between atoms: C_4  and  C_5
REMARK    2  A    between atoms: C_8  and  O_9
REMARK    3  A    between atoms: C_12  and  O_13
REMARK    4  A    between atoms: C_19  and  C_20
REMARK    5  A    between atoms: C_19  and  C_21
REMARK    6  A    between atoms: C_24  and  C_25
REMARK    7  A    between atoms: C_25  and  C_26
REMARK    8  A    between atoms: C_27  and  C_28
REMARK    9  A    between atoms: C_27  and  C_29
REMARK   10  A    between atoms: C_30  and  O_31
REMARK   11  A    between atoms: O_31  and  C_32
REMARK                            x       y       z     vdW  Elec       q    Type
REMARK                         _______ _______ _______ _____ _____    ______ ____
ROOT
ATOM      1  O   LIG A   1      -7.812   4.869 124.897  0.00  0.00    -0.244 OA
ATOM      2  C   LIG A   1      -7.733   3.667 125.102  0.00  0.00    +0.349 A 
ATOM      3  O   LIG A   1      -7.848   3.160 126.389  0.00  0.00    -0.421 OA
ATOM      4  C   LIG A   1      -7.507   2.677 124.021  0.00  0.00    +0.109 A 
ATOM      5  C   LIG A   1      -7.367   1.371 124.322  0.00  0.00    +0.146 A 
ATOM      6  C   LIG A   1      -7.474   0.846 125.716  0.00  0.00    +0.102 A 
ATOM      7  C   LIG A   1      -7.740   1.787 126.714  0.00  0.00    +0.157 A 
ATOM      8  C   LIG A   1      -7.892   1.441 128.065  0.00  0.00    +0.060 A 
ATOM      9  C   LIG A   1      -8.104   2.448 129.101  0.00  0.00    +0.015 C 
ATOM     10  C   LIG A   1      -8.129   2.057 130.378  0.00  0.00    +0.020 C 
ATOM     11  C   LIG A   1      -7.990   0.617 130.795  0.00  0.00    +0.123 C 
ATOM     12  C   LIG A   1      -6.666   0.409 131.541  0.00  0.00    +0.060 C 
ATOM     13  C   LIG A   1      -9.160   0.247 131.715  0.00  0.00    +0.060 C 
ATOM     14  O   LIG A   1      -8.023  -0.331 129.712  0.00  0.00    -0.481 OA
ATOM     15  C   LIG A   1      -7.829   0.092 128.419  0.00  0.00    +0.139 A 
ATOM     16  C   LIG A   1      -7.573  -0.919 127.453  0.00  0.00    +0.041 A 
ATOM     17  C   LIG A   1      -7.357  -0.526 126.103  0.00  0.00    +0.141 A 
ENDROOT
BRANCH   4  18
ATOM     18  C   LIG A   1      -7.429   3.159 122.617  0.00  0.00    -0.007 A 
ATOM     19  C   LIG A   1      -6.199   3.521 122.045  0.00  0.00    +0.012 A 
ATOM     20  C   LIG A   1      -6.128   3.989 120.726  0.00  0.00    +0.046 A 
ATOM     21  C   LIG A   1      -7.293   4.107 119.975  0.00  0.00    +0.117 A 
ATOM     22  C   LIG A   1      -8.522   3.758 120.521  0.00  0.00    +0.046 A 
ATOM     23  C   LIG A   1      -8.591   3.280 121.836  0.00  0.00    +0.012 A 
BRANCH  21  24
ATOM     24  O   LIG A   1      -7.274   4.564 118.690  0.00  0.00    -0.507 OA
ATOM     25  H   LIG A   1      -7.807   5.373 118.637  0.00  0.00    +0.292 HD
ENDBRANCH  21  24
ENDBRANCH   4  18
BRANCH   5  26
ATOM     26  O   LIG A   1      -7.135   0.457 123.305  0.00  0.00    -0.505 OA
ATOM     27  H   LIG A   1      -7.210  -0.437 123.687  0.00  0.00    +0.292 HD
ENDBRANCH   5  26
BRANCH  17  28
ATOM     28  O   LIG A   1      -6.903  -1.335 125.087  0.00  0.00    -0.494 OA
ATOM     29  C   LIG A   1      -5.569  -1.814 125.035  0.00  0.00    +0.277 C 
ENDBRANCH  17  28
BRANCH  16  30
ATOM     30  C   LIG A   1      -7.569  -2.355 127.963  0.00  0.00    +0.069 C 
BRANCH  30  31
ATOM     31  C   LIG A   1      -6.211  -2.784 128.479  0.00  0.00    -0.023 C 
ATOM     32  C   LIG A   1      -5.902  -3.243 129.709  0.00  0.00    -0.079 C 
ATOM     33  C   LIG A   1      -6.882  -3.399 130.836  0.00  0.00    +0.038 C 
ATOM     34  C   LIG A   1      -4.490  -3.643 130.054  0.00  0.00    +0.038 C 
ENDBRANCH  30  31
ENDBRANCH  16  30
TORSDOF 6
ENDMDL
MODEL 2
REMARK VINA RESULT:      -8.5      2.290      8.325
REMARK  Name = NuBBE_1330
REMARK  11 active torsions:
REMARK  status: ('A' for Active; 'I' for Inactive)
REMARK    1  A    between atoms: C_4  and  C_5
REMARK    2  A    between atoms: C_8  and  O_9
REMARK    3  A    between atoms: C_12  and  O_13
REMARK    4  A    between atoms: C_19  and  C_20
REMARK    5  A    between atoms: C_19  and  C_21
REMARK    6  A    between atoms: C_24  and  C_25
REMARK    7  A    between atoms: C_25  and  C_26
REMARK    8  A    between atoms: C_27  and  C_28
REMARK    9  A    between atoms: C_27  and  C_29
REMARK   10  A    between atoms: C_30  and  O_31
REMARK   11  A    between atoms: O_31  and  C_32
REMARK                            x       y       z     vdW  Elec       q    Type
REMARK                         _______ _______ _______ _____ _____    ______ ____
ROOT
ATOM      1  O   LIG A   1      -7.675  -0.410 130.668  0.00  0.00    -0.244 OA
ATOM      2  C   LIG A   1      -7.906   0.242 129.662  0.00  0.00    +0.349 A 
ATOM      3  O   LIG A   1      -7.861  -0.351 128.407  0.00  0.00    -0.421 OA
ATOM      4  C   LIG A   1      -8.241   1.688 129.695  0.00  0.00    +0.109 A 
ATOM      5  C   LIG A   1      -8.424   2.364 128.545  0.00  0.00    +0.146 A 
ATOM      6  C   LIG A   1      -8.351   1.712 127.203  0.00  0.00    +0.102 A 
ATOM      7  C   LIG A   1      -8.088   0.340 127.193  0.00  0.00    +0.157 A 
ATOM      8  C   LIG A   1      -8.013  -0.412 126.012  0.00  0.00    +0.060 A 
ATOM      9  C   LIG A   1      -7.672  -1.832 126.021  0.00  0.00    +0.015 C 
ATOM     10  C   LIG A   1      -7.511  -2.458 124.852  0.00  0.00    +0.020 C 
ATOM     11  C   LIG A   1      -7.708  -1.776 123.524  0.00  0.00    +0.123 C 
ATOM     12  C   LIG A   1      -6.367  -1.657 122.789  0.00  0.00    +0.060 C 
ATOM     13  C   LIG A   1      -8.686  -2.600 122.677  0.00  0.00    +0.060 C 
ATOM     14  O   LIG A   1      -8.270  -0.453 123.603  0.00  0.00    -0.481 OA
ATOM     15  C   LIG A   1      -8.268   0.227 124.798  0.00  0.00    +0.139 A 
ATOM     16  C   LIG A   1      -8.554   1.619 124.735  0.00  0.00    +0.041 A 
ATOM     17  C   LIG A   1      -8.554   2.365 125.946  0.00  0.00    +0.141 A 
ENDROOT
BRANCH   4  18
ATOM     18  C   LIG A   1      -8.356   2.362 131.016  0.00  0.00    -0.007 A 
ATOM     19  C   LIG A   1      -7.276   3.078 131.557  0.00  0.00    +0.012 A 
ATOM     20  C   LIG A   1      -7.381   3.702 132.808  0.00  0.00    +0.046 A 
ATOM     21  C   LIG A   1      -8.566   3.602 133.529  0.00  0.00    +0.117 A 
ATOM     22  C   LIG A   1      -9.646   2.896 133.014  0.00  0.00    +0.046 A 
ATOM     23  C   LIG A   1      -9.545   2.282 131.759  0.00  0.00    +0.012 A 
BRANCH  21  24
ATOM     24  O   LIG A   1      -8.711   4.187 134.752  0.00  0.00    -0.507 OA
ATOM     25  H   LIG A   1      -8.365   3.584 135.430  0.00  0.00    +0.292 HD
ENDBRANCH  21  24
ENDBRANCH   4  18
BRANCH   5  26
ATOM     26  O   LIG A   1      -8.715   3.719 128.589  0.00  0.00    -0.505 OA
ATOM     27  H   LIG A   1      -8.775   4.040 127.670  0.00  0.00    +0.292 HD
ENDBRANCH   5  26
BRANCH  17  28
ATOM     28  O   LIG A   1      -8.609   3.735 126.053  0.00  0.00    -0.494 OA
ATOM     29  C   LIG A   1      -7.525   4.571 125.680  0.00  0.00    +0.277 C 
ENDBRANCH  17  28
BRANCH  16  30
ATOM     30  C   LIG A   1      -8.853   2.186 123.352  0.00  0.00    +0.069 C 
BRANCH  30  31
ATOM     31  C   LIG A   1      -7.614   2.724 122.666  0.00  0.00    -0.023 C 
ATOM     32  C   LIG A   1      -7.545   3.421 121.513  0.00  0.00    -0.079 C 
ATOM     33  C   LIG A   1      -8.727   3.785 120.661  0.00  0.00    +0.038 C 
ATOM     34  C   LIG A   1      -6.220   3.898 120.975  0.00  0.00    +0.038 C 
ENDBRANCH  30  31
ENDBRANCH  16  30
TORSDOF 6
ENDMDL
MODEL 3
REMARK VINA RESULT:      -8.1      5.441      7.591
REMARK  Name = NuBBE_1330
REMARK  11 active torsions:
REMARK  status: ('A' for Active; 'I' for Inactive)
REMARK    1  A    between atoms: C_4  and  C_5
REMARK    2  A    between atoms: C_8  and  O_9
REMARK    3  A    between atoms: C_12  and  O_13
REMARK    4  A    between atoms: C_19  and  C_20
REMARK    5  A    between atoms: C_19  and  C_21
REMARK    6  A    between atoms: C_24  and  C_25
REMARK    7  A    between atoms: C_25  and  C_26
REMARK    8  A    between atoms: C_27  and  C_28
REMARK    9  A    between atoms: C_27  and  C_29
REMARK   10  A    between atoms: C_30  and  O_31
REMARK   11  A    between atoms: O_31  and  C_32
REMARK                            x       y       z     vdW  Elec       q    Type
REMARK                         _______ _______ _______ _____ _____    ______ ____
ROOT
ATOM      1  O   LIG A   1     -12.035   4.188 130.022  0.00  0.00    -0.244 OA
ATOM      2  C   LIG A   1     -10.825   4.340 130.103  0.00  0.00    +0.349 A 
ATOM      3  O   LIG A   1      -9.988   3.255 130.325  0.00  0.00    -0.421 OA
ATOM      4  C   LIG A   1     -10.168   5.664 129.979  0.00  0.00    +0.109 A 
ATOM      5  C   LIG A   1      -8.835   5.773 130.140  0.00  0.00    +0.146 A 
ATOM      6  C   LIG A   1      -7.953   4.596 130.399  0.00  0.00    +0.102 A 
ATOM      7  C   LIG A   1      -8.583   3.350 130.460  0.00  0.00    +0.157 A 
ATOM      8  C   LIG A   1      -7.884   2.153 130.672  0.00  0.00    +0.060 A 
ATOM      9  C   LIG A   1      -8.569   0.870 130.797  0.00  0.00    +0.015 C 
ATOM     10  C   LIG A   1      -7.850  -0.212 131.109  0.00  0.00    +0.020 C 
ATOM     11  C   LIG A   1      -6.356  -0.175 131.295  0.00  0.00    +0.123 C 
ATOM     12  C   LIG A   1      -6.001  -0.442 132.763  0.00  0.00    +0.060 C 
ATOM     13  C   LIG A   1      -5.714  -1.250 130.409  0.00  0.00    +0.060 C 
ATOM     14  O   LIG A   1      -5.732   1.068 130.924  0.00  0.00    -0.481 OA
ATOM     15  C   LIG A   1      -6.492   2.203 130.772  0.00  0.00    +0.139 A 
ATOM     16  C   LIG A   1      -5.785   3.435 130.708  0.00  0.00    +0.041 A 
ATOM     17  C   LIG A   1      -6.532   4.637 130.560  0.00  0.00    +0.141 A 
ENDROOT
BRANCH   4  18
ATOM     18  C   LIG A   1     -11.011   6.854 129.687  0.00  0.00    -0.007 A 
ATOM     19  C   LIG A   1     -11.836   7.414 130.675  0.00  0.00    +0.012 A 
ATOM     20  C   LIG A   1     -12.642   8.527 130.395  0.00  0.00    +0.046 A 
ATOM     21  C   LIG A   1     -12.631   9.079 129.119  0.00  0.00    +0.117 A 
ATOM     22  C   LIG A   1     -11.825   8.539 128.124  0.00  0.00    +0.046 A 
ATOM     23  C   LIG A   1     -11.013   7.434 128.407  0.00  0.00    +0.012 A 
BRANCH  21  24
ATOM     24  O   LIG A   1     -13.403  10.157 128.799  0.00  0.00    -0.507 OA
ATOM     25  H   LIG A   1     -14.109   9.869 128.197  0.00  0.00    +0.292 HD
ENDBRANCH  21  24
ENDBRANCH   4  18
BRANCH   5  26
ATOM     26  O   LIG A   1      -8.235   7.019 130.042  0.00  0.00    -0.505 OA
ATOM     27  H   LIG A   1      -7.313   6.883 129.756  0.00  0.00    +0.292 HD
ENDBRANCH   5  26
BRANCH  17  28
ATOM     28  O   LIG A   1      -6.040   5.916 130.680  0.00  0.00    -0.494 OA
ATOM     29  C   LIG A   1      -5.498   6.411 131.894  0.00  0.00    +0.277 C 
ENDBRANCH  17  28
BRANCH  16  30
ATOM     30  C   LIG A   1      -4.266   3.347 130.790  0.00  0.00    +0.069 C 
BRANCH  30  31
ATOM     31  C   LIG A   1      -3.615   3.287 129.423  0.00  0.00    -0.023 C 
ATOM     32  C   LIG A   1      -2.969   4.277 128.772  0.00  0.00    -0.079 C 
ATOM     33  C   LIG A   1      -2.791   5.673 129.296  0.00  0.00    +0.038 C 
ATOM     34  C   LIG A   1      -2.361   4.041 127.413  0.00  0.00    +0.038 C 
ENDBRANCH  30  31
ENDBRANCH  16  30
TORSDOF 6
ENDMDL
MODEL 4
REMARK VINA RESULT:      -7.9      4.650      7.233
REMARK  Name = NuBBE_1330
REMARK  11 active torsions:
REMARK  status: ('A' for Active; 'I' for Inactive)
REMARK    1  A    between atoms: C_4  and  C_5
REMARK    2  A    between atoms: C_8  and  O_9
REMARK    3  A    between atoms: C_12  and  O_13
REMARK    4  A    between atoms: C_19  and  C_20
REMARK    5  A    between atoms: C_19  and  C_21
REMARK    6  A    between atoms: C_24  and  C_25
REMARK    7  A    between atoms: C_25  and  C_26
REMARK    8  A    between atoms: C_27  and  C_28
REMARK    9  A    between atoms: C_27  and  C_29
REMARK   10  A    between atoms: C_30  and  O_31
REMARK   11  A    between atoms: O_31  and  C_32
REMARK                            x       y       z     vdW  Elec       q    Type
REMARK                         _______ _______ _______ _____ _____    ______ ____
ROOT
ATOM      1  O   LIG A   1     -10.494   6.464 132.595  0.00  0.00    -0.244 OA
ATOM      2  C   LIG A   1      -9.741   5.849 131.855  0.00  0.00    +0.349 A 
ATOM      3  O   LIG A   1      -8.747   5.032 132.376  0.00  0.00    -0.421 OA
ATOM      4  C   LIG A   1      -9.823   5.926 130.375  0.00  0.00    +0.109 A 
ATOM      5  C   LIG A   1      -8.923   5.271 129.616  0.00  0.00    +0.146 A 
ATOM      6  C   LIG A   1      -7.847   4.413 130.196  0.00  0.00    +0.102 A 
ATOM      7  C   LIG A   1      -7.819   4.310 131.589  0.00  0.00    +0.157 A 
ATOM      8  C   LIG A   1      -6.883   3.523 132.275  0.00  0.00    +0.060 A 
ATOM      9  C   LIG A   1      -6.830   3.481 133.734  0.00  0.00    +0.015 C 
ATOM     10  C   LIG A   1      -5.843   2.797 134.318  0.00  0.00    +0.020 C 
ATOM     11  C   LIG A   1      -4.805   2.031 133.541  0.00  0.00    +0.123 C 
ATOM     12  C   LIG A   1      -3.430   2.692 133.704  0.00  0.00    +0.060 C 
ATOM     13  C   LIG A   1      -4.748   0.591 134.066  0.00  0.00    +0.060 C 
ATOM     14  O   LIG A   1      -5.065   1.928 132.129  0.00  0.00    -0.481 OA
ATOM     15  C   LIG A   1      -5.975   2.767 131.532  0.00  0.00    +0.139 A 
ATOM     16  C   LIG A   1      -5.954   2.815 130.110  0.00  0.00    +0.041 A 
ATOM     17  C   LIG A   1      -6.874   3.676 129.449  0.00  0.00    +0.141 A 
ENDROOT
BRANCH   4  18
ATOM     18  C   LIG A   1     -10.903   6.743 129.763  0.00  0.00    -0.007 A 
ATOM     19  C   LIG A   1     -12.217   6.255 129.678  0.00  0.00    +0.012 A 
ATOM     20  C   LIG A   1     -13.232   7.021 129.087  0.00  0.00    +0.046 A 
ATOM     21  C   LIG A   1     -12.934   8.277 128.570  0.00  0.00    +0.117 A 
ATOM     22  C   LIG A   1     -11.640   8.778 128.641  0.00  0.00    +0.046 A 
ATOM     23  C   LIG A   1     -10.628   8.018 129.240  0.00  0.00    +0.012 A 
BRANCH  21  24
ATOM     24  O   LIG A   1     -13.887   9.053 127.981  0.00  0.00    -0.507 OA
ATOM     25  H   LIG A   1     -13.510   9.929 127.799  0.00  0.00    +0.292 HD
ENDBRANCH  21  24
ENDBRANCH   4  18
BRANCH   5  26
ATOM     26  O   LIG A   1      -8.997   5.368 128.234  0.00  0.00    -0.505 OA
ATOM     27  H   LIG A   1      -9.661   6.049 128.020  0.00  0.00    +0.292 HD
ENDBRANCH   5  26
BRANCH  17  28
ATOM     28  O   LIG A   1      -6.863   3.999 128.112  0.00  0.00    -0.494 OA
ATOM     29  C   LIG A   1      -7.337   3.112 127.112  0.00  0.00    +0.277 C 
ENDBRANCH  17  28
BRANCH  16  30
ATOM     30  C   LIG A   1      -4.942   1.911 129.418  0.00  0.00    +0.069 C 
BRANCH  30  31
ATOM     31  C   LIG A   1      -3.770   2.684 128.849  0.00  0.00    -0.023 C 
ATOM     32  C   LIG A   1      -3.405   2.795 127.555  0.00  0.00    -0.079 C 
ATOM     33  C   LIG A   1      -4.109   2.133 126.406  0.00  0.00    +0.038 C 
ATOM     34  C   LIG A   1      -2.210   3.624 127.156  0.00  0.00    +0.038 C 
ENDBRANCH  30  31
ENDBRANCH  16  30
TORSDOF 6
ENDMDL
MODEL 5
REMARK VINA RESULT:      -7.9      3.312      6.408
REMARK  Name = NuBBE_1330
REMARK  11 active torsions:
REMARK  status: ('A' for Active; 'I' for Inactive)
REMARK    1  A    between atoms: C_4  and  C_5
REMARK    2  A    between atoms: C_8  and  O_9
REMARK    3  A    between atoms: C_12  and  O_13
REMARK    4  A    between atoms: C_19  and  C_20
REMARK    5  A    between atoms: C_19  and  C_21
REMARK    6  A    between atoms: C_24  and  C_25
REMARK    7  A    between atoms: C_25  and  C_26
REMARK    8  A    between atoms: C_27  and  C_28
REMARK    9  A    between atoms: C_27  and  C_29
REMARK   10  A    between atoms: C_30  and  O_31
REMARK   11  A    between atoms: O_31  and  C_32
REMARK                            x       y       z     vdW  Elec       q    Type
REMARK                         _______ _______ _______ _____ _____    ______ ____
ROOT
ATOM      1  O   LIG A   1      -8.412   2.566 132.512  0.00  0.00    -0.244 OA
ATOM      2  C   LIG A   1      -8.252   1.981 131.451  0.00  0.00    +0.349 A 
ATOM      3  O   LIG A   1      -7.611   0.751 131.409  0.00  0.00    -0.421 OA
ATOM      4  C   LIG A   1      -8.715   2.527 130.151  0.00  0.00    +0.109 A 
ATOM      5  C   LIG A   1      -8.453   1.863 129.009  0.00  0.00    +0.146 A 
ATOM      6  C   LIG A   1      -7.742   0.549 128.983  0.00  0.00    +0.102 A 
ATOM      7  C   LIG A   1      -7.362   0.025 130.221  0.00  0.00    +0.157 A 
ATOM      8  C   LIG A   1      -6.709  -1.209 130.357  0.00  0.00    +0.060 A 
ATOM      9  C   LIG A   1      -6.261  -1.708 131.654  0.00  0.00    +0.015 C 
ATOM     10  C   LIG A   1      -5.550  -2.837 131.694  0.00  0.00    +0.020 C 
ATOM     11  C   LIG A   1      -5.224  -3.643 130.465  0.00  0.00    +0.123 C 
ATOM     12  C   LIG A   1      -3.717  -3.589 130.183  0.00  0.00    +0.060 C 
ATOM     13  C   LIG A   1      -5.651  -5.098 130.692  0.00  0.00    +0.060 C 
ATOM     14  O   LIG A   1      -5.897  -3.214 129.267  0.00  0.00    -0.481 OA
ATOM     15  C   LIG A   1      -6.480  -1.971 129.210  0.00  0.00    +0.139 A 
ATOM     16  C   LIG A   1      -6.851  -1.504 127.919  0.00  0.00    +0.041 A 
ATOM     17  C   LIG A   1      -7.450  -0.218 127.811  0.00  0.00    +0.141 A 
ENDROOT
BRANCH   4  18
ATOM     18  C   LIG A   1      -9.456   3.817 130.143  0.00  0.00    -0.007 A 
ATOM     19  C   LIG A   1      -8.783   5.035 129.961  0.00  0.00    +0.012 A 
ATOM     20  C   LIG A   1      -9.480   6.251 129.967  0.00  0.00    +0.046 A 
ATOM     21  C   LIG A   1     -10.857   6.253 130.166  0.00  0.00    +0.117 A 
ATOM     22  C   LIG A   1     -11.543   5.059 130.352  0.00  0.00    +0.046 A 
ATOM     23  C   LIG A   1     -10.848   3.844 130.335  0.00  0.00    +0.012 A 
BRANCH  21  24
ATOM     24  O   LIG A   1     -11.575   7.412 130.187  0.00  0.00    -0.507 OA
ATOM     25  H   LIG A   1     -11.114   8.056 130.747  0.00  0.00    +0.292 HD
ENDBRANCH  21  24
ENDBRANCH   4  18
BRANCH   5  26
ATOM     26  O   LIG A   1      -8.872   2.394 127.799  0.00  0.00    -0.505 OA
ATOM     27  H   LIG A   1      -8.077   2.589 127.270  0.00  0.00    +0.292 HD
ENDBRANCH   5  26
BRANCH  17  28
ATOM     28  O   LIG A   1      -7.686   0.470 126.644  0.00  0.00    -0.494 OA
ATOM     29  C   LIG A   1      -6.638   0.901 125.791  0.00  0.00    +0.277 C 
ENDBRANCH  17  28
BRANCH  16  30
ATOM     30  C   LIG A   1      -6.582  -2.450 126.755  0.00  0.00    +0.069 C 
BRANCH  30  31
ATOM     31  C   LIG A   1      -7.840  -2.791 125.983  0.00  0.00    -0.023 C 
ATOM     32  C   LIG A   1      -7.990  -2.879 124.645  0.00  0.00    -0.079 C 
ATOM     33  C   LIG A   1      -6.901  -2.624 123.643  0.00  0.00    +0.038 C 
ATOM     34  C   LIG A   1      -9.320  -3.249 124.038  0.00  0.00    +0.038 C 
ENDBRANCH  30  31
ENDBRANCH  16  30
TORSDOF 6
ENDMDL
MODEL 6
REMARK VINA RESULT:      -7.8      6.576      8.443
REMARK  Name = NuBBE_1330
REMARK  11 active torsions:
REMARK  status: ('A' for Active; 'I' for Inactive)
REMARK    1  A    between atoms: C_4  and  C_5
REMARK    2  A    between atoms: C_8  and  O_9
REMARK    3  A    between atoms: C_12  and  O_13
REMARK    4  A    between atoms: C_19  and  C_20
REMARK    5  A    between atoms: C_19  and  C_21
REMARK    6  A    between atoms: C_24  and  C_25
REMARK    7  A    between atoms: C_25  and  C_26
REMARK    8  A    between atoms: C_27  and  C_28
REMARK    9  A    between atoms: C_27  and  C_29
REMARK   10  A    between atoms: C_30  and  O_31
REMARK   11  A    between atoms: O_31  and  C_32
REMARK                            x       y       z     vdW  Elec       q    Type
REMARK                         _______ _______ _______ _____ _____    ______ ____
ROOT
ATOM      1  O   LIG A   1     -11.356   3.503 130.008  0.00  0.00    -0.244 OA
ATOM      2  C   LIG A   1     -10.437   3.693 130.791  0.00  0.00    +0.349 A 
ATOM      3  O   LIG A   1      -9.636   2.640 131.212  0.00  0.00    -0.421 OA
ATOM      4  C   LIG A   1     -10.114   5.030 131.347  0.00  0.00    +0.109 A 
ATOM      5  C   LIG A   1      -9.127   5.162 132.255  0.00  0.00    +0.146 A 
ATOM      6  C   LIG A   1      -8.289   4.013 132.711  0.00  0.00    +0.102 A 
ATOM      7  C   LIG A   1      -8.573   2.771 132.137  0.00  0.00    +0.157 A 
ATOM      8  C   LIG A   1      -7.856   1.607 132.448  0.00  0.00    +0.060 A 
ATOM      9  C   LIG A   1      -8.212   0.307 131.886  0.00  0.00    +0.015 C 
ATOM     10  C   LIG A   1      -7.556  -0.775 132.312  0.00  0.00    +0.020 C 
ATOM     11  C   LIG A   1      -6.435  -0.710 133.316  0.00  0.00    +0.123 C 
ATOM     12  C   LIG A   1      -6.863  -1.378 134.629  0.00  0.00    +0.060 C 
ATOM     13  C   LIG A   1      -5.210  -1.437 132.746  0.00  0.00    +0.060 C 
ATOM     14  O   LIG A   1      -5.991   0.620 133.639  0.00  0.00    -0.481 OA
ATOM     15  C   LIG A   1      -6.777   1.704 133.328  0.00  0.00    +0.139 A 
ATOM     16  C   LIG A   1      -6.424   2.939 133.940  0.00  0.00    +0.041 A 
ATOM     17  C   LIG A   1      -7.215   4.086 133.654  0.00  0.00    +0.141 A 
ENDROOT
BRANCH   4  18
ATOM     18  C   LIG A   1     -10.906   6.203 130.889  0.00  0.00    -0.007 A 
ATOM     19  C   LIG A   1     -12.091   6.573 131.544  0.00  0.00    +0.012 A 
ATOM     20  C   LIG A   1     -12.844   7.671 131.103  0.00  0.00    +0.046 A 
ATOM     21  C   LIG A   1     -12.418   8.397 129.996  0.00  0.00    +0.117 A 
ATOM     22  C   LIG A   1     -11.249   8.046 129.331  0.00  0.00    +0.046 A 
ATOM     23  C   LIG A   1     -10.491   6.957 129.778  0.00  0.00    +0.012 A 
BRANCH  21  24
ATOM     24  O   LIG A   1     -13.121   9.467 129.528  0.00  0.00    -0.507 OA
ATOM     25  H   LIG A   1     -13.235  10.107 130.249  0.00  0.00    +0.292 HD
ENDBRANCH  21  24
ENDBRANCH   4  18
BRANCH   5  26
ATOM     26  O   LIG A   1      -8.848   6.414 132.783  0.00  0.00    -0.505 OA
ATOM     27  H   LIG A   1      -9.582   7.008 132.539  0.00  0.00    +0.292 HD
ENDBRANCH   5  26
BRANCH  17  28
ATOM     28  O   LIG A   1      -7.148   5.298 134.301  0.00  0.00    -0.494 OA
ATOM     29  C   LIG A   1      -7.500   5.452 135.666  0.00  0.00    +0.277 C 
ENDBRANCH  17  28
BRANCH  16  30
ATOM     30  C   LIG A   1      -5.201   2.917 134.849  0.00  0.00    +0.069 C 
BRANCH  30  31
ATOM     31  C   LIG A   1      -4.022   3.655 134.249  0.00  0.00    -0.023 C 
ATOM     32  C   LIG A   1      -3.046   3.153 133.465  0.00  0.00    -0.079 C 
ATOM     33  C   LIG A   1      -2.938   1.714 133.047  0.00  0.00    +0.038 C 
ATOM     34  C   LIG A   1      -1.945   4.037 132.936  0.00  0.00    +0.038 C 
ENDBRANCH  30  31
ENDBRANCH  16  30
TORSDOF 6
ENDMDL
MODEL 7
REMARK VINA RESULT:      -7.8      3.950      7.318
REMARK  Name = NuBBE_1330
REMARK  11 active torsions:
REMARK  status: ('A' for Active; 'I' for Inactive)
REMARK    1  A    between atoms: C_4  and  C_5
REMARK    2  A    between atoms: C_8  and  O_9
REMARK    3  A    between atoms: C_12  and  O_13
REMARK    4  A    between atoms: C_19  and  C_20
REMARK    5  A    between atoms: C_19  and  C_21
REMARK    6  A    between atoms: C_24  and  C_25
REMARK    7  A    between atoms: C_25  and  C_26
REMARK    8  A    between atoms: C_27  and  C_28
REMARK    9  A    between atoms: C_27  and  C_29
REMARK   10  A    between atoms: C_30  and  O_31
REMARK   11  A    between atoms: O_31  and  C_32
REMARK                            x       y       z     vdW  Elec       q    Type
REMARK                         _______ _______ _______ _____ _____    ______ ____
ROOT
ATOM      1  O   LIG A   1      -5.058   0.981 126.418  0.00  0.00    -0.244 OA
ATOM      2  C   LIG A   1      -5.809   1.686 127.075  0.00  0.00    +0.349 A 
ATOM      3  O   LIG A   1      -5.326   2.799 127.750  0.00  0.00    -0.421 OA
ATOM      4  C   LIG A   1      -7.262   1.416 127.206  0.00  0.00    +0.109 A 
ATOM      5  C   LIG A   1      -8.025   2.197 127.996  0.00  0.00    +0.146 A 
ATOM      6  C   LIG A   1      -7.482   3.378 128.731  0.00  0.00    +0.102 A 
ATOM      7  C   LIG A   1      -6.123   3.649 128.553  0.00  0.00    +0.157 A 
ATOM      8  C   LIG A   1      -5.478   4.737 129.159  0.00  0.00    +0.060 A 
ATOM      9  C   LIG A   1      -4.043   4.963 129.013  0.00  0.00    +0.015 C 
ATOM     10  C   LIG A   1      -3.479   5.955 129.707  0.00  0.00    +0.020 C 
ATOM     11  C   LIG A   1      -4.262   6.877 130.603  0.00  0.00    +0.123 C 
ATOM     12  C   LIG A   1      -3.878   6.640 132.069  0.00  0.00    +0.060 C 
ATOM     13  C   LIG A   1      -3.953   8.329 130.220  0.00  0.00    +0.060 C 
ATOM     14  O   LIG A   1      -5.692   6.738 130.508  0.00  0.00    -0.481 OA
ATOM     15  C   LIG A   1      -6.239   5.618 129.929  0.00  0.00    +0.139 A 
ATOM     16  C   LIG A   1      -7.630   5.410 130.142  0.00  0.00    +0.041 A 
ATOM     17  C   LIG A   1      -8.238   4.259 129.568  0.00  0.00    +0.141 A 
ENDROOT
BRANCH   4  18
ATOM     18  C   LIG A   1      -7.844   0.268 126.460  0.00  0.00    -0.007 A 
ATOM     19  C   LIG A   1      -8.354   0.435 125.163  0.00  0.00    +0.012 A 
ATOM     20  C   LIG A   1      -8.915  -0.644 124.465  0.00  0.00    +0.046 A 
ATOM     21  C   LIG A   1      -8.975  -1.896 125.069  0.00  0.00    +0.117 A 
ATOM     22  C   LIG A   1      -8.478  -2.083 126.353  0.00  0.00    +0.046 A 
ATOM     23  C   LIG A   1      -7.909  -1.007 127.045  0.00  0.00    +0.012 A 
BRANCH  21  24
ATOM     24  O   LIG A   1      -9.517  -2.973 124.432  0.00  0.00    -0.507 OA
ATOM     25  H   LIG A   1     -10.146  -2.657 123.763  0.00  0.00    +0.292 HD
ENDBRANCH  21  24
ENDBRANCH   4  18
BRANCH   5  26
ATOM     26  O   LIG A   1      -9.378   1.921 128.126  0.00  0.00    -0.505 OA
ATOM     27  H   LIG A   1      -9.530   1.609 129.037  0.00  0.00    +0.292 HD
ENDBRANCH   5  26
BRANCH  17  28
ATOM     28  O   LIG A   1      -9.505   3.795 129.832  0.00  0.00    -0.494 OA
ATOM     29  C   LIG A   1      -9.858   3.215 131.078  0.00  0.00    +0.277 C 
ENDBRANCH  17  28
BRANCH  16  30
ATOM     30  C   LIG A   1      -8.353   6.468 130.967  0.00  0.00    +0.069 C 
BRANCH  30  31
ATOM     31  C   LIG A   1      -9.424   7.189 130.175  0.00  0.00    -0.023 C 
ATOM     32  C   LIG A   1     -10.752   7.212 130.412  0.00  0.00    -0.079 C 
ATOM     33  C   LIG A   1     -11.434   6.484 131.534  0.00  0.00    +0.038 C 
ATOM     34  C   LIG A   1     -11.683   7.999 129.525  0.00  0.00    +0.038 C 
ENDBRANCH  30  31
ENDBRANCH  16  30
TORSDOF 6
ENDMDL
MODEL 8
REMARK VINA RESULT:      -7.6      5.109      8.217
REMARK  Name = NuBBE_1330
REMARK  11 active torsions:
REMARK  status: ('A' for Active; 'I' for Inactive)
REMARK    1  A    between atoms: C_4  and  C_5
REMARK    2  A    between atoms: C_8  and  O_9
REMARK    3  A    between atoms: C_12  and  O_13
REMARK    4  A    between atoms: C_19  and  C_20
REMARK    5  A    between atoms: C_19  and  C_21
REMARK    6  A    between atoms: C_24  and  C_25
REMARK    7  A    between atoms: C_25  and  C_26
REMARK    8  A    between atoms: C_27  and  C_28
REMARK    9  A    between atoms: C_27  and  C_29
REMARK   10  A    between atoms: C_30  and  O_31
REMARK   11  A    between atoms: O_31  and  C_32
REMARK                            x       y       z     vdW  Elec       q    Type
REMARK                         _______ _______ _______ _____ _____    ______ ____
ROOT
ATOM      1  O   LIG A   1      -2.220   6.730 128.095  0.00  0.00    -0.244 OA
ATOM      2  C   LIG A   1      -3.152   6.037 128.476  0.00  0.00    +0.349 A 
ATOM      3  O   LIG A   1      -3.896   5.290 127.572  0.00  0.00    -0.421 OA
ATOM      4  C   LIG A   1      -3.559   5.944 129.900  0.00  0.00    +0.109 A 
ATOM      5  C   LIG A   1      -4.635   5.211 130.246  0.00  0.00    +0.146 A 
ATOM      6  C   LIG A   1      -5.435   4.431 129.256  0.00  0.00    +0.102 A 
ATOM      7  C   LIG A   1      -5.005   4.488 127.928  0.00  0.00    +0.157 A 
ATOM      8  C   LIG A   1      -5.641   3.789 126.891  0.00  0.00    +0.060 A 
ATOM      9  C   LIG A   1      -5.215   3.915 125.500  0.00  0.00    +0.015 C 
ATOM     10  C   LIG A   1      -5.935   3.307 124.554  0.00  0.00    +0.020 C 
ATOM     11  C   LIG A   1      -7.143   2.463 124.860  0.00  0.00    +0.123 C 
ATOM     12  C   LIG A   1      -8.412   3.145 124.331  0.00  0.00    +0.060 C 
ATOM     13  C   LIG A   1      -6.980   1.093 124.191  0.00  0.00    +0.060 C 
ATOM     14  O   LIG A   1      -7.354   2.198 126.259  0.00  0.00    -0.481 OA
ATOM     15  C   LIG A   1      -6.716   2.957 127.210  0.00  0.00    +0.139 A 
ATOM     16  C   LIG A   1      -7.199   2.842 128.542  0.00  0.00    +0.041 A 
ATOM     17  C   LIG A   1      -6.573   3.618 129.558  0.00  0.00    +0.141 A 
ENDROOT
BRANCH   4  18
ATOM     18  C   LIG A   1      -2.764   6.681 130.918  0.00  0.00    -0.007 A 
ATOM     19  C   LIG A   1      -1.568   6.146 131.424  0.00  0.00    +0.012 A 
ATOM     20  C   LIG A   1      -0.826   6.835 132.394  0.00  0.00    +0.046 A 
ATOM     21  C   LIG A   1      -1.284   8.059 132.869  0.00  0.00    +0.117 A 
ATOM     22  C   LIG A   1      -2.466   8.605 132.384  0.00  0.00    +0.046 A 
ATOM     23  C   LIG A   1      -3.202   7.923 131.407  0.00  0.00    +0.012 A 
BRANCH  21  24
ATOM     24  O   LIG A   1      -0.599   8.761 133.817  0.00  0.00    -0.507 OA
ATOM     25  H   LIG A   1      -0.948   9.666 133.849  0.00  0.00    +0.292 HD
ENDBRANCH  21  24
ENDBRANCH   4  18
BRANCH   5  26
ATOM     26  O   LIG A   1      -5.017   5.149 131.578  0.00  0.00    -0.505 OA
ATOM     27  H   LIG A   1      -5.006   4.211 131.846  0.00  0.00    +0.292 HD
ENDBRANCH   5  26
BRANCH  17  28
ATOM     28  O   LIG A   1      -7.029   3.786 130.845  0.00  0.00    -0.494 OA
ATOM     29  C   LIG A   1      -8.230   4.480 131.142  0.00  0.00    +0.277 C 
ENDBRANCH  17  28
BRANCH  16  30
ATOM     30  C   LIG A   1      -8.352   1.870 128.762  0.00  0.00    +0.069 C 
BRANCH  30  31
ATOM     31  C   LIG A   1      -7.912   0.599 129.460  0.00  0.00    -0.023 C 
ATOM     32  C   LIG A   1      -8.275   0.162 130.684  0.00  0.00    -0.079 C 
ATOM     33  C   LIG A   1      -9.197   0.894 131.616  0.00  0.00    +0.038 C 
ATOM     34  C   LIG A   1      -7.752  -1.144 131.225  0.00  0.00    +0.038 C 
ENDBRANCH  30  31
ENDBRANCH  16  30
TORSDOF 6
ENDMDL
MODEL 9
REMARK VINA RESULT:      -7.5      3.861      9.100
REMARK  Name = NuBBE_1330
REMARK  11 active torsions:
REMARK  status: ('A' for Active; 'I' for Inactive)
REMARK    1  A    between atoms: C_4  and  C_5
REMARK    2  A    between atoms: C_8  and  O_9
REMARK    3  A    between atoms: C_12  and  O_13
REMARK    4  A    between atoms: C_19  and  C_20
REMARK    5  A    between atoms: C_19  and  C_21
REMARK    6  A    between atoms: C_24  and  C_25
REMARK    7  A    between atoms: C_25  and  C_26
REMARK    8  A    between atoms: C_27  and  C_28
REMARK    9  A    between atoms: C_27  and  C_29
REMARK   10  A    between atoms: C_30  and  O_31
REMARK   11  A    between atoms: O_31  and  C_32
REMARK                            x       y       z     vdW  Elec       q    Type
REMARK                         _______ _______ _______ _____ _____    ______ ____
ROOT
ATOM      1  O   LIG A   1      -5.532  -0.628 133.441  0.00  0.00    -0.244 OA
ATOM      2  C   LIG A   1      -5.716  -0.926 132.271  0.00  0.00    +0.349 A 
ATOM      3  O   LIG A   1      -5.329  -0.066 131.252  0.00  0.00    -0.421 OA
ATOM      4  C   LIG A   1      -6.357  -2.197 131.853  0.00  0.00    +0.109 A 
ATOM      5  C   LIG A   1      -6.588  -2.438 130.547  0.00  0.00    +0.146 A 
ATOM      6  C   LIG A   1      -6.182  -1.490 129.466  0.00  0.00    +0.102 A 
ATOM      7  C   LIG A   1      -5.532  -0.324 129.875  0.00  0.00    +0.157 A 
ATOM      8  C   LIG A   1      -5.071   0.647 128.974  0.00  0.00    +0.060 A 
ATOM      9  C   LIG A   1      -4.453   1.890 129.427  0.00  0.00    +0.015 C 
ATOM     10  C   LIG A   1      -4.139   2.816 128.517  0.00  0.00    +0.020 C 
ATOM     11  C   LIG A   1      -4.355   2.619 127.040  0.00  0.00    +0.123 C 
ATOM     12  C   LIG A   1      -5.446   3.573 126.535  0.00  0.00    +0.060 C 
ATOM     13  C   LIG A   1      -3.043   2.903 126.299  0.00  0.00    +0.060 C 
ATOM     14  O   LIG A   1      -4.745   1.287 126.660  0.00  0.00    -0.481 OA
ATOM     15  C   LIG A   1      -5.220   0.411 127.606  0.00  0.00    +0.139 A 
ATOM     16  C   LIG A   1      -5.862  -0.761 127.119  0.00  0.00    +0.041 A 
ATOM     17  C   LIG A   1      -6.377  -1.692 128.063  0.00  0.00    +0.141 A 
ENDROOT
BRANCH   4  18
ATOM     18  C   LIG A   1      -6.743  -3.179 132.901  0.00  0.00    -0.007 A 
ATOM     19  C   LIG A   1      -7.952  -3.048 133.601  0.00  0.00    +0.012 A 
ATOM     20  C   LIG A   1      -8.309  -3.967 134.599  0.00  0.00    +0.046 A 
ATOM     21  C   LIG A   1      -7.450  -5.016 134.906  0.00  0.00    +0.117 A 
ATOM     22  C   LIG A   1      -6.246  -5.163 134.227  0.00  0.00    +0.046 A 
ATOM     23  C   LIG A   1      -5.895  -4.252 133.223  0.00  0.00    +0.012 A 
BRANCH  21  24
ATOM     24  O   LIG A   1      -7.752  -5.929 135.873  0.00  0.00    -0.507 OA
ATOM     25  H   LIG A   1      -7.207  -6.721 135.737  0.00  0.00    +0.292 HD
ENDBRANCH  21  24
ENDBRANCH   4  18
BRANCH   5  26
ATOM     26  O   LIG A   1      -7.207  -3.620 130.171  0.00  0.00    -0.505 OA
ATOM     27  H   LIG A   1      -8.089  -3.395 129.824  0.00  0.00    +0.292 HD
ENDBRANCH   5  26
BRANCH  17  28
ATOM     28  O   LIG A   1      -7.193  -2.763 127.782  0.00  0.00    -0.494 OA
ATOM     29  C   LIG A   1      -8.482  -2.607 127.210  0.00  0.00    +0.277 C 
ENDBRANCH  17  28
BRANCH  16  30
ATOM     30  C   LIG A   1      -5.924  -0.918 125.605  0.00  0.00    +0.069 C 
BRANCH  30  31
ATOM     31  C   LIG A   1      -5.259  -2.193 125.127  0.00  0.00    -0.023 C 
ATOM     32  C   LIG A   1      -5.287  -2.724 123.887  0.00  0.00    -0.079 C 
ATOM     33  C   LIG A   1      -6.024  -2.134 122.719  0.00  0.00    +0.038 C 
ATOM     34  C   LIG A   1      -4.551  -4.003 123.576  0.00  0.00    +0.038 C 
ENDBRANCH  30  31
ENDBRANCH  16  30
TORSDOF 6
ENDMDL
