MODEL 1
REMARK VINA RESULT:      -8.3      0.000      0.000
REMARK  Name = NuBBE_2518
REMARK  7 active torsions:
REMARK  status: ('A' for Active; 'I' for Inactive)
REMARK    1  A    between atoms: C_1  and  C_2
REMARK    2  A    between atoms: C_1  and  C_4
REMARK    3  A    between atoms: C_5  and  O_6
REMARK    4  A    between atoms: C_9  and  C_14
REMARK    5  A    between atoms: C_11  and  C_13
REMARK    6  A    between atoms: C_23  and  O_28
REMARK    7  A    between atoms: O_28  and  C_29
REMARK                            x       y       z     vdW  Elec       q    Type
REMARK                         _______ _______ _______ _____ _____    ______ ____
ROOT
ATOM      1  C   LIG A   1      -6.597  -2.345 124.430  0.00  0.00    +0.010 C 
ATOM      2  C   LIG A   1      -6.367  -1.364 123.263  0.00  0.00    +0.128 C 
ATOM      3  C   LIG A   1      -7.595  -0.473 123.400  0.00  0.00    +0.062 C 
ATOM      4  C   LIG A   1      -7.519  -0.063 124.893  0.00  0.00    +0.031 C 
ATOM      5  C   LIG A   1      -7.035  -1.378 125.594  0.00  0.00    +0.003 C 
ATOM      6  C   LIG A   1      -8.104  -1.918 126.551  0.00  0.00    +0.009 C 
ATOM      7  C   LIG A   1      -8.903  -1.228 123.017  0.00  0.00    +0.190 C 
ATOM      8  C   LIG A   1      -8.944  -2.682 123.517  0.00  0.00    +0.163 C 
ATOM      9  O   LIG A   1      -9.974  -3.358 123.452  0.00  0.00    -0.295 OA
ATOM     10  C   LIG A   1      -7.684  -3.345 123.997  0.00  0.00    +0.087 C 
ENDROOT
BRANCH   4  11
ATOM     11  C   LIG A   1      -6.579   1.120 125.197  0.00  0.00    -0.040 A 
ATOM     12  C   LIG A   1      -5.633   1.100 126.240  0.00  0.00    +0.053 A 
ATOM     13  C   LIG A   1      -4.831   2.203 126.445  0.00  0.00    +0.167 A 
ATOM     14  C   LIG A   1      -4.913   3.319 125.655  0.00  0.00    +0.166 A 
ATOM     15  C   LIG A   1      -5.807   3.389 124.611  0.00  0.00    +0.050 A 
ATOM     16  C   LIG A   1      -6.638   2.281 124.381  0.00  0.00    +0.008 A 
ATOM     17  O   LIG A   1      -4.035   4.285 126.033  0.00  0.00    -0.453 OA
ATOM     18  C   LIG A   1      -3.405   3.651 127.168  0.00  0.00    +0.466 C 
ATOM     19  O   LIG A   1      -3.893   2.319 127.424  0.00  0.00    -0.453 OA
ENDBRANCH   4  11
BRANCH   2  20
ATOM     20  O   LIG A   1      -6.308  -1.990 121.998  0.00  0.00    -0.391 OA
ATOM     21  H   LIG A   1      -5.676  -2.730 122.065  0.00  0.00    +0.210 HD
ENDBRANCH   2  20
BRANCH   7  22
ATOM     22  O   LIG A   1      -9.978  -0.368 123.383  0.00  0.00    -0.372 OA
ATOM     23  C   LIG A   1     -10.185   0.723 122.495  0.00  0.00    +0.195 C 
ENDBRANCH   7  22
BRANCH   1  24
ATOM     24  C   LIG A   1      -5.280  -3.097 124.759  0.00  0.00    +0.036 C 
BRANCH  24  25
ATOM     25  C   LIG A   1      -5.071  -4.372 123.987  0.00  0.00    -0.034 C 
ATOM     26  C   LIG A   1      -3.901  -4.755 123.460  0.00  0.00    +0.004 C 
ENDBRANCH  24  25
ENDBRANCH   1  24
TORSDOF 5
ENDMDL
MODEL 2
REMARK VINA RESULT:      -7.5      7.966      9.357
REMARK  Name = NuBBE_2518
REMARK  7 active torsions:
REMARK  status: ('A' for Active; 'I' for Inactive)
REMARK    1  A    between atoms: C_1  and  C_2
REMARK    2  A    between atoms: C_1  and  C_4
REMARK    3  A    between atoms: C_5  and  O_6
REMARK    4  A    between atoms: C_9  and  C_14
REMARK    5  A    between atoms: C_11  and  C_13
REMARK    6  A    between atoms: C_23  and  O_28
REMARK    7  A    between atoms: O_28  and  C_29
REMARK                            x       y       z     vdW  Elec       q    Type
REMARK                         _______ _______ _______ _____ _____    ______ ____
ROOT
ATOM      1  C   LIG A   1      -9.751   4.248 131.018  0.00  0.00    +0.010 C 
ATOM      2  C   LIG A   1      -8.686   4.335 129.907  0.00  0.00    +0.128 C 
ATOM      3  C   LIG A   1      -8.678   5.835 129.644  0.00  0.00    +0.062 C 
ATOM      4  C   LIG A   1      -8.477   6.403 131.073  0.00  0.00    +0.031 C 
ATOM      5  C   LIG A   1      -9.352   5.448 131.956  0.00  0.00    +0.003 C 
ATOM      6  C   LIG A   1     -10.512   6.210 132.605  0.00  0.00    +0.009 C 
ATOM      7  C   LIG A   1      -9.993   6.309 128.955  0.00  0.00    +0.190 C 
ATOM      8  C   LIG A   1     -11.257   5.628 129.506  0.00  0.00    +0.163 C 
ATOM      9  O   LIG A   1     -12.387   6.015 129.195  0.00  0.00    -0.295 OA
ATOM     10  C   LIG A   1     -11.134   4.395 130.357  0.00  0.00    +0.087 C 
ENDROOT
BRANCH   4  11
ATOM     11  C   LIG A   1      -7.014   6.440 131.558  0.00  0.00    -0.040 A 
ATOM     12  C   LIG A   1      -5.974   7.030 130.815  0.00  0.00    +0.053 A 
ATOM     13  C   LIG A   1      -4.691   7.018 131.321  0.00  0.00    +0.167 A 
ATOM     14  C   LIG A   1      -4.395   6.462 132.537  0.00  0.00    +0.166 A 
ATOM     15  C   LIG A   1      -5.374   5.887 133.316  0.00  0.00    +0.050 A 
ATOM     16  C   LIG A   1      -6.689   5.882 132.823  0.00  0.00    +0.008 A 
ATOM     17  O   LIG A   1      -3.073   6.559 132.841  0.00  0.00    -0.453 OA
ATOM     18  C   LIG A   1      -2.571   7.222 131.660  0.00  0.00    +0.466 C 
ATOM     19  O   LIG A   1      -3.598   7.535 130.698  0.00  0.00    -0.453 OA
ENDBRANCH   4  11
BRANCH   2  20
ATOM     20  O   LIG A   1      -9.012   3.598 128.747  0.00  0.00    -0.391 OA
ATOM     21  H   LIG A   1      -9.376   4.224 128.093  0.00  0.00    +0.210 HD
ENDBRANCH   2  20
BRANCH   7  22
ATOM     22  O   LIG A   1      -9.950   7.733 128.956  0.00  0.00    -0.372 OA
ATOM     23  C   LIG A   1     -10.513   8.337 127.799  0.00  0.00    +0.195 C 
ENDBRANCH   7  22
BRANCH   1  24
ATOM     24  C   LIG A   1      -9.650   2.880 131.744  0.00  0.00    +0.036 C 
BRANCH  24  25
ATOM     25  C   LIG A   1      -8.970   2.925 133.086  0.00  0.00    -0.034 C 
ATOM     26  C   LIG A   1      -7.772   2.389 133.347  0.00  0.00    +0.004 C 
ENDBRANCH  24  25
ENDBRANCH   1  24
TORSDOF 5
ENDMDL
MODEL 3
REMARK VINA RESULT:      -7.3      2.472      3.310
REMARK  Name = NuBBE_2518
REMARK  7 active torsions:
REMARK  status: ('A' for Active; 'I' for Inactive)
REMARK    1  A    between atoms: C_1  and  C_2
REMARK    2  A    between atoms: C_1  and  C_4
REMARK    3  A    between atoms: C_5  and  O_6
REMARK    4  A    between atoms: C_9  and  C_14
REMARK    5  A    between atoms: C_11  and  C_13
REMARK    6  A    between atoms: C_23  and  O_28
REMARK    7  A    between atoms: O_28  and  C_29
REMARK                            x       y       z     vdW  Elec       q    Type
REMARK                         _______ _______ _______ _____ _____    ______ ____
ROOT
ATOM      1  C   LIG A   1      -7.447  -2.628 124.272  0.00  0.00    +0.010 C 
ATOM      2  C   LIG A   1      -6.499  -1.415 124.193  0.00  0.00    +0.128 C 
ATOM      3  C   LIG A   1      -7.359  -0.343 124.850  0.00  0.00    +0.062 C 
ATOM      4  C   LIG A   1      -7.759  -1.034 126.179  0.00  0.00    +0.031 C 
ATOM      5  C   LIG A   1      -8.001  -2.520 125.743  0.00  0.00    +0.003 C 
ATOM      6  C   LIG A   1      -9.467  -2.920 125.940  0.00  0.00    +0.009 C 
ATOM      7  C   LIG A   1      -8.570   0.056 123.955  0.00  0.00    +0.190 C 
ATOM      8  C   LIG A   1      -9.231  -1.138 123.245  0.00  0.00    +0.163 C 
ATOM      9  O   LIG A   1     -10.302  -1.020 122.644  0.00  0.00    -0.295 OA
ATOM     10  C   LIG A   1      -8.519  -2.459 123.179  0.00  0.00    +0.087 C 
ENDROOT
BRANCH   4  11
ATOM     11  C   LIG A   1      -6.711  -0.938 127.304  0.00  0.00    -0.040 A 
ATOM     12  C   LIG A   1      -5.879  -2.013 127.672  0.00  0.00    +0.053 A 
ATOM     13  C   LIG A   1      -4.968  -1.844 128.693  0.00  0.00    +0.167 A 
ATOM     14  C   LIG A   1      -4.833  -0.653 129.357  0.00  0.00    +0.166 A 
ATOM     15  C   LIG A   1      -5.607   0.437 129.030  0.00  0.00    +0.050 A 
ATOM     16  C   LIG A   1      -6.545   0.292 127.995  0.00  0.00    +0.008 A 
ATOM     17  O   LIG A   1      -3.880  -0.706 130.325  0.00  0.00    -0.453 OA
ATOM     18  C   LIG A   1      -3.447  -2.079 130.205  0.00  0.00    +0.466 C 
ATOM     19  O   LIG A   1      -4.121  -2.802 129.156  0.00  0.00    -0.453 OA
ENDBRANCH   4  11
BRANCH   2  20
ATOM     20  O   LIG A   1      -6.134  -1.063 122.874  0.00  0.00    -0.391 OA
ATOM     21  H   LIG A   1      -5.849  -0.131 122.886  0.00  0.00    +0.210 HD
ENDBRANCH   2  20
BRANCH   7  22
ATOM     22  O   LIG A   1      -9.397   0.894 124.757  0.00  0.00    -0.372 OA
ATOM     23  C   LIG A   1      -9.179   2.286 124.568  0.00  0.00    +0.195 C 
ENDBRANCH   7  22
BRANCH   1  24
ATOM     24  C   LIG A   1      -6.651  -3.939 124.042  0.00  0.00    +0.036 C 
BRANCH  24  25
ATOM     25  C   LIG A   1      -5.155  -3.793 124.117  0.00  0.00    -0.034 C 
ATOM     26  C   LIG A   1      -4.281  -4.661 123.592  0.00  0.00    +0.004 C 
ENDBRANCH  24  25
ENDBRANCH   1  24
TORSDOF 5
ENDMDL
MODEL 4
REMARK VINA RESULT:      -7.3      2.511      3.506
REMARK  Name = NuBBE_2518
REMARK  7 active torsions:
REMARK  status: ('A' for Active; 'I' for Inactive)
REMARK    1  A    between atoms: C_1  and  C_2
REMARK    2  A    between atoms: C_1  and  C_4
REMARK    3  A    between atoms: C_5  and  O_6
REMARK    4  A    between atoms: C_9  and  C_14
REMARK    5  A    between atoms: C_11  and  C_13
REMARK    6  A    between atoms: C_23  and  O_28
REMARK    7  A    between atoms: O_28  and  C_29
REMARK                            x       y       z     vdW  Elec       q    Type
REMARK                         _______ _______ _______ _____ _____    ______ ____
ROOT
ATOM      1  C   LIG A   1      -6.606  -0.591 125.590  0.00  0.00    +0.010 C 
ATOM      2  C   LIG A   1      -6.415  -0.729 124.066  0.00  0.00    +0.128 C 
ATOM      3  C   LIG A   1      -7.707  -0.098 123.564  0.00  0.00    +0.062 C 
ATOM      4  C   LIG A   1      -7.701   1.262 124.309  0.00  0.00    +0.031 C 
ATOM      5  C   LIG A   1      -7.143   0.883 125.724  0.00  0.00    +0.003 C 
ATOM      6  C   LIG A   1      -8.196   1.119 126.812  0.00  0.00    +0.009 C 
ATOM      7  C   LIG A   1      -8.946  -0.987 123.879  0.00  0.00    +0.190 C 
ATOM      8  C   LIG A   1      -8.897  -1.643 125.270  0.00  0.00    +0.163 C 
ATOM      9  O   LIG A   1      -9.874  -2.230 125.742  0.00  0.00    -0.295 OA
ATOM     10  C   LIG A   1      -7.607  -1.672 126.039  0.00  0.00    +0.087 C 
ENDROOT
BRANCH   4  11
ATOM     11  C   LIG A   1      -6.857   2.366 123.644  0.00  0.00    -0.040 A 
ATOM     12  C   LIG A   1      -6.861   2.604 122.256  0.00  0.00    +0.053 A 
ATOM     13  C   LIG A   1      -6.073   3.612 121.741  0.00  0.00    +0.167 A 
ATOM     14  C   LIG A   1      -5.291   4.403 122.540  0.00  0.00    +0.166 A 
ATOM     15  C   LIG A   1      -5.259   4.228 123.905  0.00  0.00    +0.050 A 
ATOM     16  C   LIG A   1      -6.050   3.206 124.456  0.00  0.00    +0.008 A 
ATOM     17  O   LIG A   1      -4.597   5.330 121.828  0.00  0.00    -0.453 OA
ATOM     18  C   LIG A   1      -5.019   5.012 120.484  0.00  0.00    +0.466 C 
ATOM     19  O   LIG A   1      -5.973   3.933 120.423  0.00  0.00    -0.453 OA
ENDBRANCH   4  11
BRANCH   2  20
ATOM     20  O   LIG A   1      -6.277  -2.066 123.630  0.00  0.00    -0.391 OA
ATOM     21  H   LIG A   1      -5.422  -2.397 123.964  0.00  0.00    +0.210 HD
ENDBRANCH   2  20
BRANCH   7  22
ATOM     22  O   LIG A   1     -10.090  -0.203 123.553  0.00  0.00    -0.372 OA
ATOM     23  C   LIG A   1     -10.184   0.156 122.181  0.00  0.00    +0.195 C 
ENDBRANCH   7  22
BRANCH   1  24
ATOM     24  C   LIG A   1      -5.248  -0.787 126.315  0.00  0.00    +0.036 C 
BRANCH  24  25
ATOM     25  C   LIG A   1      -5.341  -1.450 127.663  0.00  0.00    -0.034 C 
ATOM     26  C   LIG A   1      -5.277  -0.802 128.833  0.00  0.00    +0.004 C 
ENDBRANCH  24  25
ENDBRANCH   1  24
TORSDOF 5
ENDMDL
MODEL 5
REMARK VINA RESULT:      -7.3      2.985      4.512
REMARK  Name = NuBBE_2518
REMARK  7 active torsions:
REMARK  status: ('A' for Active; 'I' for Inactive)
REMARK    1  A    between atoms: C_1  and  C_2
REMARK    2  A    between atoms: C_1  and  C_4
REMARK    3  A    between atoms: C_5  and  O_6
REMARK    4  A    between atoms: C_9  and  C_14
REMARK    5  A    between atoms: C_11  and  C_13
REMARK    6  A    between atoms: C_23  and  O_28
REMARK    7  A    between atoms: O_28  and  C_29
REMARK                            x       y       z     vdW  Elec       q    Type
REMARK                         _______ _______ _______ _____ _____    ______ ____
ROOT
ATOM      1  C   LIG A   1      -6.477  -2.235 124.984  0.00  0.00    +0.010 C 
ATOM      2  C   LIG A   1      -6.231  -0.900 125.714  0.00  0.00    +0.128 C 
ATOM      3  C   LIG A   1      -7.664  -0.467 125.997  0.00  0.00    +0.062 C 
ATOM      4  C   LIG A   1      -8.241  -1.729 126.688  0.00  0.00    +0.031 C 
ATOM      5  C   LIG A   1      -7.588  -2.902 125.878  0.00  0.00    +0.003 C 
ATOM      6  C   LIG A   1      -8.653  -3.715 125.133  0.00  0.00    +0.009 C 
ATOM      7  C   LIG A   1      -8.414  -0.061 124.693  0.00  0.00    +0.190 C 
ATOM      8  C   LIG A   1      -8.105  -0.974 123.495  0.00  0.00    +0.163 C 
ATOM      9  O   LIG A   1      -8.746  -0.899 122.443  0.00  0.00    -0.295 OA
ATOM     10  C   LIG A   1      -6.930  -1.910 123.549  0.00  0.00    +0.087 C 
ENDROOT
BRANCH   4  11
ATOM     11  C   LIG A   1      -7.936  -1.844 128.195  0.00  0.00    -0.040 A 
ATOM     12  C   LIG A   1      -7.725  -0.724 129.022  0.00  0.00    +0.053 A 
ATOM     13  C   LIG A   1      -7.455  -0.914 130.361  0.00  0.00    +0.167 A 
ATOM     14  C   LIG A   1      -7.399  -2.163 130.920  0.00  0.00    +0.166 A 
ATOM     15  C   LIG A   1      -7.613  -3.294 130.164  0.00  0.00    +0.050 A 
ATOM     16  C   LIG A   1      -7.887  -3.129 128.797  0.00  0.00    +0.008 A 
ATOM     17  O   LIG A   1      -7.118  -2.121 132.250  0.00  0.00    -0.453 OA
ATOM     18  C   LIG A   1      -6.983  -0.698 132.454  0.00  0.00    +0.466 C 
ATOM     19  O   LIG A   1      -7.216   0.077 131.261  0.00  0.00    -0.453 OA
ENDBRANCH   4  11
BRANCH   2  20
ATOM     20  O   LIG A   1      -5.536   0.054 124.937  0.00  0.00    -0.391 OA
ATOM     21  H   LIG A   1      -6.042   0.887 124.972  0.00  0.00    +0.210 HD
ENDBRANCH   2  20
BRANCH   7  22
ATOM     22  O   LIG A   1      -9.779   0.116 125.060  0.00  0.00    -0.372 OA
ATOM     23  C   LIG A   1     -10.388   1.277 124.511  0.00  0.00    +0.195 C 
ENDBRANCH   7  22
BRANCH   1  24
ATOM     24  C   LIG A   1      -5.170  -3.072 124.954  0.00  0.00    +0.036 C 
BRANCH  24  25
ATOM     25  C   LIG A   1      -4.839  -3.679 123.617  0.00  0.00    -0.034 C 
ATOM     26  C   LIG A   1      -4.236  -4.863 123.451  0.00  0.00    +0.004 C 
ENDBRANCH  24  25
ENDBRANCH   1  24
TORSDOF 5
ENDMDL
MODEL 6
REMARK VINA RESULT:      -7.2      7.841     10.825
REMARK  Name = NuBBE_2518
REMARK  7 active torsions:
REMARK  status: ('A' for Active; 'I' for Inactive)
REMARK    1  A    between atoms: C_1  and  C_2
REMARK    2  A    between atoms: C_1  and  C_4
REMARK    3  A    between atoms: C_5  and  O_6
REMARK    4  A    between atoms: C_9  and  C_14
REMARK    5  A    between atoms: C_11  and  C_13
REMARK    6  A    between atoms: C_23  and  O_28
REMARK    7  A    between atoms: O_28  and  C_29
REMARK                            x       y       z     vdW  Elec       q    Type
REMARK                         _______ _______ _______ _____ _____    ______ ____
ROOT
ATOM      1  C   LIG A   1      -7.138   3.769 132.189  0.00  0.00    +0.010 C 
ATOM      2  C   LIG A   1      -8.575   3.639 132.734  0.00  0.00    +0.128 C 
ATOM      3  C   LIG A   1      -8.666   4.900 133.584  0.00  0.00    +0.062 C 
ATOM      4  C   LIG A   1      -8.227   5.991 132.572  0.00  0.00    +0.031 C 
ATOM      5  C   LIG A   1      -7.076   5.287 131.775  0.00  0.00    +0.003 C 
ATOM      6  C   LIG A   1      -5.736   5.993 132.005  0.00  0.00    +0.009 C 
ATOM      7  C   LIG A   1      -7.764   4.812 134.850  0.00  0.00    +0.190 C 
ATOM      8  C   LIG A   1      -6.398   4.154 134.589  0.00  0.00    +0.163 C 
ATOM      9  O   LIG A   1      -5.503   4.165 135.438  0.00  0.00    -0.295 OA
ATOM     10  C   LIG A   1      -6.168   3.382 133.321  0.00  0.00    +0.087 C 
ENDROOT
BRANCH   4  11
ATOM     11  C   LIG A   1      -9.341   6.495 131.633  0.00  0.00    -0.040 A 
ATOM     12  C   LIG A   1      -9.079   7.132 130.405  0.00  0.00    +0.053 A 
ATOM     13  C   LIG A   1     -10.134   7.555 129.625  0.00  0.00    +0.167 A 
ATOM     14  C   LIG A   1     -11.437   7.363 130.000  0.00  0.00    +0.166 A 
ATOM     15  C   LIG A   1     -11.754   6.731 131.181  0.00  0.00    +0.050 A 
ATOM     16  C   LIG A   1     -10.698   6.293 131.996  0.00  0.00    +0.008 A 
ATOM     17  O   LIG A   1     -12.315   7.857 129.087  0.00  0.00    -0.453 OA
ATOM     18  C   LIG A   1     -11.408   8.402 128.104  0.00  0.00    +0.466 C 
ATOM     19  O   LIG A   1     -10.019   8.196 128.431  0.00  0.00    -0.453 OA
ENDBRANCH   4  11
BRANCH   2  20
ATOM     20  O   LIG A   1      -8.789   2.471 133.499  0.00  0.00    -0.391 OA
ATOM     21  H   LIG A   1      -9.619   2.064 133.189  0.00  0.00    +0.210 HD
ENDBRANCH   2  20
BRANCH   7  22
ATOM     22  O   LIG A   1      -7.776   6.110 135.436  0.00  0.00    -0.372 OA
ATOM     23  C   LIG A   1      -7.792   6.111 136.858  0.00  0.00    +0.195 C 
ENDBRANCH   7  22
BRANCH   1  24
ATOM     24  C   LIG A   1      -6.945   2.823 130.974  0.00  0.00    +0.036 C 
BRANCH  24  25
ATOM     25  C   LIG A   1      -7.782   3.161 129.769  0.00  0.00    -0.034 C 
ATOM     26  C   LIG A   1      -8.753   2.381 129.277  0.00  0.00    +0.004 C 
ENDBRANCH  24  25
ENDBRANCH   1  24
TORSDOF 5
ENDMDL
MODEL 7
REMARK VINA RESULT:      -7.0      7.560     10.854
REMARK  Name = NuBBE_2518
REMARK  7 active torsions:
REMARK  status: ('A' for Active; 'I' for Inactive)
REMARK    1  A    between atoms: C_1  and  C_2
REMARK    2  A    between atoms: C_1  and  C_4
REMARK    3  A    between atoms: C_5  and  O_6
REMARK    4  A    between atoms: C_9  and  C_14
REMARK    5  A    between atoms: C_11  and  C_13
REMARK    6  A    between atoms: C_23  and  O_28
REMARK    7  A    between atoms: O_28  and  C_29
REMARK                            x       y       z     vdW  Elec       q    Type
REMARK                         _______ _______ _______ _____ _____    ______ ____
ROOT
ATOM      1  C   LIG A   1      -3.743   5.763 129.892  0.00  0.00    +0.010 C 
ATOM      2  C   LIG A   1      -4.232   4.728 130.925  0.00  0.00    +0.128 C 
ATOM      3  C   LIG A   1      -4.266   5.585 132.184  0.00  0.00    +0.062 C 
ATOM      4  C   LIG A   1      -5.115   6.796 131.715  0.00  0.00    +0.031 C 
ATOM      5  C   LIG A   1      -4.617   7.024 130.246  0.00  0.00    +0.003 C 
ATOM      6  C   LIG A   1      -3.925   8.384 130.104  0.00  0.00    +0.009 C 
ATOM      7  C   LIG A   1      -2.835   5.965 132.666  0.00  0.00    +0.190 C 
ATOM      8  C   LIG A   1      -1.871   6.316 131.519  0.00  0.00    +0.163 C 
ATOM      9  O   LIG A   1      -0.760   6.805 131.737  0.00  0.00    -0.295 OA
ATOM     10  C   LIG A   1      -2.231   5.962 130.104  0.00  0.00    +0.087 C 
ENDROOT
BRANCH   4  11
ATOM     11  C   LIG A   1      -6.640   6.583 131.770  0.00  0.00    -0.040 A 
ATOM     12  C   LIG A   1      -7.520   7.080 130.789  0.00  0.00    +0.053 A 
ATOM     13  C   LIG A   1      -8.873   6.847 130.915  0.00  0.00    +0.167 A 
ATOM     14  C   LIG A   1      -9.393   6.131 131.961  0.00  0.00    +0.166 A 
ATOM     15  C   LIG A   1      -8.580   5.606 132.940  0.00  0.00    +0.050 A 
ATOM     16  C   LIG A   1      -7.197   5.831 132.837  0.00  0.00    +0.008 A 
ATOM     17  O   LIG A   1     -10.746   6.022 131.890  0.00  0.00    -0.453 OA
ATOM     18  C   LIG A   1     -11.017   6.774 130.687  0.00  0.00    +0.466 C 
ATOM     19  O   LIG A   1      -9.828   7.284 130.051  0.00  0.00    -0.453 OA
ENDBRANCH   4  11
BRANCH   2  20
ATOM     20  O   LIG A   1      -3.371   3.617 131.068  0.00  0.00    -0.391 OA
ATOM     21  H   LIG A   1      -2.471   3.910 130.833  0.00  0.00    +0.210 HD
ENDBRANCH   2  20
BRANCH   7  22
ATOM     22  O   LIG A   1      -3.008   6.923 133.706  0.00  0.00    -0.372 OA
ATOM     23  C   LIG A   1      -3.216   6.358 134.995  0.00  0.00    +0.195 C 
ENDBRANCH   7  22
BRANCH   1  24
ATOM     24  C   LIG A   1      -4.017   5.247 128.454  0.00  0.00    +0.036 C 
BRANCH  24  25
ATOM     25  C   LIG A   1      -2.794   4.795 127.701  0.00  0.00    -0.034 C 
ATOM     26  C   LIG A   1      -2.521   3.521 127.393  0.00  0.00    +0.004 C 
ENDBRANCH  24  25
ENDBRANCH   1  24
TORSDOF 5
ENDMDL
MODEL 8
REMARK VINA RESULT:      -7.0      3.887      5.737
REMARK  Name = NuBBE_2518
REMARK  7 active torsions:
REMARK  status: ('A' for Active; 'I' for Inactive)
REMARK    1  A    between atoms: C_1  and  C_2
REMARK    2  A    between atoms: C_1  and  C_4
REMARK    3  A    between atoms: C_5  and  O_6
REMARK    4  A    between atoms: C_9  and  C_14
REMARK    5  A    between atoms: C_11  and  C_13
REMARK    6  A    between atoms: C_23  and  O_28
REMARK    7  A    between atoms: O_28  and  C_29
REMARK                            x       y       z     vdW  Elec       q    Type
REMARK                         _______ _______ _______ _____ _____    ______ ____
ROOT
ATOM      1  C   LIG A   1      -6.495  -1.954 125.887  0.00  0.00    +0.010 C 
ATOM      2  C   LIG A   1      -5.739  -1.038 126.870  0.00  0.00    +0.128 C 
ATOM      3  C   LIG A   1      -6.905  -0.333 127.550  0.00  0.00    +0.062 C 
ATOM      4  C   LIG A   1      -7.779  -1.535 127.996  0.00  0.00    +0.031 C 
ATOM      5  C   LIG A   1      -7.649  -2.529 126.791  0.00  0.00    +0.003 C 
ATOM      6  C   LIG A   1      -9.002  -2.737 126.103  0.00  0.00    +0.009 C 
ATOM      7  C   LIG A   1      -7.630   0.651 126.585  0.00  0.00    +0.190 C 
ATOM      8  C   LIG A   1      -7.783   0.110 125.154  0.00  0.00    +0.163 C 
ATOM      9  O   LIG A   1      -8.485   0.686 124.317  0.00  0.00    -0.295 OA
ATOM     10  C   LIG A   1      -6.985  -1.084 124.714  0.00  0.00    +0.087 C 
ENDROOT
BRANCH   4  11
ATOM     11  C   LIG A   1      -7.351  -2.194 129.322  0.00  0.00    -0.040 A 
ATOM     12  C   LIG A   1      -6.569  -3.364 129.380  0.00  0.00    +0.053 A 
ATOM     13  C   LIG A   1      -6.232  -3.891 130.609  0.00  0.00    +0.167 A 
ATOM     14  C   LIG A   1      -6.623  -3.304 131.783  0.00  0.00    +0.166 A 
ATOM     15  C   LIG A   1      -7.373  -2.150 131.789  0.00  0.00    +0.050 A 
ATOM     16  C   LIG A   1      -7.733  -1.593 130.550  0.00  0.00    +0.008 A 
ATOM     17  O   LIG A   1      -6.184  -3.988 132.873  0.00  0.00    -0.453 OA
ATOM     18  C   LIG A   1      -5.490  -5.086 132.244  0.00  0.00    +0.466 C 
ATOM     19  O   LIG A   1      -5.500  -5.021 130.804  0.00  0.00    -0.453 OA
ENDBRANCH   4  11
BRANCH   2  20
ATOM     20  O   LIG A   1      -4.867  -0.123 126.237  0.00  0.00    -0.391 OA
ATOM     21  H   LIG A   1      -4.324   0.294 126.932  0.00  0.00    +0.210 HD
ENDBRANCH   2  20
BRANCH   7  22
ATOM     22  O   LIG A   1      -8.806   1.078 127.265  0.00  0.00    -0.372 OA
ATOM     23  C   LIG A   1      -8.566   1.952 128.361  0.00  0.00    +0.195 C 
ENDBRANCH   7  22
BRANCH   1  24
ATOM     24  C   LIG A   1      -5.550  -3.069 125.366  0.00  0.00    +0.036 C 
BRANCH  24  25
ATOM     25  C   LIG A   1      -5.188  -2.962 123.909  0.00  0.00    -0.034 C 
ATOM     26  C   LIG A   1      -4.233  -3.684 123.310  0.00  0.00    +0.004 C 
ENDBRANCH  24  25
ENDBRANCH   1  24
TORSDOF 5
ENDMDL
MODEL 9
REMARK VINA RESULT:      -7.0      3.869      6.628
REMARK  Name = NuBBE_2518
REMARK  7 active torsions:
REMARK  status: ('A' for Active; 'I' for Inactive)
REMARK    1  A    between atoms: C_1  and  C_2
REMARK    2  A    between atoms: C_1  and  C_4
REMARK    3  A    between atoms: C_5  and  O_6
REMARK    4  A    between atoms: C_9  and  C_14
REMARK    5  A    between atoms: C_11  and  C_13
REMARK    6  A    between atoms: C_23  and  O_28
REMARK    7  A    between atoms: O_28  and  C_29
REMARK                            x       y       z     vdW  Elec       q    Type
REMARK                         _______ _______ _______ _____ _____    ______ ____
ROOT
ATOM      1  C   LIG A   1      -7.272   2.463 126.686  0.00  0.00    +0.010 C 
ATOM      2  C   LIG A   1      -7.510   3.935 126.297  0.00  0.00    +0.128 C 
ATOM      3  C   LIG A   1      -6.075   4.417 126.131  0.00  0.00    +0.062 C 
ATOM      4  C   LIG A   1      -5.498   3.355 125.159  0.00  0.00    +0.031 C 
ATOM      5  C   LIG A   1      -6.158   2.025 125.662  0.00  0.00    +0.003 C 
ATOM      6  C   LIG A   1      -5.100   1.053 126.194  0.00  0.00    +0.009 C 
ATOM      7  C   LIG A   1      -5.329   4.495 127.497  0.00  0.00    +0.190 C 
ATOM      8  C   LIG A   1      -5.647   3.322 128.440  0.00  0.00    +0.163 C 
ATOM      9  O   LIG A   1      -5.011   3.141 129.482  0.00  0.00    -0.295 OA
ATOM     10  C   LIG A   1      -6.824   2.432 128.159  0.00  0.00    +0.087 C 
ENDROOT
BRANCH   4  11
ATOM     11  C   LIG A   1      -5.797   3.607 123.668  0.00  0.00    -0.040 A 
ATOM     12  C   LIG A   1      -5.046   4.496 122.875  0.00  0.00    +0.053 A 
ATOM     13  C   LIG A   1      -5.381   4.665 121.548  0.00  0.00    +0.167 A 
ATOM     14  C   LIG A   1      -6.418   3.983 120.968  0.00  0.00    +0.166 A 
ATOM     15  C   LIG A   1      -7.176   3.089 121.689  0.00  0.00    +0.050 A 
ATOM     16  C   LIG A   1      -6.857   2.899 123.044  0.00  0.00    +0.008 A 
ATOM     17  O   LIG A   1      -6.574   4.301 119.656  0.00  0.00    -0.453 OA
ATOM     18  C   LIG A   1      -5.527   5.281 119.486  0.00  0.00    +0.466 C 
ATOM     19  O   LIG A   1      -4.752   5.503 120.681  0.00  0.00    -0.453 OA
ENDBRANCH   4  11
BRANCH   2  20
ATOM     20  O   LIG A   1      -8.206   4.677 127.278  0.00  0.00    -0.391 OA
ATOM     21  H   LIG A   1      -7.930   5.609 127.192  0.00  0.00    +0.210 HD
ENDBRANCH   2  20
BRANCH   7  22
ATOM     22  O   LIG A   1      -3.963   4.750 127.188  0.00  0.00    -0.372 OA
ATOM     23  C   LIG A   1      -3.404   5.864 127.872  0.00  0.00    +0.195 C 
ENDBRANCH   7  22
BRANCH   1  24
ATOM     24  C   LIG A   1      -8.581   1.649 126.509  0.00  0.00    +0.036 C 
BRANCH  24  25
ATOM     25  C   LIG A   1      -8.553   0.640 125.392  0.00  0.00    -0.034 C 
ATOM     26  C   LIG A   1      -9.431   0.603 124.382  0.00  0.00    +0.004 C 
ENDBRANCH  24  25
ENDBRANCH   1  24
TORSDOF 5
ENDMDL
