MODEL 1
REMARK VINA RESULT:      -7.9      0.000      0.000
REMARK  Name = NuBBE_2191
REMARK  5 active torsions:
REMARK  status: ('A' for Active; 'I' for Inactive)
REMARK    1  A    between atoms: C_1  and  C_2
REMARK    2  A    between atoms: C_8  and  C_9
REMARK    3  A    between atoms: C_8  and  C_11
REMARK    4  A    between atoms: C_18  and  C_19
REMARK    5  A    between atoms: C_18  and  C_20
REMARK                            x       y       z     vdW  Elec       q    Type
REMARK                         _______ _______ _______ _____ _____    ______ ____
ROOT
ATOM      1  C   LIG A   1      -7.897  -1.818 129.989  0.00  0.00    +0.016 C 
ATOM      2  C   LIG A   1      -6.889  -2.537 129.061  0.00  0.00    +0.000 C 
ATOM      3  C   LIG A   1      -5.457  -1.902 129.118  0.00  0.00    +0.012 C 
ATOM      4  C   LIG A   1      -5.439  -0.502 128.500  0.00  0.00    +0.084 C 
ATOM      5  C   LIG A   1      -5.938  -0.538 127.078  0.00  0.00    +0.160 C 
ATOM      6  C   LIG A   1      -6.980  -1.540 126.701  0.00  0.00    +0.003 C 
ATOM      7  C   LIG A   1      -7.449  -1.464 125.269  0.00  0.00    +0.050 C 
ATOM      8  C   LIG A   1      -8.096  -2.777 124.779  0.00  0.00    -0.003 C 
ATOM      9  C   LIG A   1      -8.786  -2.519 123.425  0.00  0.00    +0.016 C 
ATOM     10  C   LIG A   1      -9.164  -3.173 125.806  0.00  0.00    +0.090 C 
ATOM     11  C   LIG A   1      -7.444  -2.407 127.625  0.00  0.00    +0.008 C 
ATOM     12  C   LIG A   1      -8.621  -3.260 127.219  0.00  0.00    +0.161 C 
ATOM     13  O   LIG A   1      -9.203  -3.965 128.043  0.00  0.00    -0.292 OA
ATOM     14  O   LIG A   1      -5.556   0.295 126.257  0.00  0.00    -0.292 OA
ATOM     15  C   LIG A   1      -4.735  -1.979 130.516  0.00  0.00    -0.031 C 
ATOM     16  C   LIG A   1      -3.205  -2.077 130.272  0.00  0.00    +0.011 C 
ATOM     17  C   LIG A   1      -4.956  -0.737 131.405  0.00  0.00    +0.011 C 
ATOM     18  C   LIG A   1      -5.180  -3.237 131.302  0.00  0.00    +0.007 C 
ATOM     19  C   LIG A   1      -5.563  -4.380 130.377  0.00  0.00    +0.001 C 
ATOM     20  C   LIG A   1      -6.757  -4.038 129.482  0.00  0.00    +0.012 C 
ENDROOT
BRANCH   8  21
ATOM     21  C   LIG A   1      -7.012  -3.829 124.531  0.00  0.00    -0.027 C 
ATOM     22  C   LIG A   1      -5.787  -3.650 124.019  0.00  0.00    +0.004 C 
ENDBRANCH   8  21
TORSDOF 1
ENDMDL
MODEL 2
REMARK VINA RESULT:      -7.4      1.448      5.810
REMARK  Name = NuBBE_2191
REMARK  5 active torsions:
REMARK  status: ('A' for Active; 'I' for Inactive)
REMARK    1  A    between atoms: C_1  and  C_2
REMARK    2  A    between atoms: C_8  and  C_9
REMARK    3  A    between atoms: C_8  and  C_11
REMARK    4  A    between atoms: C_18  and  C_19
REMARK    5  A    between atoms: C_18  and  C_20
REMARK                            x       y       z     vdW  Elec       q    Type
REMARK                         _______ _______ _______ _____ _____    ______ ____
ROOT
ATOM      1  C   LIG A   1      -8.211   0.041 126.778  0.00  0.00    +0.016 C 
ATOM      2  C   LIG A   1      -7.242  -1.155 126.933  0.00  0.00    +0.000 C 
ATOM      3  C   LIG A   1      -7.606  -2.353 125.989  0.00  0.00    +0.012 C 
ATOM      4  C   LIG A   1      -8.921  -3.017 126.406  0.00  0.00    +0.084 C 
ATOM      5  C   LIG A   1      -8.855  -3.482 127.838  0.00  0.00    +0.160 C 
ATOM      6  C   LIG A   1      -8.033  -2.706 128.815  0.00  0.00    +0.003 C 
ATOM      7  C   LIG A   1      -8.071  -3.223 130.231  0.00  0.00    +0.050 C 
ATOM      8  C   LIG A   1      -6.862  -2.759 131.072  0.00  0.00    -0.003 C 
ATOM      9  C   LIG A   1      -7.125  -3.094 132.554  0.00  0.00    +0.016 C 
ATOM     10  C   LIG A   1      -6.758  -1.236 130.924  0.00  0.00    +0.090 C 
ATOM     11  C   LIG A   1      -7.348  -1.619 128.403  0.00  0.00    +0.008 C 
ATOM     12  C   LIG A   1      -6.694  -0.786 129.478  0.00  0.00    +0.161 C 
ATOM     13  O   LIG A   1      -6.182   0.300 129.210  0.00  0.00    -0.292 OA
ATOM     14  O   LIG A   1      -9.530  -4.437 128.219  0.00  0.00    -0.292 OA
ATOM     15  C   LIG A   1      -7.518  -2.052 124.445  0.00  0.00    -0.031 C 
ATOM     16  C   LIG A   1      -7.120  -3.362 123.713  0.00  0.00    +0.011 C 
ATOM     17  C   LIG A   1      -8.851  -1.590 123.819  0.00  0.00    +0.011 C 
ATOM     18  C   LIG A   1      -6.435  -0.985 124.148  0.00  0.00    +0.007 C 
ATOM     19  C   LIG A   1      -5.307  -1.021 125.165  0.00  0.00    +0.001 C 
ATOM     20  C   LIG A   1      -5.784  -0.707 126.586  0.00  0.00    +0.012 C 
ENDROOT
BRANCH   8  21
ATOM     21  C   LIG A   1      -5.612  -3.538 130.657  0.00  0.00    -0.027 C 
ATOM     22  C   LIG A   1      -5.376  -4.852 130.778  0.00  0.00    +0.004 C 
ENDBRANCH   8  21
TORSDOF 1
ENDMDL
MODEL 3
REMARK VINA RESULT:      -7.4      3.585      5.475
REMARK  Name = NuBBE_2191
REMARK  5 active torsions:
REMARK  status: ('A' for Active; 'I' for Inactive)
REMARK    1  A    between atoms: C_1  and  C_2
REMARK    2  A    between atoms: C_8  and  C_9
REMARK    3  A    between atoms: C_8  and  C_11
REMARK    4  A    between atoms: C_18  and  C_19
REMARK    5  A    between atoms: C_18  and  C_20
REMARK                            x       y       z     vdW  Elec       q    Type
REMARK                         _______ _______ _______ _____ _____    ______ ____
ROOT
ATOM      1  C   LIG A   1      -8.070   2.106 126.935  0.00  0.00    +0.016 C 
ATOM      2  C   LIG A   1      -7.191   1.550 125.789  0.00  0.00    +0.000 C 
ATOM      3  C   LIG A   1      -6.976   2.590 124.635  0.00  0.00    +0.012 C 
ATOM      4  C   LIG A   1      -8.275   2.856 123.871  0.00  0.00    +0.084 C 
ATOM      5  C   LIG A   1      -8.845   1.574 123.320  0.00  0.00    +0.160 C 
ATOM      6  C   LIG A   1      -8.637   0.303 124.078  0.00  0.00    +0.003 C 
ATOM      7  C   LIG A   1      -9.286  -0.915 123.471  0.00  0.00    +0.050 C 
ATOM      8  C   LIG A   1      -8.649  -2.236 123.950  0.00  0.00    -0.003 C 
ATOM      9  C   LIG A   1      -9.542  -3.412 123.506  0.00  0.00    +0.016 C 
ATOM     10  C   LIG A   1      -8.612  -2.199 125.483  0.00  0.00    +0.090 C 
ATOM     11  C   LIG A   1      -7.930   0.315 125.227  0.00  0.00    +0.008 C 
ATOM     12  C   LIG A   1      -7.920  -0.965 126.027  0.00  0.00    +0.161 C 
ATOM     13  O   LIG A   1      -7.432  -1.000 127.156  0.00  0.00    -0.292 OA
ATOM     14  O   LIG A   1      -9.540   1.582 122.305  0.00  0.00    -0.292 OA
ATOM     15  C   LIG A   1      -6.204   3.902 125.038  0.00  0.00    -0.031 C 
ATOM     16  C   LIG A   1      -5.408   4.401 123.803  0.00  0.00    +0.011 C 
ATOM     17  C   LIG A   1      -7.126   5.066 125.461  0.00  0.00    +0.011 C 
ATOM     18  C   LIG A   1      -5.198   3.626 126.183  0.00  0.00    +0.007 C 
ATOM     19  C   LIG A   1      -4.673   2.201 126.148  0.00  0.00    +0.001 C 
ATOM     20  C   LIG A   1      -5.780   1.161 126.343  0.00  0.00    +0.012 C 
ENDROOT
BRANCH   8  21
ATOM     21  C   LIG A   1      -7.290  -2.432 123.272  0.00  0.00    -0.027 C 
ATOM     22  C   LIG A   1      -6.185  -2.993 123.781  0.00  0.00    +0.004 C 
ENDBRANCH   8  21
TORSDOF 1
ENDMDL
MODEL 4
REMARK VINA RESULT:      -7.3      1.303      3.480
REMARK  Name = NuBBE_2191
REMARK  5 active torsions:
REMARK  status: ('A' for Active; 'I' for Inactive)
REMARK    1  A    between atoms: C_1  and  C_2
REMARK    2  A    between atoms: C_8  and  C_9
REMARK    3  A    between atoms: C_8  and  C_11
REMARK    4  A    between atoms: C_18  and  C_19
REMARK    5  A    between atoms: C_18  and  C_20
REMARK                            x       y       z     vdW  Elec       q    Type
REMARK                         _______ _______ _______ _____ _____    ______ ____
ROOT
ATOM      1  C   LIG A   1      -4.996  -2.762 128.556  0.00  0.00    +0.016 C 
ATOM      2  C   LIG A   1      -6.215  -1.826 128.378  0.00  0.00    +0.000 C 
ATOM      3  C   LIG A   1      -7.226  -1.918 129.572  0.00  0.00    +0.012 C 
ATOM      4  C   LIG A   1      -7.933  -3.275 129.604  0.00  0.00    +0.084 C 
ATOM      5  C   LIG A   1      -8.640  -3.542 128.300  0.00  0.00    +0.160 C 
ATOM      6  C   LIG A   1      -8.056  -3.001 127.036  0.00  0.00    +0.003 C 
ATOM      7  C   LIG A   1      -8.809  -3.364 125.780  0.00  0.00    +0.050 C 
ATOM      8  C   LIG A   1      -8.514  -2.406 124.606  0.00  0.00    -0.003 C 
ATOM      9  C   LIG A   1      -9.096  -3.008 123.312  0.00  0.00    +0.016 C 
ATOM     10  C   LIG A   1      -6.990  -2.313 124.462  0.00  0.00    +0.090 C 
ATOM     11  C   LIG A   1      -6.924  -2.268 127.078  0.00  0.00    +0.008 C 
ATOM     12  C   LIG A   1      -6.298  -1.916 125.751  0.00  0.00    +0.161 C 
ATOM     13  O   LIG A   1      -5.189  -1.385 125.698  0.00  0.00    -0.292 OA
ATOM     14  O   LIG A   1      -9.637  -4.262 128.263  0.00  0.00    -0.292 OA
ATOM     15  C   LIG A   1      -6.665  -1.469 130.974  0.00  0.00    -0.031 C 
ATOM     16  C   LIG A   1      -7.834  -0.871 131.801  0.00  0.00    +0.011 C 
ATOM     17  C   LIG A   1      -6.083  -2.625 131.815  0.00  0.00    +0.011 C 
ATOM     18  C   LIG A   1      -5.579  -0.377 130.813  0.00  0.00    +0.007 C 
ATOM     19  C   LIG A   1      -5.805   0.474 129.575  0.00  0.00    +0.001 C 
ATOM     20  C   LIG A   1      -5.734  -0.340 128.280  0.00  0.00    +0.012 C 
ENDROOT
BRANCH   8  21
ATOM     21  C   LIG A   1      -9.228  -1.071 124.834  0.00  0.00    -0.027 C 
ATOM     22  C   LIG A   1      -9.021   0.096 124.208  0.00  0.00    +0.004 C 
ENDBRANCH   8  21
TORSDOF 1
ENDMDL
MODEL 5
REMARK VINA RESULT:      -7.3      3.461      6.252
REMARK  Name = NuBBE_2191
REMARK  5 active torsions:
REMARK  status: ('A' for Active; 'I' for Inactive)
REMARK    1  A    between atoms: C_1  and  C_2
REMARK    2  A    between atoms: C_8  and  C_9
REMARK    3  A    between atoms: C_8  and  C_11
REMARK    4  A    between atoms: C_18  and  C_19
REMARK    5  A    between atoms: C_18  and  C_20
REMARK                            x       y       z     vdW  Elec       q    Type
REMARK                         _______ _______ _______ _____ _____    ______ ____
ROOT
ATOM      1  C   LIG A   1      -9.401  -0.407 125.903  0.00  0.00    +0.016 C 
ATOM      2  C   LIG A   1      -8.372  -0.220 124.763  0.00  0.00    +0.000 C 
ATOM      3  C   LIG A   1      -7.204  -1.264 124.828  0.00  0.00    +0.012 C 
ATOM      4  C   LIG A   1      -6.305  -1.025 126.043  0.00  0.00    +0.084 C 
ATOM      5  C   LIG A   1      -5.752   0.377 126.032  0.00  0.00    +0.160 C 
ATOM      6  C   LIG A   1      -6.578   1.477 125.449  0.00  0.00    +0.003 C 
ATOM      7  C   LIG A   1      -5.959   2.850 125.530  0.00  0.00    +0.050 C 
ATOM      8  C   LIG A   1      -6.551   3.837 124.501  0.00  0.00    -0.003 C 
ATOM      9  C   LIG A   1      -6.069   5.262 124.840  0.00  0.00    +0.016 C 
ATOM     10  C   LIG A   1      -8.077   3.789 124.645  0.00  0.00    +0.090 C 
ATOM     11  C   LIG A   1      -7.790   1.202 124.924  0.00  0.00    +0.008 C 
ATOM     12  C   LIG A   1      -8.638   2.385 124.525  0.00  0.00    +0.161 C 
ATOM     13  O   LIG A   1      -9.810   2.234 124.183  0.00  0.00    -0.292 OA
ATOM     14  O   LIG A   1      -4.673   0.631 126.567  0.00  0.00    -0.292 OA
ATOM     15  C   LIG A   1      -7.628  -2.771 124.649  0.00  0.00    -0.031 C 
ATOM     16  C   LIG A   1      -6.459  -3.531 123.967  0.00  0.00    +0.011 C 
ATOM     17  C   LIG A   1      -7.910  -3.505 125.977  0.00  0.00    +0.011 C 
ATOM     18  C   LIG A   1      -8.877  -2.892 123.741  0.00  0.00    +0.007 C 
ATOM     19  C   LIG A   1      -8.953  -1.766 122.723  0.00  0.00    +0.001 C 
ATOM     20  C   LIG A   1      -9.078  -0.387 123.377  0.00  0.00    +0.012 C 
ENDROOT
BRANCH   8  21
ATOM     21  C   LIG A   1      -6.021   3.511 123.103  0.00  0.00    -0.027 C 
ATOM     22  C   LIG A   1      -5.331   4.305 122.272  0.00  0.00    +0.004 C 
ENDBRANCH   8  21
TORSDOF 1
ENDMDL
MODEL 6
REMARK VINA RESULT:      -7.1      2.671      6.231
REMARK  Name = NuBBE_2191
REMARK  5 active torsions:
REMARK  status: ('A' for Active; 'I' for Inactive)
REMARK    1  A    between atoms: C_1  and  C_2
REMARK    2  A    between atoms: C_8  and  C_9
REMARK    3  A    between atoms: C_8  and  C_11
REMARK    4  A    between atoms: C_18  and  C_19
REMARK    5  A    between atoms: C_18  and  C_20
REMARK                            x       y       z     vdW  Elec       q    Type
REMARK                         _______ _______ _______ _____ _____    ______ ____
ROOT
ATOM      1  C   LIG A   1      -8.536  -0.409 125.692  0.00  0.00    +0.016 C 
ATOM      2  C   LIG A   1      -7.042  -0.291 125.309  0.00  0.00    +0.000 C 
ATOM      3  C   LIG A   1      -6.290  -1.665 125.382  0.00  0.00    +0.012 C 
ATOM      4  C   LIG A   1      -6.159  -2.155 126.826  0.00  0.00    +0.084 C 
ATOM      5  C   LIG A   1      -5.457  -1.130 127.679  0.00  0.00    +0.160 C 
ATOM      6  C   LIG A   1      -5.639   0.320 127.366  0.00  0.00    +0.003 C 
ATOM      7  C   LIG A   1      -4.936   1.267 128.306  0.00  0.00    +0.050 C 
ATOM      8  C   LIG A   1      -4.705   2.663 127.688  0.00  0.00    -0.003 C 
ATOM      9  C   LIG A   1      -4.246   3.630 128.798  0.00  0.00    +0.016 C 
ATOM     10  C   LIG A   1      -6.051   3.151 127.139  0.00  0.00    +0.090 C 
ATOM     11  C   LIG A   1      -6.405   0.690 126.319  0.00  0.00    +0.008 C 
ATOM     12  C   LIG A   1      -6.689   2.166 126.179  0.00  0.00    +0.161 C 
ATOM     13  O   LIG A   1      -7.499   2.576 125.349  0.00  0.00    -0.292 OA
ATOM     14  O   LIG A   1      -4.811  -1.473 128.668  0.00  0.00    -0.292 OA
ATOM     15  C   LIG A   1      -6.801  -2.773 124.387  0.00  0.00    -0.031 C 
ATOM     16  C   LIG A   1      -5.599  -3.675 123.999  0.00  0.00    +0.011 C 
ATOM     17  C   LIG A   1      -7.872  -3.708 124.986  0.00  0.00    +0.011 C 
ATOM     18  C   LIG A   1      -7.366  -2.138 123.091  0.00  0.00    +0.007 C 
ATOM     19  C   LIG A   1      -6.689  -0.818 122.762  0.00  0.00    +0.001 C 
ATOM     20  C   LIG A   1      -6.909   0.243 123.844  0.00  0.00    +0.012 C 
ENDROOT
BRANCH   8  21
ATOM     21  C   LIG A   1      -3.571   2.595 126.662  0.00  0.00    -0.027 C 
ATOM     22  C   LIG A   1      -2.321   3.064 126.777  0.00  0.00    +0.004 C 
ENDBRANCH   8  21
TORSDOF 1
ENDMDL
MODEL 7
REMARK VINA RESULT:      -7.0      6.336      8.275
REMARK  Name = NuBBE_2191
REMARK  5 active torsions:
REMARK  status: ('A' for Active; 'I' for Inactive)
REMARK    1  A    between atoms: C_1  and  C_2
REMARK    2  A    between atoms: C_8  and  C_9
REMARK    3  A    between atoms: C_8  and  C_11
REMARK    4  A    between atoms: C_18  and  C_19
REMARK    5  A    between atoms: C_18  and  C_20
REMARK                            x       y       z     vdW  Elec       q    Type
REMARK                         _______ _______ _______ _____ _____    ______ ____
ROOT
ATOM      1  C   LIG A   1      -5.083   5.504 131.795  0.00  0.00    +0.016 C 
ATOM      2  C   LIG A   1      -3.807   4.912 131.151  0.00  0.00    +0.000 C 
ATOM      3  C   LIG A   1      -2.587   5.895 131.215  0.00  0.00    +0.012 C 
ATOM      4  C   LIG A   1      -2.802   7.113 130.313  0.00  0.00    +0.084 C 
ATOM      5  C   LIG A   1      -3.056   6.689 128.890  0.00  0.00    +0.160 C 
ATOM      6  C   LIG A   1      -3.767   5.400 128.635  0.00  0.00    +0.003 C 
ATOM      7  C   LIG A   1      -4.018   5.088 127.180  0.00  0.00    +0.050 C 
ATOM      8  C   LIG A   1      -4.260   3.585 126.922  0.00  0.00    -0.003 C 
ATOM      9  C   LIG A   1      -4.777   3.403 125.481  0.00  0.00    +0.016 C 
ATOM     10  C   LIG A   1      -5.350   3.122 127.897  0.00  0.00    +0.090 C 
ATOM     11  C   LIG A   1      -4.152   4.628 129.672  0.00  0.00    +0.008 C 
ATOM     12  C   LIG A   1      -5.023   3.440 129.343  0.00  0.00    +0.161 C 
ATOM     13  O   LIG A   1      -5.544   2.773 130.236  0.00  0.00    -0.292 OA
ATOM     14  O   LIG A   1      -2.758   7.427 127.952  0.00  0.00    -0.292 OA
ATOM     15  C   LIG A   1      -2.088   6.265 132.662  0.00  0.00    -0.031 C 
ATOM     16  C   LIG A   1      -0.559   6.523 132.601  0.00  0.00    +0.011 C 
ATOM     17  C   LIG A   1      -2.724   7.550 133.235  0.00  0.00    +0.011 C 
ATOM     18  C   LIG A   1      -2.343   5.101 133.652  0.00  0.00    +0.007 C 
ATOM     19  C   LIG A   1      -2.305   3.748 132.962  0.00  0.00    +0.001 C 
ATOM     20  C   LIG A   1      -3.396   3.600 131.897  0.00  0.00    +0.012 C 
ENDROOT
BRANCH   8  21
ATOM     21  C   LIG A   1      -2.937   2.822 127.018  0.00  0.00    -0.027 C 
ATOM     22  C   LIG A   1      -1.748   3.158 126.500  0.00  0.00    +0.004 C 
ENDBRANCH   8  21
TORSDOF 1
ENDMDL
MODEL 8
REMARK VINA RESULT:      -6.9      6.922      8.366
REMARK  Name = NuBBE_2191
REMARK  5 active torsions:
REMARK  status: ('A' for Active; 'I' for Inactive)
REMARK    1  A    between atoms: C_1  and  C_2
REMARK    2  A    between atoms: C_8  and  C_9
REMARK    3  A    between atoms: C_8  and  C_11
REMARK    4  A    between atoms: C_18  and  C_19
REMARK    5  A    between atoms: C_18  and  C_20
REMARK                            x       y       z     vdW  Elec       q    Type
REMARK                         _______ _______ _______ _____ _____    ______ ____
ROOT
ATOM      1  C   LIG A   1      -8.677   2.823 131.766  0.00  0.00    +0.016 C 
ATOM      2  C   LIG A   1      -8.496   3.438 130.358  0.00  0.00    +0.000 C 
ATOM      3  C   LIG A   1      -7.005   3.809 130.048  0.00  0.00    +0.012 C 
ATOM      4  C   LIG A   1      -6.526   4.976 130.913  0.00  0.00    +0.084 C 
ATOM      5  C   LIG A   1      -7.412   6.180 130.728  0.00  0.00    +0.160 C 
ATOM      6  C   LIG A   1      -8.863   5.974 130.437  0.00  0.00    +0.003 C 
ATOM      7  C   LIG A   1      -9.675   7.240 130.317  0.00  0.00    +0.050 C 
ATOM      8  C   LIG A   1     -10.988   7.038 129.530  0.00  0.00    -0.003 C 
ATOM      9  C   LIG A   1     -11.869   8.292 129.698  0.00  0.00    +0.016 C 
ATOM     10  C   LIG A   1     -11.716   5.840 130.152  0.00  0.00    +0.090 C 
ATOM     11  C   LIG A   1      -9.354   4.723 130.325  0.00  0.00    +0.008 C 
ATOM     12  C   LIG A   1     -10.855   4.594 130.216  0.00  0.00    +0.161 C 
ATOM     13  O   LIG A   1     -11.397   3.491 130.264  0.00  0.00    -0.292 OA
ATOM     14  O   LIG A   1      -6.970   7.317 130.892  0.00  0.00    -0.292 OA
ATOM     15  C   LIG A   1      -5.997   2.599 130.013  0.00  0.00    -0.031 C 
ATOM     16  C   LIG A   1      -4.872   2.927 128.995  0.00  0.00    +0.011 C 
ATOM     17  C   LIG A   1      -5.298   2.326 131.362  0.00  0.00    +0.011 C 
ATOM     18  C   LIG A   1      -6.704   1.301 129.549  0.00  0.00    +0.007 C 
ATOM     19  C   LIG A   1      -7.862   1.588 128.608  0.00  0.00    +0.001 C 
ATOM     20  C   LIG A   1      -8.966   2.418 129.268  0.00  0.00    +0.012 C 
ENDROOT
BRANCH   8  21
ATOM     21  C   LIG A   1     -10.682   6.908 128.036  0.00  0.00    -0.027 C 
ATOM     22  C   LIG A   1     -10.756   7.854 127.090  0.00  0.00    +0.004 C 
ENDBRANCH   8  21
TORSDOF 1
ENDMDL
MODEL 9
REMARK VINA RESULT:      -6.9      1.935      6.074
REMARK  Name = NuBBE_2191
REMARK  5 active torsions:
REMARK  status: ('A' for Active; 'I' for Inactive)
REMARK    1  A    between atoms: C_1  and  C_2
REMARK    2  A    between atoms: C_8  and  C_9
REMARK    3  A    between atoms: C_8  and  C_11
REMARK    4  A    between atoms: C_18  and  C_19
REMARK    5  A    between atoms: C_18  and  C_20
REMARK                            x       y       z     vdW  Elec       q    Type
REMARK                         _______ _______ _______ _____ _____    ______ ____
ROOT
ATOM      1  C   LIG A   1      -9.429  -0.298 125.746  0.00  0.00    +0.016 C 
ATOM      2  C   LIG A   1      -7.975  -0.687 126.104  0.00  0.00    +0.000 C 
ATOM      3  C   LIG A   1      -7.693  -2.216 125.902  0.00  0.00    +0.012 C 
ATOM      4  C   LIG A   1      -8.457  -3.066 126.921  0.00  0.00    +0.084 C 
ATOM      5  C   LIG A   1      -8.113  -2.652 128.329  0.00  0.00    +0.160 C 
ATOM      6  C   LIG A   1      -7.783  -1.221 128.603  0.00  0.00    +0.003 C 
ATOM      7  C   LIG A   1      -7.501  -0.898 130.050  0.00  0.00    +0.050 C 
ATOM      8  C   LIG A   1      -6.684   0.399 130.227  0.00  0.00    -0.003 C 
ATOM      9  C   LIG A   1      -6.687   0.792 131.717  0.00  0.00    +0.016 C 
ATOM     10  C   LIG A   1      -7.392   1.500 129.427  0.00  0.00    +0.090 C 
ATOM     11  C   LIG A   1      -7.777  -0.327 127.593  0.00  0.00    +0.008 C 
ATOM     12  C   LIG A   1      -7.618   1.124 127.976  0.00  0.00    +0.161 C 
ATOM     13  O   LIG A   1      -7.754   2.016 127.140  0.00  0.00    -0.292 OA
ATOM     14  O   LIG A   1      -8.180  -3.460 129.254  0.00  0.00    -0.292 OA
ATOM     15  C   LIG A   1      -7.823  -2.742 124.423  0.00  0.00    -0.031 C 
ATOM     16  C   LIG A   1      -6.826  -3.916 124.232  0.00  0.00    +0.011 C 
ATOM     17  C   LIG A   1      -9.221  -3.297 124.076  0.00  0.00    +0.011 C 
ATOM     18  C   LIG A   1      -7.463  -1.632 123.405  0.00  0.00    +0.007 C 
ATOM     19  C   LIG A   1      -6.449  -0.650 123.968  0.00  0.00    +0.001 C 
ATOM     20  C   LIG A   1      -6.975   0.101 125.195  0.00  0.00    +0.012 C 
ENDROOT
BRANCH   8  21
ATOM     21  C   LIG A   1      -5.225   0.150 129.837  0.00  0.00    -0.027 C 
ATOM     22  C   LIG A   1      -4.198   1.009 129.882  0.00  0.00    +0.004 C 
ENDBRANCH   8  21
TORSDOF 1
ENDMDL
