MODEL 1
REMARK VINA RESULT:      -8.4      0.000      0.000
REMARK  Name = NuBBE_1648
REMARK  9 active torsions:
REMARK  status: ('A' for Active; 'I' for Inactive)
REMARK    1  A    between atoms: C_1  and  C_2
REMARK    2  A    between atoms: C_4  and  C_20
REMARK    3  A    between atoms: C_9  and  C_11
REMARK    4  A    between atoms: C_14  and  O_16
REMARK    5  A    between atoms: O_16  and  C_17
REMARK    6  A    between atoms: C_17  and  C_19
REMARK    7  A    between atoms: C_23  and  O_26
REMARK    8  A    between atoms: O_26  and  C_27
REMARK    9  A    between atoms: C_27  and  C_29
REMARK                            x       y       z     vdW  Elec       q    Type
REMARK                         _______ _______ _______ _____ _____    ______ ____
ROOT
ATOM      1  C   LIG A   1      -9.697  -3.289 123.211  0.00  0.00    +0.009 C 
ATOM      2  C   LIG A   1      -8.571  -3.211 124.260  0.00  0.00    +0.001 C 
ATOM      3  C   LIG A   1      -8.875  -2.065 125.271  0.00  0.00    +0.052 C 
ATOM      4  C   LIG A   1      -8.438  -0.688 124.766  0.00  0.00    -0.033 A 
ATOM      5  C   LIG A   1      -7.491  -0.541 123.736  0.00  0.00    -0.043 A 
ATOM      6  C   LIG A   1      -7.014  -1.706 122.908  0.00  0.00    +0.039 C 
ATOM      7  C   LIG A   1      -7.198  -3.080 123.564  0.00  0.00    -0.006 C 
ATOM      8  C   LIG A   1      -6.020  -3.407 124.486  0.00  0.00    +0.008 C 
ATOM      9  C   LIG A   1      -7.015   0.740 123.413  0.00  0.00    +0.007 A 
ATOM     10  C   LIG A   1      -7.462   1.871 124.097  0.00  0.00    +0.046 A 
ATOM     11  C   LIG A   1      -8.441   1.735 125.072  0.00  0.00    +0.132 A 
ATOM     12  C   LIG A   1      -8.928   0.470 125.409  0.00  0.00    +0.050 A 
ENDROOT
BRANCH   3  13
ATOM     13  C   LIG A   1      -8.389  -2.394 126.696  0.00  0.00    -0.040 A 
ATOM     14  C   LIG A   1      -7.480  -1.570 127.378  0.00  0.00    +0.008 A 
ATOM     15  C   LIG A   1      -7.137  -1.809 128.706  0.00  0.00    +0.046 A 
ATOM     16  C   LIG A   1      -7.644  -2.926 129.361  0.00  0.00    +0.132 A 
ATOM     17  C   LIG A   1      -8.532  -3.777 128.705  0.00  0.00    +0.046 A 
ATOM     18  C   LIG A   1      -8.908  -3.509 127.381  0.00  0.00    +0.008 A 
BRANCH  16  19
ATOM     19  O   LIG A   1      -7.363  -3.209 130.714  0.00  0.00    -0.426 OA
BRANCH  19  20
ATOM     20  C   LIG A   1      -6.055  -3.416 131.159  0.00  0.00    +0.309 C 
ATOM     21  O   LIG A   1      -5.344  -2.625 131.764  0.00  0.00    -0.251 OA
ATOM     22  C   LIG A   1      -5.586  -4.772 130.731  0.00  0.00    +0.136 C 
ENDBRANCH  19  20
ENDBRANCH  16  19
ENDBRANCH   3  13
BRANCH  11  23
ATOM     23  O   LIG A   1      -8.930   2.816 125.838  0.00  0.00    -0.426 OA
BRANCH  23  24
ATOM     24  C   LIG A   1      -8.174   3.967 126.063  0.00  0.00    +0.309 C 
ATOM     25  O   LIG A   1      -8.285   5.046 125.490  0.00  0.00    -0.251 OA
ATOM     26  C   LIG A   1      -7.151   3.700 127.123  0.00  0.00    +0.136 C 
ENDBRANCH  23  24
ENDBRANCH  11  23
TORSDOF 5
ENDMDL
MODEL 2
REMARK VINA RESULT:      -8.3      1.202      6.521
REMARK  Name = NuBBE_1648
REMARK  9 active torsions:
REMARK  status: ('A' for Active; 'I' for Inactive)
REMARK    1  A    between atoms: C_1  and  C_2
REMARK    2  A    between atoms: C_4  and  C_20
REMARK    3  A    between atoms: C_9  and  C_11
REMARK    4  A    between atoms: C_14  and  O_16
REMARK    5  A    between atoms: O_16  and  C_17
REMARK    6  A    between atoms: C_17  and  C_19
REMARK    7  A    between atoms: C_23  and  O_26
REMARK    8  A    between atoms: O_26  and  C_27
REMARK    9  A    between atoms: C_27  and  C_29
REMARK                            x       y       z     vdW  Elec       q    Type
REMARK                         _______ _______ _______ _____ _____    ______ ____
ROOT
ATOM      1  C   LIG A   1      -5.536  -3.343 123.968  0.00  0.00    +0.009 C 
ATOM      2  C   LIG A   1      -6.698  -2.334 124.043  0.00  0.00    +0.001 C 
ATOM      3  C   LIG A   1      -6.641  -1.568 125.398  0.00  0.00    +0.052 C 
ATOM      4  C   LIG A   1      -7.293  -2.337 126.550  0.00  0.00    -0.033 A 
ATOM      5  C   LIG A   1      -8.210  -3.378 126.321  0.00  0.00    -0.043 A 
ATOM      6  C   LIG A   1      -8.441  -3.963 124.952  0.00  0.00    +0.039 C 
ATOM      7  C   LIG A   1      -8.045  -3.048 123.787  0.00  0.00    -0.006 C 
ATOM      8  C   LIG A   1      -9.182  -2.084 123.438  0.00  0.00    +0.008 C 
ATOM      9  C   LIG A   1      -8.891  -3.949 127.409  0.00  0.00    +0.007 A 
ATOM     10  C   LIG A   1      -8.678  -3.500 128.712  0.00  0.00    +0.046 A 
ATOM     11  C   LIG A   1      -7.729  -2.514 128.947  0.00  0.00    +0.132 A 
ATOM     12  C   LIG A   1      -7.041  -1.932 127.880  0.00  0.00    +0.050 A 
ENDROOT
BRANCH   3  13
ATOM     13  C   LIG A   1      -7.117  -0.108 125.269  0.00  0.00    -0.040 A 
ATOM     14  C   LIG A   1      -6.815   0.672 124.142  0.00  0.00    +0.008 A 
ATOM     15  C   LIG A   1      -7.346   1.949 123.979  0.00  0.00    +0.046 A 
ATOM     16  C   LIG A   1      -8.136   2.503 124.979  0.00  0.00    +0.132 A 
ATOM     17  C   LIG A   1      -8.438   1.762 126.121  0.00  0.00    +0.046 A 
ATOM     18  C   LIG A   1      -7.936   0.461 126.262  0.00  0.00    +0.008 A 
BRANCH  16  19
ATOM     19  O   LIG A   1      -8.732   3.776 124.863  0.00  0.00    -0.426 OA
BRANCH  19  20
ATOM     20  C   LIG A   1      -8.276   4.864 125.611  0.00  0.00    +0.309 C 
ATOM     21  O   LIG A   1      -8.949   5.642 126.275  0.00  0.00    -0.251 OA
ATOM     22  C   LIG A   1      -6.795   5.005 125.445  0.00  0.00    +0.136 C 
ENDBRANCH  19  20
ENDBRANCH  16  19
ENDBRANCH   3  13
BRANCH  11  23
ATOM     23  O   LIG A   1      -7.469  -1.975 130.225  0.00  0.00    -0.426 OA
BRANCH  23  24
ATOM     24  C   LIG A   1      -7.083  -2.773 131.303  0.00  0.00    +0.309 C 
ATOM     25  O   LIG A   1      -7.661  -2.890 132.378  0.00  0.00    -0.251 OA
ATOM     26  C   LIG A   1      -5.806  -3.484 130.974  0.00  0.00    +0.136 C 
ENDBRANCH  23  24
ENDBRANCH  11  23
TORSDOF 5
ENDMDL
MODEL 3
REMARK VINA RESULT:      -7.8      1.430      6.533
REMARK  Name = NuBBE_1648
REMARK  9 active torsions:
REMARK  status: ('A' for Active; 'I' for Inactive)
REMARK    1  A    between atoms: C_1  and  C_2
REMARK    2  A    between atoms: C_4  and  C_20
REMARK    3  A    between atoms: C_9  and  C_11
REMARK    4  A    between atoms: C_14  and  O_16
REMARK    5  A    between atoms: O_16  and  C_17
REMARK    6  A    between atoms: C_17  and  C_19
REMARK    7  A    between atoms: C_23  and  O_26
REMARK    8  A    between atoms: O_26  and  C_27
REMARK    9  A    between atoms: C_27  and  C_29
REMARK                            x       y       z     vdW  Elec       q    Type
REMARK                         _______ _______ _______ _____ _____    ______ ____
ROOT
ATOM      1  C   LIG A   1      -5.438  -3.237 124.014  0.00  0.00    +0.009 C 
ATOM      2  C   LIG A   1      -6.408  -2.072 124.292  0.00  0.00    +0.001 C 
ATOM      3  C   LIG A   1      -6.309  -1.653 125.790  0.00  0.00    +0.052 C 
ATOM      4  C   LIG A   1      -7.160  -2.526 126.715  0.00  0.00    -0.033 A 
ATOM      5  C   LIG A   1      -8.228  -3.301 126.228  0.00  0.00    -0.043 A 
ATOM      6  C   LIG A   1      -8.466  -3.511 124.755  0.00  0.00    +0.039 C 
ATOM      7  C   LIG A   1      -7.838  -2.449 123.844  0.00  0.00    -0.006 C 
ATOM      8  C   LIG A   1      -8.763  -1.237 123.700  0.00  0.00    +0.008 C 
ATOM      9  C   LIG A   1      -9.070  -3.965 127.136  0.00  0.00    +0.007 A 
ATOM     10  C   LIG A   1      -8.868  -3.866 128.512  0.00  0.00    +0.046 A 
ATOM     11  C   LIG A   1      -7.780  -3.151 128.993  0.00  0.00    +0.132 A 
ATOM     12  C   LIG A   1      -6.930  -2.483 128.108  0.00  0.00    +0.050 A 
ENDROOT
BRANCH   3  13
ATOM     13  C   LIG A   1      -6.512  -0.139 125.991  0.00  0.00    -0.040 A 
ATOM     14  C   LIG A   1      -7.763   0.402 126.328  0.00  0.00    +0.008 A 
ATOM     15  C   LIG A   1      -7.913   1.755 126.623  0.00  0.00    +0.046 A 
ATOM     16  C   LIG A   1      -6.824   2.611 126.516  0.00  0.00    +0.132 A 
ATOM     17  C   LIG A   1      -5.572   2.110 126.163  0.00  0.00    +0.046 A 
ATOM     18  C   LIG A   1      -5.416   0.740 125.908  0.00  0.00    +0.008 A 
BRANCH  16  19
ATOM     19  O   LIG A   1      -6.900   3.984 126.832  0.00  0.00    -0.426 OA
BRANCH  19  20
ATOM     20  C   LIG A   1      -7.427   4.911 125.930  0.00  0.00    +0.309 C 
ATOM     21  O   LIG A   1      -8.587   5.294 125.854  0.00  0.00    -0.251 OA
ATOM     22  C   LIG A   1      -6.358   5.357 124.982  0.00  0.00    +0.136 C 
ENDBRANCH  19  20
ENDBRANCH  16  19
ENDBRANCH   3  13
BRANCH  11  23
ATOM     23  O   LIG A   1      -7.515  -2.969 130.368  0.00  0.00    -0.426 OA
BRANCH  23  24
ATOM     24  C   LIG A   1      -6.241  -3.153 130.908  0.00  0.00    +0.309 C 
ATOM     25  O   LIG A   1      -5.527  -2.299 131.422  0.00  0.00    -0.251 OA
ATOM     26  C   LIG A   1      -5.830  -4.586 130.755  0.00  0.00    +0.136 C 
ENDBRANCH  23  24
ENDBRANCH  11  23
TORSDOF 5
ENDMDL
MODEL 4
REMARK VINA RESULT:      -7.6      3.138      6.046
REMARK  Name = NuBBE_1648
REMARK  9 active torsions:
REMARK  status: ('A' for Active; 'I' for Inactive)
REMARK    1  A    between atoms: C_1  and  C_2
REMARK    2  A    between atoms: C_4  and  C_20
REMARK    3  A    between atoms: C_9  and  C_11
REMARK    4  A    between atoms: C_14  and  O_16
REMARK    5  A    between atoms: O_16  and  C_17
REMARK    6  A    between atoms: C_17  and  C_19
REMARK    7  A    between atoms: C_23  and  O_26
REMARK    8  A    between atoms: O_26  and  C_27
REMARK    9  A    between atoms: C_27  and  C_29
REMARK                            x       y       z     vdW  Elec       q    Type
REMARK                         _______ _______ _______ _____ _____    ______ ____
ROOT
ATOM      1  C   LIG A   1      -6.264  -4.126 130.585  0.00  0.00    +0.009 C 
ATOM      2  C   LIG A   1      -6.178  -2.591 130.477  0.00  0.00    +0.001 C 
ATOM      3  C   LIG A   1      -7.377  -2.057 129.638  0.00  0.00    +0.052 C 
ATOM      4  C   LIG A   1      -7.134  -2.132 128.128  0.00  0.00    -0.033 A 
ATOM      5  C   LIG A   1      -5.840  -2.244 127.590  0.00  0.00    -0.043 A 
ATOM      6  C   LIG A   1      -4.632  -2.527 128.446  0.00  0.00    +0.039 C 
ATOM      7  C   LIG A   1      -4.796  -2.170 129.928  0.00  0.00    -0.006 C 
ATOM      8  C   LIG A   1      -4.475  -0.692 130.172  0.00  0.00    +0.008 C 
ATOM      9  C   LIG A   1      -5.661  -2.159 126.199  0.00  0.00    +0.007 A 
ATOM     10  C   LIG A   1      -6.743  -1.962 125.342  0.00  0.00    +0.046 A 
ATOM     11  C   LIG A   1      -8.028  -1.911 125.866  0.00  0.00    +0.132 A 
ATOM     12  C   LIG A   1      -8.229  -1.994 127.246  0.00  0.00    +0.050 A 
ENDROOT
BRANCH   3  13
ATOM     13  C   LIG A   1      -7.870  -0.681 130.126  0.00  0.00    -0.040 A 
ATOM     14  C   LIG A   1      -7.808   0.460 129.311  0.00  0.00    +0.008 A 
ATOM     15  C   LIG A   1      -8.363   1.672 129.716  0.00  0.00    +0.046 A 
ATOM     16  C   LIG A   1      -8.928   1.787 130.981  0.00  0.00    +0.132 A 
ATOM     17  C   LIG A   1      -8.985   0.678 131.823  0.00  0.00    +0.046 A 
ATOM     18  C   LIG A   1      -8.464  -0.552 131.396  0.00  0.00    +0.008 A 
BRANCH  16  19
ATOM     19  O   LIG A   1      -9.534   2.975 131.439  0.00  0.00    -0.426 OA
BRANCH  19  20
ATOM     20  C   LIG A   1     -10.300   3.777 130.590  0.00  0.00    +0.309 C 
ATOM     21  O   LIG A   1     -11.394   3.515 130.109  0.00  0.00    -0.251 OA
ATOM     22  C   LIG A   1      -9.552   5.036 130.276  0.00  0.00    +0.136 C 
ENDBRANCH  19  20
ENDBRANCH  16  19
ENDBRANCH   3  13
BRANCH  11  23
ATOM     23  O   LIG A   1      -9.179  -1.683 125.081  0.00  0.00    -0.426 OA
BRANCH  23  24
ATOM     24  C   LIG A   1      -9.189  -1.893 123.701  0.00  0.00    +0.309 C 
ATOM     25  O   LIG A   1      -8.996  -1.056 122.826  0.00  0.00    -0.251 OA
ATOM     26  C   LIG A   1      -9.504  -3.328 123.412  0.00  0.00    +0.136 C 
ENDBRANCH  23  24
ENDBRANCH  11  23
TORSDOF 5
ENDMDL
MODEL 5
REMARK VINA RESULT:      -7.4      7.886     10.344
REMARK  Name = NuBBE_1648
REMARK  9 active torsions:
REMARK  status: ('A' for Active; 'I' for Inactive)
REMARK    1  A    between atoms: C_1  and  C_2
REMARK    2  A    between atoms: C_4  and  C_20
REMARK    3  A    between atoms: C_9  and  C_11
REMARK    4  A    between atoms: C_14  and  O_16
REMARK    5  A    between atoms: O_16  and  C_17
REMARK    6  A    between atoms: C_17  and  C_19
REMARK    7  A    between atoms: C_23  and  O_26
REMARK    8  A    between atoms: O_26  and  C_27
REMARK    9  A    between atoms: C_27  and  C_29
REMARK                            x       y       z     vdW  Elec       q    Type
REMARK                         _______ _______ _______ _____ _____    ______ ____
ROOT
ATOM      1  C   LIG A   1      -6.372   2.484 133.754  0.00  0.00    +0.009 C 
ATOM      2  C   LIG A   1      -7.262   3.726 133.552  0.00  0.00    +0.001 C 
ATOM      3  C   LIG A   1      -7.175   4.198 132.070  0.00  0.00    +0.052 C 
ATOM      4  C   LIG A   1      -5.955   5.079 131.791  0.00  0.00    -0.033 A 
ATOM      5  C   LIG A   1      -5.265   5.739 132.824  0.00  0.00    -0.043 A 
ATOM      6  C   LIG A   1      -5.525   5.450 134.280  0.00  0.00    +0.039 C 
ATOM      7  C   LIG A   1      -6.892   4.822 134.577  0.00  0.00    -0.006 C 
ATOM      8  C   LIG A   1      -7.969   5.900 134.722  0.00  0.00    +0.008 C 
ATOM      9  C   LIG A   1      -4.249   6.653 132.501  0.00  0.00    +0.007 A 
ATOM     10  C   LIG A   1      -3.912   6.922 131.175  0.00  0.00    +0.046 A 
ATOM     11  C   LIG A   1      -4.550   6.227 130.155  0.00  0.00    +0.132 A 
ATOM     12  C   LIG A   1      -5.564   5.314 130.454  0.00  0.00    +0.050 A 
ENDROOT
BRANCH   3  13
ATOM     13  C   LIG A   1      -8.505   4.786 131.561  0.00  0.00    -0.040 A 
ATOM     14  C   LIG A   1      -8.716   6.171 131.470  0.00  0.00    +0.008 A 
ATOM     15  C   LIG A   1      -9.874   6.693 130.900  0.00  0.00    +0.046 A 
ATOM     16  C   LIG A   1     -10.882   5.837 130.473  0.00  0.00    +0.132 A 
ATOM     17  C   LIG A   1     -10.714   4.456 130.569  0.00  0.00    +0.046 A 
ATOM     18  C   LIG A   1      -9.528   3.933 131.104  0.00  0.00    +0.008 A 
BRANCH  16  19
ATOM     19  O   LIG A   1     -12.065   6.298 129.858  0.00  0.00    -0.426 OA
BRANCH  19  20
ATOM     20  C   LIG A   1     -12.815   7.339 130.410  0.00  0.00    +0.309 C 
ATOM     21  O   LIG A   1     -13.441   7.325 131.461  0.00  0.00    -0.251 OA
ATOM     22  C   LIG A   1     -12.806   8.514 129.482  0.00  0.00    +0.136 C 
ENDBRANCH  19  20
ENDBRANCH  16  19
ENDBRANCH   3  13
BRANCH  11  23
ATOM     23  O   LIG A   1      -4.300   6.454 128.785  0.00  0.00    -0.426 OA
BRANCH  23  24
ATOM     24  C   LIG A   1      -3.044   6.242 128.215  0.00  0.00    +0.309 C 
ATOM     25  O   LIG A   1      -2.155   7.072 128.056  0.00  0.00    -0.251 OA
ATOM     26  C   LIG A   1      -2.921   4.813 127.782  0.00  0.00    +0.136 C 
ENDBRANCH  23  24
ENDBRANCH  11  23
TORSDOF 5
ENDMDL
MODEL 6
REMARK VINA RESULT:      -7.4      1.940      6.358
REMARK  Name = NuBBE_1648
REMARK  9 active torsions:
REMARK  status: ('A' for Active; 'I' for Inactive)
REMARK    1  A    between atoms: C_1  and  C_2
REMARK    2  A    between atoms: C_4  and  C_20
REMARK    3  A    between atoms: C_9  and  C_11
REMARK    4  A    between atoms: C_14  and  O_16
REMARK    5  A    between atoms: O_16  and  C_17
REMARK    6  A    between atoms: C_17  and  C_19
REMARK    7  A    between atoms: C_23  and  O_26
REMARK    8  A    between atoms: O_26  and  C_27
REMARK    9  A    between atoms: C_27  and  C_29
REMARK                            x       y       z     vdW  Elec       q    Type
REMARK                         _______ _______ _______ _____ _____    ______ ____
ROOT
ATOM      1  C   LIG A   1      -5.251  -2.938 123.947  0.00  0.00    +0.009 C 
ATOM      2  C   LIG A   1      -6.070  -1.709 124.388  0.00  0.00    +0.001 C 
ATOM      3  C   LIG A   1      -5.936  -1.516 125.928  0.00  0.00    +0.052 C 
ATOM      4  C   LIG A   1      -6.902  -2.392 126.729  0.00  0.00    -0.033 A 
ATOM      5  C   LIG A   1      -8.053  -2.951 126.146  0.00  0.00    -0.043 A 
ATOM      6  C   LIG A   1      -8.298  -2.925 124.659  0.00  0.00    +0.039 C 
ATOM      7  C   LIG A   1      -7.531  -1.836 123.900  0.00  0.00    -0.006 C 
ATOM      8  C   LIG A   1      -8.293  -0.509 123.929  0.00  0.00    +0.008 C 
ATOM      9  C   LIG A   1      -8.983  -3.621 126.958  0.00  0.00    +0.007 A 
ATOM     10  C   LIG A   1      -8.788  -3.739 128.334  0.00  0.00    +0.046 A 
ATOM     11  C   LIG A   1      -7.623  -3.240 128.903  0.00  0.00    +0.132 A 
ATOM     12  C   LIG A   1      -6.686  -2.570 128.113  0.00  0.00    +0.050 A 
ENDROOT
BRANCH   3  13
ATOM     13  C   LIG A   1      -5.949  -0.030 126.337  0.00  0.00    -0.040 A 
ATOM     14  C   LIG A   1      -4.901   0.841 125.998  0.00  0.00    +0.008 A 
ATOM     15  C   LIG A   1      -4.975   2.205 126.268  0.00  0.00    +0.046 A 
ATOM     16  C   LIG A   1      -6.072   2.717 126.951  0.00  0.00    +0.132 A 
ATOM     17  C   LIG A   1      -7.120   1.876 127.321  0.00  0.00    +0.046 A 
ATOM     18  C   LIG A   1      -7.062   0.510 127.009  0.00  0.00    +0.008 A 
BRANCH  16  19
ATOM     19  O   LIG A   1      -6.224   4.092 127.227  0.00  0.00    -0.426 OA
BRANCH  19  20
ATOM     20  C   LIG A   1      -5.191   4.839 127.797  0.00  0.00    +0.309 C 
ATOM     21  O   LIG A   1      -4.514   5.703 127.256  0.00  0.00    -0.251 OA
ATOM     22  C   LIG A   1      -4.962   4.390 129.207  0.00  0.00    +0.136 C 
ENDBRANCH  19  20
ENDBRANCH  16  19
ENDBRANCH   3  13
BRANCH  11  23
ATOM     23  O   LIG A   1      -7.354  -3.284 130.288  0.00  0.00    -0.426 OA
BRANCH  23  24
ATOM     24  C   LIG A   1      -6.207  -3.892 130.802  0.00  0.00    +0.309 C 
ATOM     25  O   LIG A   1      -5.791  -5.017 130.547  0.00  0.00    -0.251 OA
ATOM     26  C   LIG A   1      -5.533  -2.964 131.765  0.00  0.00    +0.136 C 
ENDBRANCH  23  24
ENDBRANCH  11  23
TORSDOF 5
ENDMDL
MODEL 7
REMARK VINA RESULT:      -7.4      2.702      6.263
REMARK  Name = NuBBE_1648
REMARK  9 active torsions:
REMARK  status: ('A' for Active; 'I' for Inactive)
REMARK    1  A    between atoms: C_1  and  C_2
REMARK    2  A    between atoms: C_4  and  C_20
REMARK    3  A    between atoms: C_9  and  C_11
REMARK    4  A    between atoms: C_14  and  O_16
REMARK    5  A    between atoms: O_16  and  C_17
REMARK    6  A    between atoms: C_17  and  C_19
REMARK    7  A    between atoms: C_23  and  O_26
REMARK    8  A    between atoms: O_26  and  C_27
REMARK    9  A    between atoms: C_27  and  C_29
REMARK                            x       y       z     vdW  Elec       q    Type
REMARK                         _______ _______ _______ _____ _____    ______ ____
ROOT
ATOM      1  C   LIG A   1      -4.900  -2.989 129.364  0.00  0.00    +0.009 C 
ATOM      2  C   LIG A   1      -6.201  -2.802 128.559  0.00  0.00    +0.001 C 
ATOM      3  C   LIG A   1      -6.424  -1.288 128.266  0.00  0.00    +0.052 C 
ATOM      4  C   LIG A   1      -7.087  -0.543 129.427  0.00  0.00    -0.033 A 
ATOM      5  C   LIG A   1      -7.803  -1.221 130.431  0.00  0.00    -0.043 A 
ATOM      6  C   LIG A   1      -7.777  -2.721 130.567  0.00  0.00    +0.039 C 
ATOM      7  C   LIG A   1      -7.384  -3.476 129.291  0.00  0.00    -0.006 C 
ATOM      8  C   LIG A   1      -8.603  -3.697 128.390  0.00  0.00    +0.008 C 
ATOM      9  C   LIG A   1      -8.516  -0.481 131.388  0.00  0.00    +0.007 A 
ATOM     10  C   LIG A   1      -8.531   0.913 131.361  0.00  0.00    +0.046 A 
ATOM     11  C   LIG A   1      -7.777   1.585 130.408  0.00  0.00    +0.132 A 
ATOM     12  C   LIG A   1      -7.060   0.869 129.446  0.00  0.00    +0.050 A 
ENDROOT
BRANCH   3  13
ATOM     13  C   LIG A   1      -7.095  -1.046 126.900  0.00  0.00    -0.040 A 
ATOM     14  C   LIG A   1      -8.373  -0.477 126.793  0.00  0.00    +0.008 A 
ATOM     15  C   LIG A   1      -8.923  -0.154 125.554  0.00  0.00    +0.046 A 
ATOM     16  C   LIG A   1      -8.231  -0.461 124.389  0.00  0.00    +0.132 A 
ATOM     17  C   LIG A   1      -6.968  -1.046 124.460  0.00  0.00    +0.046 A 
ATOM     18  C   LIG A   1      -6.400  -1.331 125.710  0.00  0.00    +0.008 A 
BRANCH  16  19
ATOM     19  O   LIG A   1      -8.715  -0.131 123.106  0.00  0.00    -0.426 OA
BRANCH  19  20
ATOM     20  C   LIG A   1      -9.789   0.746 122.936  0.00  0.00    +0.309 C 
ATOM     21  O   LIG A   1     -10.957   0.455 122.720  0.00  0.00    -0.251 OA
ATOM     22  C   LIG A   1      -9.298   2.160 122.995  0.00  0.00    +0.136 C 
ENDBRANCH  19  20
ENDBRANCH  16  19
ENDBRANCH   3  13
BRANCH  11  23
ATOM     23  O   LIG A   1      -7.756   2.990 130.282  0.00  0.00    -0.426 OA
BRANCH  23  24
ATOM     24  C   LIG A   1      -8.656   3.675 129.464  0.00  0.00    +0.309 C 
ATOM     25  O   LIG A   1      -9.874   3.729 129.590  0.00  0.00    -0.251 OA
ATOM     26  C   LIG A   1      -7.914   4.347 128.349  0.00  0.00    +0.136 C 
ENDBRANCH  23  24
ENDBRANCH  11  23
TORSDOF 5
ENDMDL
MODEL 8
REMARK VINA RESULT:      -6.8      6.151      9.343
REMARK  Name = NuBBE_1648
REMARK  9 active torsions:
REMARK  status: ('A' for Active; 'I' for Inactive)
REMARK    1  A    between atoms: C_1  and  C_2
REMARK    2  A    between atoms: C_4  and  C_20
REMARK    3  A    between atoms: C_9  and  C_11
REMARK    4  A    between atoms: C_14  and  O_16
REMARK    5  A    between atoms: O_16  and  C_17
REMARK    6  A    between atoms: C_17  and  C_19
REMARK    7  A    between atoms: C_23  and  O_26
REMARK    8  A    between atoms: O_26  and  C_27
REMARK    9  A    between atoms: C_27  and  C_29
REMARK                            x       y       z     vdW  Elec       q    Type
REMARK                         _______ _______ _______ _____ _____    ______ ____
ROOT
ATOM      1  C   LIG A   1      -8.244   0.573 132.235  0.00  0.00    +0.009 C 
ATOM      2  C   LIG A   1      -8.583   2.069 132.381  0.00  0.00    +0.001 C 
ATOM      3  C   LIG A   1      -8.262   2.812 131.050  0.00  0.00    +0.052 C 
ATOM      4  C   LIG A   1      -6.788   3.205 130.923  0.00  0.00    -0.033 A 
ATOM      5  C   LIG A   1      -5.942   3.285 132.044  0.00  0.00    -0.043 A 
ATOM      6  C   LIG A   1      -6.353   2.777 133.402  0.00  0.00    +0.039 C 
ATOM      7  C   LIG A   1      -7.867   2.663 133.615  0.00  0.00    -0.006 C 
ATOM      8  C   LIG A   1      -8.457   4.001 134.069  0.00  0.00    +0.008 C 
ATOM      9  C   LIG A   1      -4.642   3.794 131.892  0.00  0.00    +0.007 A 
ATOM     10  C   LIG A   1      -4.174   4.223 130.650  0.00  0.00    +0.046 A 
ATOM     11  C   LIG A   1      -4.985   4.088 129.532  0.00  0.00    +0.132 A 
ATOM     12  C   LIG A   1      -6.282   3.586 129.660  0.00  0.00    +0.050 A 
ENDROOT
BRANCH   3  13
ATOM     13  C   LIG A   1      -9.245   3.965 130.768  0.00  0.00    -0.040 A 
ATOM     14  C   LIG A   1      -8.828   5.305 130.741  0.00  0.00    +0.008 A 
ATOM     15  C   LIG A   1      -9.697   6.328 130.370  0.00  0.00    +0.046 A 
ATOM     16  C   LIG A   1     -11.026   6.039 130.087  0.00  0.00    +0.132 A 
ATOM     17  C   LIG A   1     -11.478   4.721 130.125  0.00  0.00    +0.046 A 
ATOM     18  C   LIG A   1     -10.590   3.688 130.457  0.00  0.00    +0.008 A 
BRANCH  16  19
ATOM     19  O   LIG A   1     -11.949   7.023 129.673  0.00  0.00    -0.426 OA
BRANCH  19  20
ATOM     20  C   LIG A   1     -12.704   7.747 130.598  0.00  0.00    +0.309 C 
ATOM     21  O   LIG A   1     -13.202   7.333 131.636  0.00  0.00    -0.251 OA
ATOM     22  C   LIG A   1     -12.890   9.150 130.109  0.00  0.00    +0.136 C 
ENDBRANCH  19  20
ENDBRANCH  16  19
ENDBRANCH   3  13
BRANCH  11  23
ATOM     23  O   LIG A   1      -4.611   4.524 128.243  0.00  0.00    -0.426 OA
BRANCH  23  24
ATOM     24  C   LIG A   1      -3.467   4.046 127.601  0.00  0.00    +0.309 C 
ATOM     25  O   LIG A   1      -2.337   4.518 127.656  0.00  0.00    -0.251 OA
ATOM     26  C   LIG A   1      -3.816   2.841 126.781  0.00  0.00    +0.136 C 
ENDBRANCH  23  24
ENDBRANCH  11  23
TORSDOF 5
ENDMDL
MODEL 9
REMARK VINA RESULT:      -6.8      3.488      6.354
REMARK  Name = NuBBE_1648
REMARK  9 active torsions:
REMARK  status: ('A' for Active; 'I' for Inactive)
REMARK    1  A    between atoms: C_1  and  C_2
REMARK    2  A    between atoms: C_4  and  C_20
REMARK    3  A    between atoms: C_9  and  C_11
REMARK    4  A    between atoms: C_14  and  O_16
REMARK    5  A    between atoms: O_16  and  C_17
REMARK    6  A    between atoms: C_17  and  C_19
REMARK    7  A    between atoms: C_23  and  O_26
REMARK    8  A    between atoms: O_26  and  C_27
REMARK    9  A    between atoms: C_27  and  C_29
REMARK                            x       y       z     vdW  Elec       q    Type
REMARK                         _______ _______ _______ _____ _____    ______ ____
ROOT
ATOM      1  C   LIG A   1      -4.959  -0.168 131.326  0.00  0.00    +0.009 C 
ATOM      2  C   LIG A   1      -5.960  -0.734 130.300  0.00  0.00    +0.001 C 
ATOM      3  C   LIG A   1      -6.574   0.432 129.469  0.00  0.00    +0.052 C 
ATOM      4  C   LIG A   1      -7.749   1.117 130.171  0.00  0.00    -0.033 A 
ATOM      5  C   LIG A   1      -8.458   0.490 131.212  0.00  0.00    -0.043 A 
ATOM      6  C   LIG A   1      -7.980  -0.783 131.861  0.00  0.00    +0.039 C 
ATOM      7  C   LIG A   1      -7.013  -1.615 131.010  0.00  0.00    -0.006 C 
ATOM      8  C   LIG A   1      -7.778  -2.531 130.051  0.00  0.00    +0.008 C 
ATOM      9  C   LIG A   1      -9.618   1.098 131.721  0.00  0.00    +0.007 A 
ATOM     10  C   LIG A   1     -10.082   2.310 131.210  0.00  0.00    +0.046 A 
ATOM     11  C   LIG A   1      -9.351   2.960 130.225  0.00  0.00    +0.132 A 
ATOM     12  C   LIG A   1      -8.194   2.373 129.705  0.00  0.00    +0.050 A 
ENDROOT
BRANCH   3  13
ATOM     13  C   LIG A   1      -6.865   0.024 128.011  0.00  0.00    -0.040 A 
ATOM     14  C   LIG A   1      -5.862  -0.480 127.169  0.00  0.00    +0.008 A 
ATOM     15  C   LIG A   1      -6.157  -0.956 125.893  0.00  0.00    +0.046 A 
ATOM     16  C   LIG A   1      -7.455  -0.869 125.405  0.00  0.00    +0.132 A 
ATOM     17  C   LIG A   1      -8.471  -0.353 126.208  0.00  0.00    +0.046 A 
ATOM     18  C   LIG A   1      -8.178   0.085 127.508  0.00  0.00    +0.008 A 
BRANCH  16  19
ATOM     19  O   LIG A   1      -7.827  -1.361 124.136  0.00  0.00    -0.426 OA
BRANCH  19  20
ATOM     20  C   LIG A   1      -8.727  -2.420 124.001  0.00  0.00    +0.309 C 
ATOM     21  O   LIG A   1      -9.863  -2.375 123.549  0.00  0.00    -0.251 OA
ATOM     22  C   LIG A   1      -8.121  -3.671 124.559  0.00  0.00    +0.136 C 
ENDBRANCH  19  20
ENDBRANCH  16  19
ENDBRANCH   3  13
BRANCH  11  23
ATOM     23  O   LIG A   1      -9.758   4.171 129.626  0.00  0.00    -0.426 OA
BRANCH  23  24
ATOM     24  C   LIG A   1     -10.180   5.267 130.381  0.00  0.00    +0.309 C 
ATOM     25  O   LIG A   1      -9.515   5.907 131.188  0.00  0.00    -0.251 OA
ATOM     26  C   LIG A   1     -11.619   5.560 130.084  0.00  0.00    +0.136 C 
ENDBRANCH  23  24
ENDBRANCH  11  23
TORSDOF 5
ENDMDL
