MODEL 1
REMARK VINA RESULT:      -4.6      0.000      0.000
REMARK  Name = NuBBE_2123
REMARK  8 active torsions:
REMARK  status: ('A' for Active; 'I' for Inactive)
REMARK    1  A    between atoms: C_1  and  C_2
REMARK    2  A    between atoms: C_2  and  C_3
REMARK    3  A    between atoms: C_3  and  C_4
REMARK    4  A    between atoms: C_4  and  C_5
REMARK    5  A    between atoms: C_5  and  C_6
REMARK    6  A    between atoms: C_6  and  C_7
REMARK    7  A    between atoms: C_7  and  C_8
REMARK    8  A    between atoms: C_8  and  C_9
REMARK                            x       y       z     vdW  Elec       q    Type
REMARK                         _______ _______ _______ _____ _____    ______ ____
ROOT
ATOM      1  C   LIG A   1      -8.304  -2.641 123.315  0.00  0.00    -0.000 C 
ENDROOT
BRANCH   1   2
ATOM      2  C   LIG A   1      -8.519  -3.587 124.502  0.00  0.00    -0.000 C 
BRANCH   2   3
ATOM      3  C   LIG A   1      -9.274  -3.012 125.712  0.00  0.00    -0.000 C 
BRANCH   3   5
ATOM      4  C   LIG A   1      -8.963  -4.025 128.045  0.00  0.00    +0.004 C 
ATOM      5  C   LIG A   1      -8.551  -2.942 127.062  0.00  0.00    -0.003 C 
ENDBRANCH   3   5
ENDBRANCH   2   3
ENDBRANCH   1   2
BRANCH   1   6
ATOM      6  C   LIG A   1      -6.853  -2.189 123.132  0.00  0.00    -0.000 C 
BRANCH   6   7
ATOM      7  C   LIG A   1      -5.865  -2.762 124.124  0.00  0.00    -0.000 C 
BRANCH   7   8
ATOM      8  C   LIG A   1      -4.607  -3.288 123.457  0.00  0.00    -0.003 C 
ATOM      9  C   LIG A   1      -4.505  -4.782 123.648  0.00  0.00    +0.004 C 
ENDBRANCH   7   8
ENDBRANCH   6   7
ENDBRANCH   1   6
TORSDOF 6
ENDMDL
MODEL 2
REMARK VINA RESULT:      -4.6      1.244      2.134
REMARK  Name = NuBBE_2123
REMARK  8 active torsions:
REMARK  status: ('A' for Active; 'I' for Inactive)
REMARK    1  A    between atoms: C_1  and  C_2
REMARK    2  A    between atoms: C_2  and  C_3
REMARK    3  A    between atoms: C_3  and  C_4
REMARK    4  A    between atoms: C_4  and  C_5
REMARK    5  A    between atoms: C_5  and  C_6
REMARK    6  A    between atoms: C_6  and  C_7
REMARK    7  A    between atoms: C_7  and  C_8
REMARK    8  A    between atoms: C_8  and  C_9
REMARK                            x       y       z     vdW  Elec       q    Type
REMARK                         _______ _______ _______ _____ _____    ______ ____
ROOT
ATOM      1  C   LIG A   1      -6.723  -0.980 123.353  0.00  0.00    -0.000 C 
ENDROOT
BRANCH   1   2
ATOM      2  C   LIG A   1      -7.624  -1.958 122.590  0.00  0.00    -0.000 C 
BRANCH   2   3
ATOM      3  C   LIG A   1      -9.060  -2.124 123.115  0.00  0.00    -0.000 C 
BRANCH   3   5
ATOM      4  C   LIG A   1      -9.324  -2.984 125.513  0.00  0.00    +0.004 C 
ATOM      5  C   LIG A   1      -9.372  -3.313 124.031  0.00  0.00    -0.003 C 
ENDBRANCH   3   5
ENDBRANCH   2   3
ENDBRANCH   1   2
BRANCH   1   6
ATOM      6  C   LIG A   1      -5.863  -1.637 124.434  0.00  0.00    -0.000 C 
BRANCH   6   7
ATOM      7  C   LIG A   1      -5.658  -3.129 124.282  0.00  0.00    -0.000 C 
BRANCH   7   8
ATOM      8  C   LIG A   1      -4.428  -3.468 123.459  0.00  0.00    -0.003 C 
ATOM      9  C   LIG A   1      -4.217  -4.962 123.435  0.00  0.00    +0.004 C 
ENDBRANCH   7   8
ENDBRANCH   6   7
ENDBRANCH   1   6
TORSDOF 6
ENDMDL
MODEL 3
REMARK VINA RESULT:      -4.5     11.701     13.031
REMARK  Name = NuBBE_2123
REMARK  8 active torsions:
REMARK  status: ('A' for Active; 'I' for Inactive)
REMARK    1  A    between atoms: C_1  and  C_2
REMARK    2  A    between atoms: C_2  and  C_3
REMARK    3  A    between atoms: C_3  and  C_4
REMARK    4  A    between atoms: C_4  and  C_5
REMARK    5  A    between atoms: C_5  and  C_6
REMARK    6  A    between atoms: C_6  and  C_7
REMARK    7  A    between atoms: C_7  and  C_8
REMARK    8  A    between atoms: C_8  and  C_9
REMARK                            x       y       z     vdW  Elec       q    Type
REMARK                         _______ _______ _______ _____ _____    ______ ____
ROOT
ATOM      1  C   LIG A   1     -12.668   8.764 130.028  0.00  0.00    -0.000 C 
ENDROOT
BRANCH   1   2
ATOM      2  C   LIG A   1     -13.144   8.922 128.580  0.00  0.00    -0.000 C 
BRANCH   2   3
ATOM      3  C   LIG A   1     -13.494   7.629 127.825  0.00  0.00    -0.000 C 
BRANCH   3   5
ATOM      4  C   LIG A   1     -11.174   7.844 126.761  0.00  0.00    +0.004 C 
ATOM      5  C   LIG A   1     -12.460   7.042 126.857  0.00  0.00    -0.003 C 
ENDBRANCH   3   5
ENDBRANCH   2   3
ENDBRANCH   1   2
BRANCH   1   6
ATOM      6  C   LIG A   1     -12.927   7.378 130.623  0.00  0.00    -0.000 C 
BRANCH   6   7
ATOM      7  C   LIG A   1     -11.710   6.677 131.185  0.00  0.00    -0.000 C 
BRANCH   7   8
ATOM      8  C   LIG A   1     -10.682   6.346 130.118  0.00  0.00    -0.003 C 
ATOM      9  C   LIG A   1      -9.389   7.069 130.404  0.00  0.00    +0.004 C 
ENDBRANCH   7   8
ENDBRANCH   6   7
ENDBRANCH   1   6
TORSDOF 6
ENDMDL
MODEL 4
REMARK VINA RESULT:      -4.3     11.085     12.724
REMARK  Name = NuBBE_2123
REMARK  8 active torsions:
REMARK  status: ('A' for Active; 'I' for Inactive)
REMARK    1  A    between atoms: C_1  and  C_2
REMARK    2  A    between atoms: C_2  and  C_3
REMARK    3  A    between atoms: C_3  and  C_4
REMARK    4  A    between atoms: C_4  and  C_5
REMARK    5  A    between atoms: C_5  and  C_6
REMARK    6  A    between atoms: C_6  and  C_7
REMARK    7  A    between atoms: C_7  and  C_8
REMARK    8  A    between atoms: C_8  and  C_9
REMARK                            x       y       z     vdW  Elec       q    Type
REMARK                         _______ _______ _______ _____ _____    ______ ____
ROOT
ATOM      1  C   LIG A   1     -12.910   7.400 130.972  0.00  0.00    -0.000 C 
ENDROOT
BRANCH   1   2
ATOM      2  C   LIG A   1     -11.695   6.684 131.575  0.00  0.00    -0.000 C 
BRANCH   2   3
ATOM      3  C   LIG A   1     -11.079   5.550 130.739  0.00  0.00    -0.000 C 
BRANCH   3   5
ATOM      4  C   LIG A   1      -8.876   6.843 130.936  0.00  0.00    +0.004 C 
ATOM      5  C   LIG A   1      -9.609   5.664 130.318  0.00  0.00    -0.003 C 
ENDBRANCH   3   5
ENDBRANCH   2   3
ENDBRANCH   1   2
BRANCH   1   6
ATOM      6  C   LIG A   1     -12.565   8.369 129.839  0.00  0.00    -0.000 C 
BRANCH   6   7
ATOM      7  C   LIG A   1     -13.023   7.944 128.461  0.00  0.00    -0.000 C 
BRANCH   7   8
ATOM      8  C   LIG A   1     -11.866   7.750 127.496  0.00  0.00    -0.003 C 
ATOM      9  C   LIG A   1     -10.640   8.465 128.009  0.00  0.00    +0.004 C 
ENDBRANCH   7   8
ENDBRANCH   6   7
ENDBRANCH   1   6
TORSDOF 6
ENDMDL
MODEL 5
REMARK VINA RESULT:      -4.3      1.236      4.423
REMARK  Name = NuBBE_2123
REMARK  8 active torsions:
REMARK  status: ('A' for Active; 'I' for Inactive)
REMARK    1  A    between atoms: C_1  and  C_2
REMARK    2  A    between atoms: C_2  and  C_3
REMARK    3  A    between atoms: C_3  and  C_4
REMARK    4  A    between atoms: C_4  and  C_5
REMARK    5  A    between atoms: C_5  and  C_6
REMARK    6  A    between atoms: C_6  and  C_7
REMARK    7  A    between atoms: C_7  and  C_8
REMARK    8  A    between atoms: C_8  and  C_9
REMARK                            x       y       z     vdW  Elec       q    Type
REMARK                         _______ _______ _______ _____ _____    ______ ____
ROOT
ATOM      1  C   LIG A   1      -6.429  -1.917 125.999  0.00  0.00    -0.000 C 
ENDROOT
BRANCH   1   2
ATOM      2  C   LIG A   1      -5.474  -1.577 124.849  0.00  0.00    -0.000 C 
BRANCH   2   3
ATOM      3  C   LIG A   1      -5.450  -2.555 123.663  0.00  0.00    -0.000 C 
BRANCH   3   5
ATOM      4  C   LIG A   1      -3.962  -4.636 123.520  0.00  0.00    +0.004 C 
ATOM      5  C   LIG A   1      -5.298  -4.054 123.951  0.00  0.00    -0.003 C 
ENDBRANCH   3   5
ENDBRANCH   2   3
ENDBRANCH   1   2
BRANCH   1   6
ATOM      6  C   LIG A   1      -7.907  -1.693 125.671  0.00  0.00    -0.000 C 
BRANCH   6   7
ATOM      7  C   LIG A   1      -8.802  -2.898 125.859  0.00  0.00    -0.000 C 
BRANCH   7   8
ATOM      8  C   LIG A   1      -8.845  -3.791 124.631  0.00  0.00    -0.003 C 
ATOM      9  C   LIG A   1      -9.268  -2.990 123.424  0.00  0.00    +0.004 C 
ENDBRANCH   7   8
ENDBRANCH   6   7
ENDBRANCH   1   6
TORSDOF 6
ENDMDL
MODEL 6
REMARK VINA RESULT:      -4.3      1.095      1.676
REMARK  Name = NuBBE_2123
REMARK  8 active torsions:
REMARK  status: ('A' for Active; 'I' for Inactive)
REMARK    1  A    between atoms: C_1  and  C_2
REMARK    2  A    between atoms: C_2  and  C_3
REMARK    3  A    between atoms: C_3  and  C_4
REMARK    4  A    between atoms: C_4  and  C_5
REMARK    5  A    between atoms: C_5  and  C_6
REMARK    6  A    between atoms: C_6  and  C_7
REMARK    7  A    between atoms: C_7  and  C_8
REMARK    8  A    between atoms: C_8  and  C_9
REMARK                            x       y       z     vdW  Elec       q    Type
REMARK                         _______ _______ _______ _____ _____    ______ ____
ROOT
ATOM      1  C   LIG A   1      -8.527  -3.650 124.983  0.00  0.00    -0.000 C 
ENDROOT
BRANCH   1   2
ATOM      2  C   LIG A   1      -8.295  -3.012 126.357  0.00  0.00    -0.000 C 
BRANCH   2   3
ATOM      3  C   LIG A   1      -8.920  -3.730 127.565  0.00  0.00    -0.000 C 
BRANCH   3   5
ATOM      4  C   LIG A   1      -7.073  -2.640 128.967  0.00  0.00    +0.004 C 
ATOM      5  C   LIG A   1      -8.378  -3.419 128.965  0.00  0.00    -0.003 C 
ENDBRANCH   3   5
ENDBRANCH   2   3
ENDBRANCH   1   2
BRANCH   1   6
ATOM      6  C   LIG A   1      -7.358  -3.480 124.010  0.00  0.00    -0.000 C 
BRANCH   6   7
ATOM      7  C   LIG A   1      -6.062  -3.005 124.631  0.00  0.00    -0.000 C 
BRANCH   7   8
ATOM      8  C   LIG A   1      -4.884  -3.118 123.679  0.00  0.00    -0.003 C 
ATOM      9  C   LIG A   1      -4.324  -4.520 123.713  0.00  0.00    +0.004 C 
ENDBRANCH   7   8
ENDBRANCH   6   7
ENDBRANCH   1   6
TORSDOF 6
ENDMDL
MODEL 7
REMARK VINA RESULT:      -4.2      1.020      4.310
REMARK  Name = NuBBE_2123
REMARK  8 active torsions:
REMARK  status: ('A' for Active; 'I' for Inactive)
REMARK    1  A    between atoms: C_1  and  C_2
REMARK    2  A    between atoms: C_2  and  C_3
REMARK    3  A    between atoms: C_3  and  C_4
REMARK    4  A    between atoms: C_4  and  C_5
REMARK    5  A    between atoms: C_5  and  C_6
REMARK    6  A    between atoms: C_6  and  C_7
REMARK    7  A    between atoms: C_7  and  C_8
REMARK    8  A    between atoms: C_8  and  C_9
REMARK                            x       y       z     vdW  Elec       q    Type
REMARK                         _______ _______ _______ _____ _____    ______ ____
ROOT
ATOM      1  C   LIG A   1      -9.410  -3.352 124.028  0.00  0.00    -0.000 C 
ENDROOT
BRANCH   1   2
ATOM      2  C   LIG A   1      -8.627  -2.648 122.914  0.00  0.00    -0.000 C 
BRANCH   2   3
ATOM      3  C   LIG A   1      -7.448  -1.765 123.353  0.00  0.00    -0.000 C 
BRANCH   3   5
ATOM      4  C   LIG A   1      -5.490  -3.259 124.058  0.00  0.00    +0.004 C 
ATOM      5  C   LIG A   1      -6.022  -2.245 123.060  0.00  0.00    -0.003 C 
ENDBRANCH   3   5
ENDBRANCH   2   3
ENDBRANCH   1   2
BRANCH   1   6
ATOM      6  C   LIG A   1      -9.284  -2.684 125.398  0.00  0.00    -0.000 C 
BRANCH   6   7
ATOM      7  C   LIG A   1      -8.795  -3.581 126.515  0.00  0.00    -0.000 C 
BRANCH   7   8
ATOM      8  C   LIG A   1      -7.994  -2.827 127.561  0.00  0.00    -0.003 C 
ATOM      9  C   LIG A   1      -8.343  -3.328 128.941  0.00  0.00    +0.004 C 
ENDBRANCH   7   8
ENDBRANCH   6   7
ENDBRANCH   1   6
TORSDOF 6
ENDMDL
MODEL 8
REMARK VINA RESULT:      -4.0     11.716     12.722
REMARK  Name = NuBBE_2123
REMARK  8 active torsions:
REMARK  status: ('A' for Active; 'I' for Inactive)
REMARK    1  A    between atoms: C_1  and  C_2
REMARK    2  A    between atoms: C_2  and  C_3
REMARK    3  A    between atoms: C_3  and  C_4
REMARK    4  A    between atoms: C_4  and  C_5
REMARK    5  A    between atoms: C_5  and  C_6
REMARK    6  A    between atoms: C_6  and  C_7
REMARK    7  A    between atoms: C_7  and  C_8
REMARK    8  A    between atoms: C_8  and  C_9
REMARK                            x       y       z     vdW  Elec       q    Type
REMARK                         _______ _______ _______ _____ _____    ______ ____
ROOT
ATOM      1  C   LIG A   1     -10.050   7.230 128.831  0.00  0.00    -0.000 C 
ENDROOT
BRANCH   1   2
ATOM      2  C   LIG A   1     -10.456   7.260 130.309  0.00  0.00    -0.000 C 
BRANCH   2   3
ATOM      3  C   LIG A   1     -11.733   6.492 130.688  0.00  0.00    -0.000 C 
BRANCH   3   5
ATOM      4  C   LIG A   1     -12.880   8.772 130.906  0.00  0.00    +0.004 C 
ATOM      5  C   LIG A   1     -12.939   7.283 131.206  0.00  0.00    -0.003 C 
ENDBRANCH   3   5
ENDBRANCH   2   3
ENDBRANCH   1   2
BRANCH   1   6
ATOM      6  C   LIG A   1     -10.747   8.285 127.969  0.00  0.00    -0.000 C 
BRANCH   6   7
ATOM      7  C   LIG A   1     -11.175   7.820 126.594  0.00  0.00    -0.000 C 
BRANCH   7   8
ATOM      8  C   LIG A   1     -12.441   6.984 126.629  0.00  0.00    -0.003 C 
ATOM      9  C   LIG A   1     -13.469   7.637 127.521  0.00  0.00    +0.004 C 
ENDBRANCH   7   8
ENDBRANCH   6   7
ENDBRANCH   1   6
TORSDOF 6
ENDMDL
MODEL 9
REMARK VINA RESULT:      -4.0      7.965      9.332
REMARK  Name = NuBBE_2123
REMARK  8 active torsions:
REMARK  status: ('A' for Active; 'I' for Inactive)
REMARK    1  A    between atoms: C_1  and  C_2
REMARK    2  A    between atoms: C_2  and  C_3
REMARK    3  A    between atoms: C_3  and  C_4
REMARK    4  A    between atoms: C_4  and  C_5
REMARK    5  A    between atoms: C_5  and  C_6
REMARK    6  A    between atoms: C_6  and  C_7
REMARK    7  A    between atoms: C_7  and  C_8
REMARK    8  A    between atoms: C_8  and  C_9
REMARK                            x       y       z     vdW  Elec       q    Type
REMARK                         _______ _______ _______ _____ _____    ______ ____
ROOT
ATOM      1  C   LIG A   1      -6.011   5.426 118.623  0.00  0.00    -0.000 C 
ENDROOT
BRANCH   1   2
ATOM      2  C   LIG A   1      -7.018   4.271 118.671  0.00  0.00    -0.000 C 
BRANCH   2   3
ATOM      3  C   LIG A   1      -8.499   4.655 118.831  0.00  0.00    -0.000 C 
BRANCH   3   5
ATOM      4  C   LIG A   1      -8.624   3.541 121.134  0.00  0.00    +0.004 C 
ATOM      5  C   LIG A   1      -9.351   3.884 119.845  0.00  0.00    -0.003 C 
ENDBRANCH   3   5
ENDBRANCH   2   3
ENDBRANCH   1   2
BRANCH   1   6
ATOM      6  C   LIG A   1      -5.128   5.537 119.868  0.00  0.00    -0.000 C 
BRANCH   6   7
ATOM      7  C   LIG A   1      -5.182   4.353 120.808  0.00  0.00    -0.000 C 
BRANCH   7   8
ATOM      8  C   LIG A   1      -4.690   4.694 122.204  0.00  0.00    -0.003 C 
ATOM      9  C   LIG A   1      -5.653   4.162 123.237  0.00  0.00    +0.004 C 
ENDBRANCH   7   8
ENDBRANCH   6   7
ENDBRANCH   1   6
TORSDOF 6
ENDMDL
