MODEL 1
REMARK VINA RESULT:      -5.1      0.000      0.000
REMARK  Name = NuBBE_2139
REMARK  4 active torsions:
REMARK  status: ('A' for Active; 'I' for Inactive)
REMARK    1  A    between atoms: C_1  and  C_2
REMARK    2  A    between atoms: C_2  and  C_3
REMARK    3  A    between atoms: C_3  and  C_4
REMARK    4  A    between atoms: C_4  and  C_5
REMARK                            x       y       z     vdW  Elec       q    Type
REMARK                         _______ _______ _______ _____ _____    ______ ____
ROOT
ATOM      1  C   LIG A   1     -11.323   7.831 129.610  0.00  0.00    -0.073 C 
ATOM      2  C   LIG A   1     -10.010   7.577 129.758  0.00  0.00    -0.028 C 
ATOM      3  C   LIG A   1      -9.446   6.673 130.816  0.00  0.00    +0.027 C 
ATOM      4  C   LIG A   1     -10.509   5.826 131.514  0.00  0.00    +0.004 C 
ATOM      5  C   LIG A   1     -11.751   6.653 131.824  0.00  0.00    +0.005 C 
ATOM      6  C   LIG A   1     -12.354   7.241 130.547  0.00  0.00    +0.030 C 
ENDROOT
BRANCH   1   7
ATOM      7  C   LIG A   1     -11.841   8.730 128.509  0.00  0.00    +0.030 C 
BRANCH   7   8
ATOM      8  C   LIG A   1     -13.363   8.924 128.514  0.00  0.00    +0.004 C 
BRANCH   8  10
ATOM      9  C   LIG A   1     -13.437  10.859 130.130  0.00  0.00    +0.004 C 
ATOM     10  C   LIG A   1     -13.785  10.379 128.730  0.00  0.00    -0.003 C 
ENDBRANCH   8  10
ENDBRANCH   7   8
ENDBRANCH   1   7
TORSDOF 3
ENDMDL
MODEL 2
REMARK VINA RESULT:      -5.1      1.191      4.511
REMARK  Name = NuBBE_2139
REMARK  4 active torsions:
REMARK  status: ('A' for Active; 'I' for Inactive)
REMARK    1  A    between atoms: C_1  and  C_2
REMARK    2  A    between atoms: C_2  and  C_3
REMARK    3  A    between atoms: C_3  and  C_4
REMARK    4  A    between atoms: C_4  and  C_5
REMARK                            x       y       z     vdW  Elec       q    Type
REMARK                         _______ _______ _______ _____ _____    ______ ____
ROOT
ATOM      1  C   LIG A   1     -12.499   7.416 130.157  0.00  0.00    -0.073 C 
ATOM      2  C   LIG A   1     -12.686   8.728 129.924  0.00  0.00    -0.028 C 
ATOM      3  C   LIG A   1     -13.229   9.280 128.637  0.00  0.00    +0.027 C 
ATOM      4  C   LIG A   1     -13.838   8.211 127.731  0.00  0.00    +0.004 C 
ATOM      5  C   LIG A   1     -12.966   6.961 127.698  0.00  0.00    +0.005 C 
ATOM      6  C   LIG A   1     -12.791   6.375 129.100  0.00  0.00    +0.030 C 
ENDROOT
BRANCH   1   7
ATOM      7  C   LIG A   1     -11.974   6.910 131.483  0.00  0.00    +0.030 C 
BRANCH   7   8
ATOM      8  C   LIG A   1     -10.623   6.189 131.395  0.00  0.00    +0.004 C 
BRANCH   8  10
ATOM      9  C   LIG A   1      -8.165   6.703 131.153  0.00  0.00    +0.004 C 
ATOM     10  C   LIG A   1      -9.564   6.983 130.626  0.00  0.00    -0.003 C 
ENDBRANCH   8  10
ENDBRANCH   7   8
ENDBRANCH   1   7
TORSDOF 3
ENDMDL
MODEL 3
REMARK VINA RESULT:      -5.0     11.867     13.387
REMARK  Name = NuBBE_2139
REMARK  4 active torsions:
REMARK  status: ('A' for Active; 'I' for Inactive)
REMARK    1  A    between atoms: C_1  and  C_2
REMARK    2  A    between atoms: C_2  and  C_3
REMARK    3  A    between atoms: C_3  and  C_4
REMARK    4  A    between atoms: C_4  and  C_5
REMARK                            x       y       z     vdW  Elec       q    Type
REMARK                         _______ _______ _______ _____ _____    ______ ____
ROOT
ATOM      1  C   LIG A   1      -6.816  -2.471 126.087  0.00  0.00    -0.073 C 
ATOM      2  C   LIG A   1      -6.795  -2.277 127.419  0.00  0.00    -0.028 C 
ATOM      3  C   LIG A   1      -7.871  -2.755 128.351  0.00  0.00    +0.027 C 
ATOM      4  C   LIG A   1      -8.837  -3.744 127.700  0.00  0.00    +0.004 C 
ATOM      5  C   LIG A   1      -9.214  -3.296 126.294  0.00  0.00    +0.005 C 
ATOM      6  C   LIG A   1      -7.974  -3.166 125.407  0.00  0.00    +0.030 C 
ENDROOT
BRANCH   1   7
ATOM      7  C   LIG A   1      -5.691  -1.992 125.195  0.00  0.00    +0.030 C 
BRANCH   7   8
ATOM      8  C   LIG A   1      -5.729  -2.558 123.770  0.00  0.00    +0.004 C 
BRANCH   8  10
ATOM      9  C   LIG A   1      -4.518  -4.770 123.701  0.00  0.00    +0.004 C 
ATOM     10  C   LIG A   1      -4.442  -3.287 123.376  0.00  0.00    -0.003 C 
ENDBRANCH   8  10
ENDBRANCH   7   8
ENDBRANCH   1   7
TORSDOF 3
ENDMDL
MODEL 4
REMARK VINA RESULT:      -5.0      1.204      2.645
REMARK  Name = NuBBE_2139
REMARK  4 active torsions:
REMARK  status: ('A' for Active; 'I' for Inactive)
REMARK    1  A    between atoms: C_1  and  C_2
REMARK    2  A    between atoms: C_2  and  C_3
REMARK    3  A    between atoms: C_3  and  C_4
REMARK    4  A    between atoms: C_4  and  C_5
REMARK                            x       y       z     vdW  Elec       q    Type
REMARK                         _______ _______ _______ _____ _____    ______ ____
ROOT
ATOM      1  C   LIG A   1     -11.622   7.897 129.815  0.00  0.00    -0.073 C 
ATOM      2  C   LIG A   1     -12.267   7.311 130.842  0.00  0.00    -0.028 C 
ATOM      3  C   LIG A   1     -11.612   6.371 131.813  0.00  0.00    +0.027 C 
ATOM      4  C   LIG A   1     -10.087   6.375 131.722  0.00  0.00    +0.004 C 
ATOM      5  C   LIG A   1      -9.625   6.388 130.270  0.00  0.00    +0.005 C 
ATOM      6  C   LIG A   1     -10.164   7.615 129.532  0.00  0.00    +0.030 C 
ENDROOT
BRANCH   1   7
ATOM      7  C   LIG A   1     -12.323   8.859 128.882  0.00  0.00    +0.030 C 
BRANCH   7   8
ATOM      8  C   LIG A   1     -13.516   8.255 128.130  0.00  0.00    +0.004 C 
BRANCH   8  10
ATOM      9  C   LIG A   1     -12.064   7.242 126.332  0.00  0.00    +0.004 C 
ATOM     10  C   LIG A   1     -13.160   6.984 127.355  0.00  0.00    -0.003 C 
ENDBRANCH   8  10
ENDBRANCH   7   8
ENDBRANCH   1   7
TORSDOF 3
ENDMDL
MODEL 5
REMARK VINA RESULT:      -4.9     11.884     13.438
REMARK  Name = NuBBE_2139
REMARK  4 active torsions:
REMARK  status: ('A' for Active; 'I' for Inactive)
REMARK    1  A    between atoms: C_1  and  C_2
REMARK    2  A    between atoms: C_2  and  C_3
REMARK    3  A    between atoms: C_3  and  C_4
REMARK    4  A    between atoms: C_4  and  C_5
REMARK                            x       y       z     vdW  Elec       q    Type
REMARK                         _______ _______ _______ _____ _____    ______ ____
ROOT
ATOM      1  C   LIG A   1      -7.764  -3.135 124.113  0.00  0.00    -0.073 C 
ATOM      2  C   LIG A   1      -6.786  -4.011 124.410  0.00  0.00    -0.028 C 
ATOM      3  C   LIG A   1      -5.367  -3.872 123.937  0.00  0.00    +0.027 C 
ATOM      4  C   LIG A   1      -5.060  -2.496 123.348  0.00  0.00    +0.004 C 
ATOM      5  C   LIG A   1      -6.195  -2.019 122.450  0.00  0.00    +0.005 C 
ATOM      6  C   LIG A   1      -7.512  -1.938 123.224  0.00  0.00    +0.030 C 
ENDROOT
BRANCH   1   7
ATOM      7  C   LIG A   1      -9.173  -3.308 124.638  0.00  0.00    +0.030 C 
BRANCH   7   8
ATOM      8  C   LIG A   1      -9.403  -2.716 126.035  0.00  0.00    +0.004 C 
BRANCH   8  10
ATOM      9  C   LIG A   1      -8.111  -3.074 128.172  0.00  0.00    +0.004 C 
ATOM     10  C   LIG A   1      -9.071  -3.691 127.166  0.00  0.00    -0.003 C 
ENDBRANCH   8  10
ENDBRANCH   7   8
ENDBRANCH   1   7
TORSDOF 3
ENDMDL
MODEL 6
REMARK VINA RESULT:      -4.8     11.924     13.192
REMARK  Name = NuBBE_2139
REMARK  4 active torsions:
REMARK  status: ('A' for Active; 'I' for Inactive)
REMARK    1  A    between atoms: C_1  and  C_2
REMARK    2  A    between atoms: C_2  and  C_3
REMARK    3  A    between atoms: C_3  and  C_4
REMARK    4  A    between atoms: C_4  and  C_5
REMARK                            x       y       z     vdW  Elec       q    Type
REMARK                         _______ _______ _______ _____ _____    ______ ____
ROOT
ATOM      1  C   LIG A   1      -7.495  -2.746 126.267  0.00  0.00    -0.073 C 
ATOM      2  C   LIG A   1      -8.558  -3.541 126.495  0.00  0.00    -0.028 C 
ATOM      3  C   LIG A   1      -9.026  -3.939 127.865  0.00  0.00    +0.027 C 
ATOM      4  C   LIG A   1      -8.383  -3.121 128.984  0.00  0.00    +0.004 C 
ATOM      5  C   LIG A   1      -6.893  -2.926 128.733  0.00  0.00    +0.005 C 
ATOM      6  C   LIG A   1      -6.647  -2.214 127.401  0.00  0.00    +0.030 C 
ENDROOT
BRANCH   1   7
ATOM      7  C   LIG A   1      -7.082  -2.353 124.866  0.00  0.00    +0.030 C 
BRANCH   7   8
ATOM      8  C   LIG A   1      -5.564  -2.280 124.651  0.00  0.00    +0.004 C 
BRANCH   8  10
ATOM      9  C   LIG A   1      -4.526  -4.416 123.803  0.00  0.00    +0.004 C 
ATOM     10  C   LIG A   1      -5.090  -3.057 123.421  0.00  0.00    -0.003 C 
ENDBRANCH   8  10
ENDBRANCH   7   8
ENDBRANCH   1   7
TORSDOF 3
ENDMDL
MODEL 7
REMARK VINA RESULT:      -4.8     10.112     11.465
REMARK  Name = NuBBE_2139
REMARK  4 active torsions:
REMARK  status: ('A' for Active; 'I' for Inactive)
REMARK    1  A    between atoms: C_1  and  C_2
REMARK    2  A    between atoms: C_2  and  C_3
REMARK    3  A    between atoms: C_3  and  C_4
REMARK    4  A    between atoms: C_4  and  C_5
REMARK                            x       y       z     vdW  Elec       q    Type
REMARK                         _______ _______ _______ _____ _____    ______ ____
ROOT
ATOM      1  C   LIG A   1      -7.717   3.666 120.956  0.00  0.00    -0.073 C 
ATOM      2  C   LIG A   1      -6.470   3.656 121.464  0.00  0.00    -0.028 C 
ATOM      3  C   LIG A   1      -5.277   4.242 120.765  0.00  0.00    +0.027 C 
ATOM      4  C   LIG A   1      -5.648   5.119 119.571  0.00  0.00    +0.004 C 
ATOM      5  C   LIG A   1      -6.757   4.479 118.745  0.00  0.00    +0.005 C 
ATOM      6  C   LIG A   1      -8.010   4.246 119.591  0.00  0.00    +0.030 C 
ENDROOT
BRANCH   1   7
ATOM      7  C   LIG A   1      -8.890   3.087 121.716  0.00  0.00    +0.030 C 
BRANCH   7   8
ATOM      8  C   LIG A   1      -8.533   2.526 123.099  0.00  0.00    +0.004 C 
BRANCH   8  10
ATOM      9  C   LIG A   1     -10.146   0.657 122.579  0.00  0.00    +0.004 C 
ATOM     10  C   LIG A   1      -9.596   1.577 123.658  0.00  0.00    -0.003 C 
ENDBRANCH   8  10
ENDBRANCH   7   8
ENDBRANCH   1   7
TORSDOF 3
ENDMDL
MODEL 8
REMARK VINA RESULT:      -4.8      1.124      2.354
REMARK  Name = NuBBE_2139
REMARK  4 active torsions:
REMARK  status: ('A' for Active; 'I' for Inactive)
REMARK    1  A    between atoms: C_1  and  C_2
REMARK    2  A    between atoms: C_2  and  C_3
REMARK    3  A    between atoms: C_3  and  C_4
REMARK    4  A    between atoms: C_4  and  C_5
REMARK                            x       y       z     vdW  Elec       q    Type
REMARK                         _______ _______ _______ _____ _____    ______ ____
ROOT
ATOM      1  C   LIG A   1     -11.349   6.916 130.855  0.00  0.00    -0.073 C 
ATOM      2  C   LIG A   1     -11.120   6.327 132.044  0.00  0.00    -0.028 C 
ATOM      3  C   LIG A   1      -9.759   5.914 132.524  0.00  0.00    +0.027 C 
ATOM      4  C   LIG A   1      -8.621   6.493 131.685  0.00  0.00    +0.004 C 
ATOM      5  C   LIG A   1      -8.943   6.413 130.198  0.00  0.00    +0.005 C 
ATOM      6  C   LIG A   1     -10.229   7.174 129.871  0.00  0.00    +0.030 C 
ENDROOT
BRANCH   1   7
ATOM      7  C   LIG A   1     -12.738   7.339 130.430  0.00  0.00    +0.030 C 
BRANCH   7   8
ATOM      8  C   LIG A   1     -13.151   6.847 129.037  0.00  0.00    +0.004 C 
BRANCH   8  10
ATOM      9  C   LIG A   1     -13.181   9.342 128.662  0.00  0.00    +0.004 C 
ATOM     10  C   LIG A   1     -13.550   7.982 128.091  0.00  0.00    -0.003 C 
ENDBRANCH   8  10
ENDBRANCH   7   8
ENDBRANCH   1   7
TORSDOF 3
ENDMDL
MODEL 9
REMARK VINA RESULT:      -4.8      1.525      4.832
REMARK  Name = NuBBE_2139
REMARK  4 active torsions:
REMARK  status: ('A' for Active; 'I' for Inactive)
REMARK    1  A    between atoms: C_1  and  C_2
REMARK    2  A    between atoms: C_2  and  C_3
REMARK    3  A    between atoms: C_3  and  C_4
REMARK    4  A    between atoms: C_4  and  C_5
REMARK                            x       y       z     vdW  Elec       q    Type
REMARK                         _______ _______ _______ _____ _____    ______ ____
ROOT
ATOM      1  C   LIG A   1     -10.983   7.231 129.998  0.00  0.00    -0.073 C 
ATOM      2  C   LIG A   1     -10.570   7.921 128.918  0.00  0.00    -0.028 C 
ATOM      3  C   LIG A   1     -11.498   8.493 127.885  0.00  0.00    +0.027 C 
ATOM      4  C   LIG A   1     -12.962   8.489 128.321  0.00  0.00    +0.004 C 
ATOM      5  C   LIG A   1     -13.326   7.178 129.007  0.00  0.00    +0.005 C 
ATOM      6  C   LIG A   1     -12.448   6.937 130.236  0.00  0.00    +0.030 C 
ENDROOT
BRANCH   1   7
ATOM      7  C   LIG A   1     -10.007   6.701 131.025  0.00  0.00    +0.030 C 
BRANCH   7   8
ATOM      8  C   LIG A   1      -8.537   7.017 130.721  0.00  0.00    +0.004 C 
BRANCH   8  10
ATOM      9  C   LIG A   1      -6.122   6.734 131.394  0.00  0.00    +0.004 C 
ATOM     10  C   LIG A   1      -7.563   6.355 131.699  0.00  0.00    -0.003 C 
ENDBRANCH   8  10
ENDBRANCH   7   8
ENDBRANCH   1   7
TORSDOF 3
ENDMDL
