MODEL 1
REMARK VINA RESULT:      -5.0      0.000      0.000
REMARK  Name = NuBBE_403
REMARK  4 active torsions:
REMARK  status: ('A' for Active; 'I' for Inactive)
REMARK    1  A    between atoms: O_1  and  C_2
REMARK    2  A    between atoms: C_2  and  S_3
REMARK    3  A    between atoms: S_3  and  C_4
REMARK    4  A    between atoms: C_4  and  C_5
REMARK                            x       y       z     vdW  Elec       q    Type
REMARK                         _______ _______ _______ _____ _____    ______ ____
ROOT
ATOM      1  C   LIG A   1      -6.438   3.756 121.331  0.00  0.00    -0.037 A 
ATOM      2  C   LIG A   1      -7.302   3.892 120.233  0.00  0.00    +0.004 A 
ATOM      3  C   LIG A   1      -6.947   4.696 119.148  0.00  0.00    +0.000 A 
ATOM      4  C   LIG A   1      -5.729   5.370 119.145  0.00  0.00    +0.000 A 
ATOM      5  C   LIG A   1      -4.866   5.250 120.233  0.00  0.00    +0.000 A 
ATOM      6  C   LIG A   1      -5.222   4.454 121.323  0.00  0.00    +0.004 A 
ENDROOT
BRANCH   1   7
ATOM      7  C   LIG A   1      -6.828   2.883 122.499  0.00  0.00    +0.106 C 
BRANCH   7   8
ATOM      8  S   LIG A   1      -8.627   2.676 122.698  0.00  0.00    -0.129 S 
BRANCH   8   9
ATOM      9  C   LIG A   1      -8.703   2.535 124.496  0.00  0.00    +0.225 C 
BRANCH   9  10
ATOM     10  O   LIG A   1      -9.025   3.798 125.051  0.00  0.00    -0.385 OA
ATOM     11  H   LIG A   1      -9.054   3.639 126.010  0.00  0.00    +0.210 HD
ENDBRANCH   9  10
ENDBRANCH   8   9
ENDBRANCH   7   8
ENDBRANCH   1   7
TORSDOF 4
ENDMDL
MODEL 2
REMARK VINA RESULT:      -5.0     10.217     10.881
REMARK  Name = NuBBE_403
REMARK  4 active torsions:
REMARK  status: ('A' for Active; 'I' for Inactive)
REMARK    1  A    between atoms: O_1  and  C_2
REMARK    2  A    between atoms: C_2  and  S_3
REMARK    3  A    between atoms: S_3  and  C_4
REMARK    4  A    between atoms: C_4  and  C_5
REMARK                            x       y       z     vdW  Elec       q    Type
REMARK                         _______ _______ _______ _____ _____    ______ ____
ROOT
ATOM      1  C   LIG A   1     -12.530   7.242 130.135  0.00  0.00    -0.037 A 
ATOM      2  C   LIG A   1     -12.583   8.644 130.099  0.00  0.00    +0.004 A 
ATOM      3  C   LIG A   1     -13.115   9.305 128.990  0.00  0.00    +0.000 A 
ATOM      4  C   LIG A   1     -13.598   8.577 127.907  0.00  0.00    +0.000 A 
ATOM      5  C   LIG A   1     -13.543   7.184 127.925  0.00  0.00    +0.000 A 
ATOM      6  C   LIG A   1     -13.005   6.521 129.030  0.00  0.00    +0.004 A 
ENDROOT
BRANCH   1   7
ATOM      7  C   LIG A   1     -11.958   6.535 131.339  0.00  0.00    +0.106 C 
BRANCH   7   8
ATOM      8  S   LIG A   1     -10.595   5.391 130.945  0.00  0.00    -0.129 S 
BRANCH   8   9
ATOM      9  C   LIG A   1      -9.320   6.083 132.019  0.00  0.00    +0.225 C 
BRANCH   9  10
ATOM     10  O   LIG A   1      -9.888   6.389 133.281  0.00  0.00    -0.385 OA
ATOM     11  H   LIG A   1      -9.259   7.012 133.683  0.00  0.00    +0.210 HD
ENDBRANCH   9  10
ENDBRANCH   8   9
ENDBRANCH   7   8
ENDBRANCH   1   7
TORSDOF 4
ENDMDL
MODEL 3
REMARK VINA RESULT:      -5.0     10.318     10.895
REMARK  Name = NuBBE_403
REMARK  4 active torsions:
REMARK  status: ('A' for Active; 'I' for Inactive)
REMARK    1  A    between atoms: O_1  and  C_2
REMARK    2  A    between atoms: C_2  and  S_3
REMARK    3  A    between atoms: S_3  and  C_4
REMARK    4  A    between atoms: C_4  and  C_5
REMARK                            x       y       z     vdW  Elec       q    Type
REMARK                         _______ _______ _______ _____ _____    ______ ____
ROOT
ATOM      1  C   LIG A   1     -12.585   7.314 130.185  0.00  0.00    -0.037 A 
ATOM      2  C   LIG A   1     -13.100   6.640 129.066  0.00  0.00    +0.004 A 
ATOM      3  C   LIG A   1     -13.604   7.356 127.978  0.00  0.00    +0.000 A 
ATOM      4  C   LIG A   1     -13.600   8.749 127.995  0.00  0.00    +0.000 A 
ATOM      5  C   LIG A   1     -13.101   9.429 129.104  0.00  0.00    +0.000 A 
ATOM      6  C   LIG A   1     -12.603   8.716 130.196  0.00  0.00    +0.004 A 
ENDROOT
BRANCH   1   7
ATOM      7  C   LIG A   1     -12.039   6.532 131.355  0.00  0.00    +0.106 C 
BRANCH   7   8
ATOM      8  S   LIG A   1     -10.660   5.423 130.924  0.00  0.00    -0.129 S 
BRANCH   8   9
ATOM      9  C   LIG A   1      -9.378   6.135 131.976  0.00  0.00    +0.225 C 
BRANCH   9  10
ATOM     10  O   LIG A   1      -9.920   6.399 133.258  0.00  0.00    -0.385 OA
ATOM     11  H   LIG A   1      -9.293   5.983 133.874  0.00  0.00    +0.210 HD
ENDBRANCH   9  10
ENDBRANCH   8   9
ENDBRANCH   7   8
ENDBRANCH   1   7
TORSDOF 4
ENDMDL
MODEL 4
REMARK VINA RESULT:      -4.8      7.738     10.343
REMARK  Name = NuBBE_403
REMARK  4 active torsions:
REMARK  status: ('A' for Active; 'I' for Inactive)
REMARK    1  A    between atoms: O_1  and  C_2
REMARK    2  A    between atoms: C_2  and  S_3
REMARK    3  A    between atoms: S_3  and  C_4
REMARK    4  A    between atoms: C_4  and  C_5
REMARK                            x       y       z     vdW  Elec       q    Type
REMARK                         _______ _______ _______ _____ _____    ______ ____
ROOT
ATOM      1  C   LIG A   1     -11.430   7.659 129.833  0.00  0.00    -0.037 A 
ATOM      2  C   LIG A   1     -12.149   7.108 130.905  0.00  0.00    +0.004 A 
ATOM      3  C   LIG A   1     -11.486   6.420 131.923  0.00  0.00    +0.000 A 
ATOM      4  C   LIG A   1     -10.102   6.274 131.883  0.00  0.00    +0.000 A 
ATOM      5  C   LIG A   1      -9.377   6.808 130.819  0.00  0.00    +0.000 A 
ATOM      6  C   LIG A   1     -10.038   7.490 129.796  0.00  0.00    +0.004 A 
ENDROOT
BRANCH   1   7
ATOM      7  C   LIG A   1     -12.153   8.404 128.738  0.00  0.00    +0.106 C 
BRANCH   7   8
ATOM      8  S   LIG A   1     -12.594   7.369 127.305  0.00  0.00    -0.129 S 
BRANCH   8   9
ATOM      9  C   LIG A   1     -11.105   7.607 126.311  0.00  0.00    +0.225 C 
BRANCH   9  10
ATOM     10  O   LIG A   1     -10.401   6.380 126.224  0.00  0.00    -0.385 OA
ATOM     11  H   LIG A   1     -11.022   5.778 125.779  0.00  0.00    +0.210 HD
ENDBRANCH   9  10
ENDBRANCH   8   9
ENDBRANCH   7   8
ENDBRANCH   1   7
TORSDOF 4
ENDMDL
MODEL 5
REMARK VINA RESULT:      -4.8      8.780     10.501
REMARK  Name = NuBBE_403
REMARK  4 active torsions:
REMARK  status: ('A' for Active; 'I' for Inactive)
REMARK    1  A    between atoms: O_1  and  C_2
REMARK    2  A    between atoms: C_2  and  S_3
REMARK    3  A    between atoms: S_3  and  C_4
REMARK    4  A    between atoms: C_4  and  C_5
REMARK                            x       y       z     vdW  Elec       q    Type
REMARK                         _______ _______ _______ _____ _____    ______ ____
ROOT
ATOM      1  C   LIG A   1     -11.072   7.039 130.493  0.00  0.00    -0.037 A 
ATOM      2  C   LIG A   1      -9.783   7.299 130.001  0.00  0.00    +0.004 A 
ATOM      3  C   LIG A   1      -8.655   6.906 130.725  0.00  0.00    +0.000 A 
ATOM      4  C   LIG A   1      -8.800   6.250 131.944  0.00  0.00    +0.000 A 
ATOM      5  C   LIG A   1     -10.074   5.994 132.449  0.00  0.00    +0.000 A 
ATOM      6  C   LIG A   1     -11.203   6.393 131.730  0.00  0.00    +0.004 A 
ENDROOT
BRANCH   1   7
ATOM      7  C   LIG A   1     -12.285   7.464 129.703  0.00  0.00    +0.106 C 
BRANCH   7   8
ATOM      8  S   LIG A   1     -11.890   8.369 128.172  0.00  0.00    -0.129 S 
BRANCH   8   9
ATOM      9  C   LIG A   1     -12.493   7.169 126.965  0.00  0.00    +0.225 C 
BRANCH   9  10
ATOM     10  O   LIG A   1     -11.393   6.623 126.259  0.00  0.00    -0.385 OA
ATOM     11  H   LIG A   1     -11.602   6.788 125.324  0.00  0.00    +0.210 HD
ENDBRANCH   9  10
ENDBRANCH   8   9
ENDBRANCH   7   8
ENDBRANCH   1   7
TORSDOF 4
ENDMDL
MODEL 6
REMARK VINA RESULT:      -4.7     10.214     11.266
REMARK  Name = NuBBE_403
REMARK  4 active torsions:
REMARK  status: ('A' for Active; 'I' for Inactive)
REMARK    1  A    between atoms: O_1  and  C_2
REMARK    2  A    between atoms: C_2  and  S_3
REMARK    3  A    between atoms: S_3  and  C_4
REMARK    4  A    between atoms: C_4  and  C_5
REMARK                            x       y       z     vdW  Elec       q    Type
REMARK                         _______ _______ _______ _____ _____    ______ ____
ROOT
ATOM      1  C   LIG A   1     -11.556   7.102 130.475  0.00  0.00    -0.037 A 
ATOM      2  C   LIG A   1     -11.524   6.436 131.710  0.00  0.00    +0.004 A 
ATOM      3  C   LIG A   1     -10.306   6.090 132.298  0.00  0.00    +0.000 A 
ATOM      4  C   LIG A   1      -9.108   6.403 131.662  0.00  0.00    +0.000 A 
ATOM      5  C   LIG A   1      -9.125   7.056 130.430  0.00  0.00    +0.000 A 
ATOM      6  C   LIG A   1     -10.342   7.396 129.837  0.00  0.00    +0.004 A 
ENDROOT
BRANCH   1   7
ATOM      7  C   LIG A   1     -12.877   7.476 129.848  0.00  0.00    +0.106 C 
BRANCH   7   8
ATOM      8  S   LIG A   1     -12.774   8.876 128.688  0.00  0.00    -0.129 S 
BRANCH   8   9
ATOM      9  C   LIG A   1     -13.162  10.222 129.827  0.00  0.00    +0.225 C 
BRANCH   9  10
ATOM     10  O   LIG A   1     -13.469  11.389 129.084  0.00  0.00    -0.385 OA
ATOM     11  H   LIG A   1     -12.800  12.036 129.367  0.00  0.00    +0.210 HD
ENDBRANCH   9  10
ENDBRANCH   8   9
ENDBRANCH   7   8
ENDBRANCH   1   7
TORSDOF 4
ENDMDL
MODEL 7
REMARK VINA RESULT:      -4.7      1.915      2.606
REMARK  Name = NuBBE_403
REMARK  4 active torsions:
REMARK  status: ('A' for Active; 'I' for Inactive)
REMARK    1  A    between atoms: O_1  and  C_2
REMARK    2  A    between atoms: C_2  and  S_3
REMARK    3  A    between atoms: S_3  and  C_4
REMARK    4  A    between atoms: C_4  and  C_5
REMARK                            x       y       z     vdW  Elec       q    Type
REMARK                         _______ _______ _______ _____ _____    ______ ____
ROOT
ATOM      1  C   LIG A   1      -7.622   3.346 122.129  0.00  0.00    -0.037 A 
ATOM      2  C   LIG A   1      -6.253   3.561 121.900  0.00  0.00    +0.004 A 
ATOM      3  C   LIG A   1      -5.809   4.043 120.667  0.00  0.00    +0.000 A 
ATOM      4  C   LIG A   1      -6.722   4.315 119.651  0.00  0.00    +0.000 A 
ATOM      5  C   LIG A   1      -8.082   4.097 119.863  0.00  0.00    +0.000 A 
ATOM      6  C   LIG A   1      -8.528   3.608 121.092  0.00  0.00    +0.004 A 
ENDROOT
BRANCH   1   7
ATOM      7  C   LIG A   1      -8.094   2.829 123.466  0.00  0.00    +0.106 C 
BRANCH   7   8
ATOM      8  S   LIG A   1      -8.545   1.064 123.457  0.00  0.00    -0.129 S 
BRANCH   8   9
ATOM      9  C   LIG A   1     -10.336   1.225 123.626  0.00  0.00    +0.225 C 
BRANCH   9  10
ATOM     10  O   LIG A   1     -10.971   0.416 122.651  0.00  0.00    -0.385 OA
ATOM     11  H   LIG A   1     -10.519  -0.443 122.720  0.00  0.00    +0.210 HD
ENDBRANCH   9  10
ENDBRANCH   8   9
ENDBRANCH   7   8
ENDBRANCH   1   7
TORSDOF 4
ENDMDL
MODEL 8
REMARK VINA RESULT:      -4.7      2.032      2.340
REMARK  Name = NuBBE_403
REMARK  4 active torsions:
REMARK  status: ('A' for Active; 'I' for Inactive)
REMARK    1  A    between atoms: O_1  and  C_2
REMARK    2  A    between atoms: C_2  and  S_3
REMARK    3  A    between atoms: S_3  and  C_4
REMARK    4  A    between atoms: C_4  and  C_5
REMARK                            x       y       z     vdW  Elec       q    Type
REMARK                         _______ _______ _______ _____ _____    ______ ____
ROOT
ATOM      1  C   LIG A   1      -7.535   3.010 122.222  0.00  0.00    -0.037 A 
ATOM      2  C   LIG A   1      -8.681   3.356 121.489  0.00  0.00    +0.004 A 
ATOM      3  C   LIG A   1      -8.564   3.963 120.236  0.00  0.00    +0.000 A 
ATOM      4  C   LIG A   1      -7.306   4.229 119.703  0.00  0.00    +0.000 A 
ATOM      5  C   LIG A   1      -6.160   3.899 120.425  0.00  0.00    +0.000 A 
ATOM      6  C   LIG A   1      -6.274   3.299 121.680  0.00  0.00    +0.004 A 
ENDROOT
BRANCH   1   7
ATOM      7  C   LIG A   1      -7.670   2.351 123.573  0.00  0.00    +0.106 C 
BRANCH   7   8
ATOM      8  S   LIG A   1      -9.387   1.955 124.034  0.00  0.00    -0.129 S 
BRANCH   8   9
ATOM      9  C   LIG A   1      -9.529   0.336 123.248  0.00  0.00    +0.225 C 
BRANCH   9  10
ATOM     10  O   LIG A   1     -10.698   0.305 122.449  0.00  0.00    -0.385 OA
ATOM     11  H   LIG A   1     -11.392   0.671 123.024  0.00  0.00    +0.210 HD
ENDBRANCH   9  10
ENDBRANCH   8   9
ENDBRANCH   7   8
ENDBRANCH   1   7
TORSDOF 4
ENDMDL
MODEL 9
REMARK VINA RESULT:      -4.6      1.818      2.534
REMARK  Name = NuBBE_403
REMARK  4 active torsions:
REMARK  status: ('A' for Active; 'I' for Inactive)
REMARK    1  A    between atoms: O_1  and  C_2
REMARK    2  A    between atoms: C_2  and  S_3
REMARK    3  A    between atoms: S_3  and  C_4
REMARK    4  A    between atoms: C_4  and  C_5
REMARK                            x       y       z     vdW  Elec       q    Type
REMARK                         _______ _______ _______ _____ _____    ______ ____
ROOT
ATOM      1  C   LIG A   1      -6.868   3.434 122.347  0.00  0.00    -0.037 A 
ATOM      2  C   LIG A   1      -5.872   3.841 121.444  0.00  0.00    +0.004 A 
ATOM      3  C   LIG A   1      -6.207   4.213 120.141  0.00  0.00    +0.000 A 
ATOM      4  C   LIG A   1      -7.535   4.183 119.723  0.00  0.00    +0.000 A 
ATOM      5  C   LIG A   1      -8.532   3.772 120.606  0.00  0.00    +0.000 A 
ATOM      6  C   LIG A   1      -8.199   3.392 121.908  0.00  0.00    +0.004 A 
ENDROOT
BRANCH   1   7
ATOM      7  C   LIG A   1      -6.498   3.036 123.755  0.00  0.00    +0.106 C 
BRANCH   7   8
ATOM      8  S   LIG A   1      -6.106   4.445 124.841  0.00  0.00    -0.129 S 
BRANCH   8   9
ATOM      9  C   LIG A   1      -7.604   4.457 125.849  0.00  0.00    +0.225 C 
BRANCH   9  10
ATOM     10  O   LIG A   1      -8.360   5.616 125.548  0.00  0.00    -0.385 OA
ATOM     11  H   LIG A   1      -9.283   5.310 125.557  0.00  0.00    +0.210 HD
ENDBRANCH   9  10
ENDBRANCH   8   9
ENDBRANCH   7   8
ENDBRANCH   1   7
TORSDOF 4
ENDMDL
