MODEL 1
REMARK VINA RESULT:      -7.5      0.000      0.000
REMARK  Name = NuBBE_208
REMARK  21 active torsions:
REMARK  status: ('A' for Active; 'I' for Inactive)
REMARK    1  A    between atoms: C_1  and  O_2
REMARK    2  A    between atoms: O_2  and  C_3
REMARK    3  A    between atoms: C_4  and  O_49
REMARK    4  A    between atoms: C_5  and  O_6
REMARK    5  A    between atoms: O_6  and  C_7
REMARK    6  A    between atoms: C_9  and  C_38
REMARK    7  A    between atoms: C_11  and  C_20
REMARK    8  A    between atoms: C_13  and  C_18
REMARK    9  A    between atoms: C_18  and  O_19
REMARK   10  A    between atoms: C_20  and  O_21
REMARK   11  A    between atoms: O_21  and  C_22
REMARK   12  A    between atoms: C_24  and  O_37
REMARK   13  A    between atoms: C_26  and  O_36
REMARK   14  A    between atoms: C_28  and  O_35
REMARK   15  A    between atoms: C_30  and  C_33
REMARK   16  A    between atoms: C_33  and  O_34
REMARK   17  A    between atoms: C_40  and  O_41
REMARK   18  A    between atoms: O_41  and  C_42
REMARK   19  A    between atoms: C_43  and  O_48
REMARK   20  A    between atoms: C_44  and  O_45
REMARK   21  A    between atoms: O_45  and  C_46
REMARK                            x       y       z     vdW  Elec       q    Type
REMARK                         _______ _______ _______ _____ _____    ______ ____
ROOT
ATOM      1  C   LIG A   1      -6.535  -1.508 124.065  0.00  0.00    +0.165 A 
ATOM      2  C   LIG A   1      -7.899  -1.208 124.100  0.00  0.00    +0.201 A 
ATOM      3  C   LIG A   1      -8.428  -0.241 124.980  0.00  0.00    +0.169 A 
ATOM      4  C   LIG A   1      -7.512   0.450 125.830  0.00  0.00    +0.009 A 
ATOM      5  C   LIG A   1      -7.925   1.503 126.874  0.00  0.00    +0.059 C 
ATOM      6  C   LIG A   1      -7.020   2.795 126.683  0.00  0.00    +0.032 C 
ATOM      7  C   LIG A   1      -5.493   2.516 126.702  0.00  0.00    +0.025 C 
ATOM      8  C   LIG A   1      -5.119   1.028 126.509  0.00  0.00    +0.041 C 
ATOM      9  C   LIG A   1      -6.122   0.207 125.728  0.00  0.00    -0.036 A 
ATOM     10  C   LIG A   1      -5.658  -0.811 124.880  0.00  0.00    +0.053 A 
ENDROOT
BRANCH   5  11
ATOM     11  C   LIG A   1      -7.979   0.951 128.308  0.00  0.00    -0.032 A 
ATOM     12  C   LIG A   1      -7.834  -0.413 128.617  0.00  0.00    +0.053 A 
ATOM     13  C   LIG A   1      -7.877  -0.892 129.943  0.00  0.00    +0.165 A 
ATOM     14  C   LIG A   1      -8.252  -0.041 130.981  0.00  0.00    +0.201 A 
ATOM     15  C   LIG A   1      -8.494   1.338 130.674  0.00  0.00    +0.165 A 
ATOM     16  C   LIG A   1      -8.282   1.787 129.361  0.00  0.00    +0.053 A 
BRANCH  14  17
ATOM     17  O   LIG A   1      -8.442  -0.430 132.251  0.00  0.00    -0.501 OA
ATOM     18  H   LIG A   1      -8.980  -1.214 132.207  0.00  0.00    +0.292 HD
ENDBRANCH  14  17
BRANCH  15  19
ATOM     19  O   LIG A   1      -8.892   2.211 131.669  0.00  0.00    -0.491 OA
ATOM     20  C   LIG A   1      -9.954   3.091 131.304  0.00  0.00    +0.277 C 
ENDBRANCH  15  19
BRANCH  13  21
ATOM     21  O   LIG A   1      -7.581  -2.188 130.223  0.00  0.00    -0.491 OA
ATOM     22  C   LIG A   1      -8.155  -3.144 129.298  0.00  0.00    +0.277 C 
ENDBRANCH  13  21
ENDBRANCH   5  11
BRANCH   2  23
ATOM     23  O   LIG A   1      -8.678  -1.894 123.194  0.00  0.00    -0.501 OA
ATOM     24  H   LIG A   1      -9.395  -1.261 122.945  0.00  0.00    +0.292 HD
ENDBRANCH   2  23
BRANCH   1  26
ATOM     25  C   LIG A   1      -5.038  -3.212 123.510  0.00  0.00    +0.277 C 
ATOM     26  O   LIG A   1      -6.153  -2.430 123.133  0.00  0.00    -0.491 OA
ENDBRANCH   1  26
BRANCH   3  27
ATOM     27  O   LIG A   1      -9.750   0.155 124.980  0.00  0.00    -0.491 OA
ATOM     28  C   LIG A   1     -10.122   1.216 124.078  0.00  0.00    +0.277 C 
ENDBRANCH   3  27
BRANCH   6  29
ATOM     29  C   LIG A   1      -7.409   3.386 125.310  0.00  0.00    +0.168 C 
BRANCH  29  30
ATOM     30  O   LIG A   1      -6.527   4.261 124.621  0.00  0.00    -0.348 OA
BRANCH  30  31
ATOM     31  C   LIG A   1      -5.983   3.648 123.407  0.00  0.00    +0.282 C 
ATOM     32  C   LIG A   1      -6.923   2.594 122.718  0.00  0.00    +0.201 C 
ATOM     33  C   LIG A   1      -7.739   3.192 121.552  0.00  0.00    +0.179 C 
ATOM     34  C   LIG A   1      -6.950   4.157 120.663  0.00  0.00    +0.177 C 
ATOM     35  C   LIG A   1      -5.494   4.275 121.111  0.00  0.00    +0.178 C 
ATOM     36  O   LIG A   1      -5.494   4.666 122.505  0.00  0.00    -0.341 OA
BRANCH  32  37
ATOM     37  O   LIG A   1      -6.107   1.533 122.166  0.00  0.00    -0.384 OA
ATOM     38  H   LIG A   1      -6.702   0.836 121.834  0.00  0.00    +0.210 HD
ENDBRANCH  32  37
BRANCH  33  39
ATOM     39  O   LIG A   1      -8.905   3.880 121.977  0.00  0.00    -0.386 OA
ATOM     40  H   LIG A   1      -9.055   4.653 121.399  0.00  0.00    +0.210 HD
ENDBRANCH  33  39
BRANCH  34  41
ATOM     41  O   LIG A   1      -7.137   3.799 119.295  0.00  0.00    -0.387 OA
ATOM     42  H   LIG A   1      -7.758   4.457 118.925  0.00  0.00    +0.210 HD
ENDBRANCH  34  41
BRANCH  35  43
ATOM     43  C   LIG A   1      -4.821   5.374 120.274  0.00  0.00    +0.190 C 
BRANCH  43  44
ATOM     44  O   LIG A   1      -4.078   6.277 121.088  0.00  0.00    -0.392 OA
ATOM     45  H   LIG A   1      -3.475   6.752 120.488  0.00  0.00    +0.209 HD
ENDBRANCH  43  44
ENDBRANCH  35  43
ENDBRANCH  30  31
ENDBRANCH  29  30
ENDBRANCH   6  29
BRANCH   7  46
ATOM     46  C   LIG A   1      -4.829   3.145 127.939  0.00  0.00    +0.160 C 
BRANCH  46  47
ATOM     47  O   LIG A   1      -5.616   4.198 128.460  0.00  0.00    -0.395 OA
ATOM     48  H   LIG A   1      -6.416   3.807 128.853  0.00  0.00    +0.209 HD
ENDBRANCH  46  47
ENDBRANCH   7  46
TORSDOF 17
ENDMDL
MODEL 2
REMARK VINA RESULT:      -7.4      3.104      6.408
REMARK  Name = NuBBE_208
REMARK  21 active torsions:
REMARK  status: ('A' for Active; 'I' for Inactive)
REMARK    1  A    between atoms: C_1  and  O_2
REMARK    2  A    between atoms: O_2  and  C_3
REMARK    3  A    between atoms: C_4  and  O_49
REMARK    4  A    between atoms: C_5  and  O_6
REMARK    5  A    between atoms: O_6  and  C_7
REMARK    6  A    between atoms: C_9  and  C_38
REMARK    7  A    between atoms: C_11  and  C_20
REMARK    8  A    between atoms: C_13  and  C_18
REMARK    9  A    between atoms: C_18  and  O_19
REMARK   10  A    between atoms: C_20  and  O_21
REMARK   11  A    between atoms: O_21  and  C_22
REMARK   12  A    between atoms: C_24  and  O_37
REMARK   13  A    between atoms: C_26  and  O_36
REMARK   14  A    between atoms: C_28  and  O_35
REMARK   15  A    between atoms: C_30  and  C_33
REMARK   16  A    between atoms: C_33  and  O_34
REMARK   17  A    between atoms: C_40  and  O_41
REMARK   18  A    between atoms: O_41  and  C_42
REMARK   19  A    between atoms: C_43  and  O_48
REMARK   20  A    between atoms: C_44  and  O_45
REMARK   21  A    between atoms: O_45  and  C_46
REMARK                            x       y       z     vdW  Elec       q    Type
REMARK                         _______ _______ _______ _____ _____    ______ ____
ROOT
ATOM      1  C   LIG A   1      -6.399   3.929 121.333  0.00  0.00    +0.165 A 
ATOM      2  C   LIG A   1      -7.681   3.463 121.634  0.00  0.00    +0.201 A 
ATOM      3  C   LIG A   1      -8.078   3.172 122.956  0.00  0.00    +0.169 A 
ATOM      4  C   LIG A   1      -7.124   3.392 123.995  0.00  0.00    +0.009 A 
ATOM      5  C   LIG A   1      -7.378   3.089 125.483  0.00  0.00    +0.059 C 
ATOM      6  C   LIG A   1      -6.975   4.364 126.341  0.00  0.00    +0.032 C 
ATOM      7  C   LIG A   1      -5.531   4.877 126.084  0.00  0.00    +0.025 C 
ATOM      8  C   LIG A   1      -4.886   4.330 124.791  0.00  0.00    +0.041 C 
ATOM      9  C   LIG A   1      -5.857   3.948 123.696  0.00  0.00    -0.036 A 
ATOM     10  C   LIG A   1      -5.494   4.159 122.357  0.00  0.00    +0.053 A 
ENDROOT
BRANCH   5  11
ATOM     11  C   LIG A   1      -6.755   1.763 125.950  0.00  0.00    -0.032 A 
ATOM     12  C   LIG A   1      -6.620   0.638 125.119  0.00  0.00    +0.053 A 
ATOM     13  C   LIG A   1      -6.034  -0.563 125.570  0.00  0.00    +0.165 A 
ATOM     14  C   LIG A   1      -5.736  -0.731 126.920  0.00  0.00    +0.201 A 
ATOM     15  C   LIG A   1      -5.952   0.376 127.806  0.00  0.00    +0.165 A 
ATOM     16  C   LIG A   1      -6.390   1.597 127.268  0.00  0.00    +0.053 A 
BRANCH  14  17
ATOM     17  O   LIG A   1      -5.295  -1.875 127.465  0.00  0.00    -0.501 OA
ATOM     18  H   LIG A   1      -5.681  -2.576 126.950  0.00  0.00    +0.292 HD
ENDBRANCH  14  17
BRANCH  15  19
ATOM     19  O   LIG A   1      -5.694   0.244 129.157  0.00  0.00    -0.491 OA
ATOM     20  C   LIG A   1      -4.843   1.251 129.704  0.00  0.00    +0.277 C 
ENDBRANCH  15  19
BRANCH  13  21
ATOM     21  O   LIG A   1      -5.777  -1.578 124.703  0.00  0.00    -0.491 OA
ATOM     22  C   LIG A   1      -6.377  -1.412 123.395  0.00  0.00    +0.277 C 
ENDBRANCH  13  21
ENDBRANCH   5  11
BRANCH   2  23
ATOM     23  O   LIG A   1      -8.534   3.345 120.559  0.00  0.00    -0.501 OA
ATOM     24  H   LIG A   1      -7.961   3.475 119.765  0.00  0.00    +0.292 HD
ENDBRANCH   2  23
BRANCH   1  26
ATOM     25  C   LIG A   1      -5.317   5.327 119.806  0.00  0.00    +0.277 C 
ATOM     26  O   LIG A   1      -6.164   4.216 120.018  0.00  0.00    -0.491 OA
ENDBRANCH   1  26
BRANCH   3  27
ATOM     27  O   LIG A   1      -9.360   2.804 123.309  0.00  0.00    -0.491 OA
ATOM     28  C   LIG A   1      -9.702   1.408 123.192  0.00  0.00    +0.277 C 
ENDBRANCH   3  27
BRANCH   6  29
ATOM     29  C   LIG A   1      -7.980   5.471 125.957  0.00  0.00    +0.168 C 
BRANCH  29  30
ATOM     30  O   LIG A   1      -9.340   5.387 126.358  0.00  0.00    -0.348 OA
BRANCH  30  31
ATOM     31  C   LIG A   1      -9.634   6.269 127.490  0.00  0.00    +0.282 C 
ATOM     32  C   LIG A   1     -10.569   7.487 127.158  0.00  0.00    +0.201 C 
ATOM     33  C   LIG A   1     -12.047   7.222 127.514  0.00  0.00    +0.179 C 
ATOM     34  C   LIG A   1     -12.250   6.489 128.843  0.00  0.00    +0.177 C 
ATOM     35  C   LIG A   1     -10.922   6.222 129.550  0.00  0.00    +0.178 C 
ATOM     36  O   LIG A   1     -10.073   5.495 128.629  0.00  0.00    -0.341 OA
BRANCH  32  37
ATOM     37  O   LIG A   1     -10.141   8.630 127.937  0.00  0.00    -0.384 OA
ATOM     38  H   LIG A   1      -9.198   8.789 127.747  0.00  0.00    +0.210 HD
ENDBRANCH  32  37
BRANCH  33  39
ATOM     39  O   LIG A   1     -12.741   6.482 126.523  0.00  0.00    -0.386 OA
ATOM     40  H   LIG A   1     -13.696   6.681 126.577  0.00  0.00    +0.210 HD
ENDBRANCH  33  39
BRANCH  34  41
ATOM     41  O   LIG A   1     -13.223   7.181 129.622  0.00  0.00    -0.387 OA
ATOM     42  H   LIG A   1     -13.951   6.546 129.774  0.00  0.00    +0.210 HD
ENDBRANCH  34  41
BRANCH  35  43
ATOM     43  C   LIG A   1     -11.200   5.349 130.784  0.00  0.00    +0.190 C 
BRANCH  43  44
ATOM     44  O   LIG A   1     -11.993   6.036 131.748  0.00  0.00    -0.392 OA
ATOM     45  H   LIG A   1     -12.546   6.663 131.248  0.00  0.00    +0.209 HD
ENDBRANCH  43  44
ENDBRANCH  35  43
ENDBRANCH  30  31
ENDBRANCH  29  30
ENDBRANCH   6  29
BRANCH   7  46
ATOM     46  C   LIG A   1      -4.645   4.683 127.326  0.00  0.00    +0.160 C 
BRANCH  46  47
ATOM     47  O   LIG A   1      -5.386   4.864 128.516  0.00  0.00    -0.395 OA
ATOM     48  H   LIG A   1      -5.002   4.287 129.199  0.00  0.00    +0.209 HD
ENDBRANCH  46  47
ENDBRANCH   7  46
TORSDOF 17
ENDMDL
MODEL 3
REMARK VINA RESULT:      -7.2      3.106      6.969
REMARK  Name = NuBBE_208
REMARK  21 active torsions:
REMARK  status: ('A' for Active; 'I' for Inactive)
REMARK    1  A    between atoms: C_1  and  O_2
REMARK    2  A    between atoms: O_2  and  C_3
REMARK    3  A    between atoms: C_4  and  O_49
REMARK    4  A    between atoms: C_5  and  O_6
REMARK    5  A    between atoms: O_6  and  C_7
REMARK    6  A    between atoms: C_9  and  C_38
REMARK    7  A    between atoms: C_11  and  C_20
REMARK    8  A    between atoms: C_13  and  C_18
REMARK    9  A    between atoms: C_18  and  O_19
REMARK   10  A    between atoms: C_20  and  O_21
REMARK   11  A    between atoms: O_21  and  C_22
REMARK   12  A    between atoms: C_24  and  O_37
REMARK   13  A    between atoms: C_26  and  O_36
REMARK   14  A    between atoms: C_28  and  O_35
REMARK   15  A    between atoms: C_30  and  C_33
REMARK   16  A    between atoms: C_33  and  O_34
REMARK   17  A    between atoms: C_40  and  O_41
REMARK   18  A    between atoms: O_41  and  C_42
REMARK   19  A    between atoms: C_43  and  O_48
REMARK   20  A    between atoms: C_44  and  O_45
REMARK   21  A    between atoms: O_45  and  C_46
REMARK                            x       y       z     vdW  Elec       q    Type
REMARK                         _______ _______ _______ _____ _____    ______ ____
ROOT
ATOM      1  C   LIG A   1      -4.859   4.141 127.691  0.00  0.00    +0.165 A 
ATOM      2  C   LIG A   1      -5.923   4.415 126.828  0.00  0.00    +0.201 A 
ATOM      3  C   LIG A   1      -7.147   3.717 126.907  0.00  0.00    +0.169 A 
ATOM      4  C   LIG A   1      -7.276   2.724 127.925  0.00  0.00    +0.009 A 
ATOM      5  C   LIG A   1      -8.524   1.845 128.125  0.00  0.00    +0.059 C 
ATOM      6  C   LIG A   1      -8.949   1.900 129.655  0.00  0.00    +0.032 C 
ATOM      7  C   LIG A   1      -7.811   1.540 130.648  0.00  0.00    +0.025 C 
ATOM      8  C   LIG A   1      -6.395   1.576 130.029  0.00  0.00    +0.041 C 
ATOM      9  C   LIG A   1      -6.228   2.513 128.853  0.00  0.00    -0.036 A 
ATOM     10  C   LIG A   1      -5.011   3.191 128.688  0.00  0.00    +0.053 A 
ENDROOT
BRANCH   5  11
ATOM     11  C   LIG A   1      -8.374   0.432 127.539  0.00  0.00    -0.032 A 
ATOM     12  C   LIG A   1      -7.555  -0.558 128.109  0.00  0.00    +0.053 A 
ATOM     13  C   LIG A   1      -7.443  -1.851 127.557  0.00  0.00    +0.165 A 
ATOM     14  C   LIG A   1      -8.006  -2.130 126.313  0.00  0.00    +0.201 A 
ATOM     15  C   LIG A   1      -8.771  -1.104 125.668  0.00  0.00    +0.165 A 
ATOM     16  C   LIG A   1      -8.977   0.111 126.342  0.00  0.00    +0.053 A 
BRANCH  14  17
ATOM     17  O   LIG A   1      -7.849  -3.287 125.651  0.00  0.00    -0.501 OA
ATOM     18  H   LIG A   1      -8.415  -3.230 124.888  0.00  0.00    +0.292 HD
ENDBRANCH  14  17
BRANCH  15  19
ATOM     19  O   LIG A   1      -9.325  -1.330 124.423  0.00  0.00    -0.491 OA
ATOM     20  C   LIG A   1      -8.581  -0.791 123.330  0.00  0.00    +0.277 C 
ENDBRANCH  15  19
BRANCH  13  21
ATOM     21  O   LIG A   1      -6.768  -2.831 128.214  0.00  0.00    -0.491 OA
ATOM     22  C   LIG A   1      -7.498  -3.419 129.319  0.00  0.00    +0.277 C 
ENDBRANCH  13  21
ENDBRANCH   5  11
BRANCH   2  23
ATOM     23  O   LIG A   1      -5.705   5.433 125.925  0.00  0.00    -0.501 OA
ATOM     24  H   LIG A   1      -5.612   4.981 125.051  0.00  0.00    +0.292 HD
ENDBRANCH   2  23
BRANCH   1  26
ATOM     25  C   LIG A   1      -2.534   4.207 127.487  0.00  0.00    +0.277 C 
ATOM     26  O   LIG A   1      -3.750   4.924 127.534  0.00  0.00    -0.491 OA
ENDBRANCH   1  26
BRANCH   3  27
ATOM     27  O   LIG A   1      -8.254   4.020 126.142  0.00  0.00    -0.491 OA
ATOM     28  C   LIG A   1      -8.321   3.446 124.821  0.00  0.00    +0.277 C 
ENDBRANCH   3  27
BRANCH   6  29
ATOM     29  C   LIG A   1      -9.407   3.351 129.917  0.00  0.00    +0.168 C 
BRANCH  29  30
ATOM     30  O   LIG A   1     -10.785   3.695 129.881  0.00  0.00    -0.348 OA
BRANCH  30  31
ATOM     31  C   LIG A   1     -11.012   5.092 130.261  0.00  0.00    +0.282 C 
ATOM     32  C   LIG A   1      -9.768   6.036 130.089  0.00  0.00    +0.201 C 
ATOM     33  C   LIG A   1      -9.793   6.825 128.763  0.00  0.00    +0.179 C 
ATOM     34  C   LIG A   1     -11.174   7.362 128.378  0.00  0.00    +0.177 C 
ATOM     35  C   LIG A   1     -12.225   7.029 129.437  0.00  0.00    +0.178 C 
ATOM     36  O   LIG A   1     -12.212   5.595 129.633  0.00  0.00    -0.341 OA
BRANCH  32  37
ATOM     37  O   LIG A   1      -9.769   7.008 131.163  0.00  0.00    -0.384 OA
ATOM     38  H   LIG A   1      -9.492   7.866 130.794  0.00  0.00    +0.210 HD
ENDBRANCH  32  37
BRANCH  33  39
ATOM     39  O   LIG A   1      -9.316   6.078 127.655  0.00  0.00    -0.386 OA
ATOM     40  H   LIG A   1      -8.436   6.410 127.393  0.00  0.00    +0.210 HD
ENDBRANCH  33  39
BRANCH  34  41
ATOM     41  O   LIG A   1     -11.068   8.744 128.043  0.00  0.00    -0.387 OA
ATOM     42  H   LIG A   1     -10.355   9.106 128.605  0.00  0.00    +0.210 HD
ENDBRANCH  34  41
BRANCH  35  43
ATOM     43  C   LIG A   1     -13.600   7.459 128.902  0.00  0.00    +0.190 C 
BRANCH  43  44
ATOM     44  O   LIG A   1     -13.642   7.438 127.478  0.00  0.00    -0.392 OA
ATOM     45  H   LIG A   1     -13.209   6.608 127.206  0.00  0.00    +0.209 HD
ENDBRANCH  43  44
ENDBRANCH  35  43
ENDBRANCH  30  31
ENDBRANCH  29  30
ENDBRANCH   6  29
BRANCH   7  46
ATOM     46  C   LIG A   1      -8.112   0.221 131.381  0.00  0.00    +0.160 C 
BRANCH  46  47
ATOM     47  O   LIG A   1      -9.460   0.168 131.805  0.00  0.00    -0.395 OA
ATOM     48  H   LIG A   1      -9.841  -0.669 131.487  0.00  0.00    +0.209 HD
ENDBRANCH  46  47
ENDBRANCH   7  46
TORSDOF 17
ENDMDL
MODEL 4
REMARK VINA RESULT:      -7.1      2.419      7.712
REMARK  Name = NuBBE_208
REMARK  21 active torsions:
REMARK  status: ('A' for Active; 'I' for Inactive)
REMARK    1  A    between atoms: C_1  and  O_2
REMARK    2  A    between atoms: O_2  and  C_3
REMARK    3  A    between atoms: C_4  and  O_49
REMARK    4  A    between atoms: C_5  and  O_6
REMARK    5  A    between atoms: O_6  and  C_7
REMARK    6  A    between atoms: C_9  and  C_38
REMARK    7  A    between atoms: C_11  and  C_20
REMARK    8  A    between atoms: C_13  and  C_18
REMARK    9  A    between atoms: C_18  and  O_19
REMARK   10  A    between atoms: C_20  and  O_21
REMARK   11  A    between atoms: O_21  and  C_22
REMARK   12  A    between atoms: C_24  and  O_37
REMARK   13  A    between atoms: C_26  and  O_36
REMARK   14  A    between atoms: C_28  and  O_35
REMARK   15  A    between atoms: C_30  and  C_33
REMARK   16  A    between atoms: C_33  and  O_34
REMARK   17  A    between atoms: C_40  and  O_41
REMARK   18  A    between atoms: O_41  and  C_42
REMARK   19  A    between atoms: C_43  and  O_48
REMARK   20  A    between atoms: C_44  and  O_45
REMARK   21  A    between atoms: O_45  and  C_46
REMARK                            x       y       z     vdW  Elec       q    Type
REMARK                         _______ _______ _______ _____ _____    ______ ____
ROOT
ATOM      1  C   LIG A   1      -4.101   3.280 126.485  0.00  0.00    +0.165 A 
ATOM      2  C   LIG A   1      -5.210   4.119 126.624  0.00  0.00    +0.201 A 
ATOM      3  C   LIG A   1      -6.509   3.610 126.834  0.00  0.00    +0.169 A 
ATOM      4  C   LIG A   1      -6.656   2.193 126.927  0.00  0.00    +0.009 A 
ATOM      5  C   LIG A   1      -8.003   1.472 127.114  0.00  0.00    +0.059 C 
ATOM      6  C   LIG A   1      -7.868   0.437 128.312  0.00  0.00    +0.032 C 
ATOM      7  C   LIG A   1      -6.684  -0.558 128.166  0.00  0.00    +0.025 C 
ATOM      8  C   LIG A   1      -5.628  -0.137 127.119  0.00  0.00    +0.041 C 
ATOM      9  C   LIG A   1      -5.518   1.352 126.875  0.00  0.00    -0.036 A 
ATOM     10  C   LIG A   1      -4.259   1.908 126.601  0.00  0.00    +0.053 A 
ENDROOT
BRANCH   5  11
ATOM     11  C   LIG A   1      -8.569   0.890 125.809  0.00  0.00    -0.032 A 
ATOM     12  C   LIG A   1      -8.738  -0.488 125.585  0.00  0.00    +0.053 A 
ATOM     13  C   LIG A   1      -9.270  -0.994 124.382  0.00  0.00    +0.165 A 
ATOM     14  C   LIG A   1      -9.475  -0.145 123.296  0.00  0.00    +0.201 A 
ATOM     15  C   LIG A   1      -9.222   1.255 123.473  0.00  0.00    +0.165 A 
ATOM     16  C   LIG A   1      -8.843   1.720 124.742  0.00  0.00    +0.053 A 
BRANCH  14  17
ATOM     17  O   LIG A   1      -9.857  -0.550 122.076  0.00  0.00    -0.501 OA
ATOM     18  H   LIG A   1      -9.114  -0.392 121.503  0.00  0.00    +0.292 HD
ENDBRANCH  14  17
BRANCH  15  19
ATOM     19  O   LIG A   1      -9.388   2.129 122.415  0.00  0.00    -0.491 OA
ATOM     20  C   LIG A   1      -8.341   3.087 122.261  0.00  0.00    +0.277 C 
ENDBRANCH  15  19
BRANCH  13  21
ATOM     21  O   LIG A   1      -9.565  -2.315 124.254  0.00  0.00    -0.491 OA
ATOM     22  C   LIG A   1      -8.478  -3.205 124.610  0.00  0.00    +0.277 C 
ENDBRANCH  13  21
ENDBRANCH   5  11
BRANCH   2  23
ATOM     23  O   LIG A   1      -4.939   5.469 126.576  0.00  0.00    -0.501 OA
ATOM     24  H   LIG A   1      -4.945   5.762 127.520  0.00  0.00    +0.292 HD
ENDBRANCH   2  23
BRANCH   1  26
ATOM     25  C   LIG A   1      -1.776   3.088 126.597  0.00  0.00    +0.277 C 
ATOM     26  O   LIG A   1      -2.897   3.907 126.333  0.00  0.00    -0.491 OA
ENDBRANCH   1  26
BRANCH   3  27
ATOM     27  O   LIG A   1      -7.613   4.401 127.072  0.00  0.00    -0.491 OA
ATOM     28  C   LIG A   1      -8.263   4.991 125.928  0.00  0.00    +0.277 C 
ENDBRANCH   3  27
BRANCH   6  29
ATOM     29  C   LIG A   1      -7.661   1.285 129.585  0.00  0.00    +0.168 C 
BRANCH  29  30
ATOM     30  O   LIG A   1      -8.716   2.080 130.107  0.00  0.00    -0.348 OA
BRANCH  30  31
ATOM     31  C   LIG A   1      -8.248   3.402 130.531  0.00  0.00    +0.282 C 
ATOM     32  C   LIG A   1      -9.078   4.612 129.967  0.00  0.00    +0.201 C 
ATOM     33  C   LIG A   1     -10.140   5.125 130.962  0.00  0.00    +0.179 C 
ATOM     34  C   LIG A   1      -9.661   5.184 132.416  0.00  0.00    +0.177 C 
ATOM     35  C   LIG A   1      -8.200   4.757 132.548  0.00  0.00    +0.178 C 
ATOM     36  O   LIG A   1      -8.074   3.437 131.965  0.00  0.00    -0.341 OA
BRANCH  32  37
ATOM     37  O   LIG A   1      -8.175   5.712 129.702  0.00  0.00    -0.384 OA
ATOM     38  H   LIG A   1      -8.411   6.447 130.297  0.00  0.00    +0.210 HD
ENDBRANCH  32  37
BRANCH  33  39
ATOM     39  O   LIG A   1     -11.336   4.364 130.951  0.00  0.00    -0.386 OA
ATOM     40  H   LIG A   1     -12.067   4.911 130.605  0.00  0.00    +0.210 HD
ENDBRANCH  33  39
BRANCH  34  41
ATOM     41  O   LIG A   1      -9.971   6.463 132.965  0.00  0.00    -0.387 OA
ATOM     42  H   LIG A   1      -9.855   6.378 133.932  0.00  0.00    +0.210 HD
ENDBRANCH  34  41
BRANCH  35  43
ATOM     43  C   LIG A   1      -7.851   4.690 134.043  0.00  0.00    +0.190 C 
BRANCH  43  44
ATOM     44  O   LIG A   1      -9.013   4.510 134.848  0.00  0.00    -0.392 OA
ATOM     45  H   LIG A   1      -8.753   3.910 135.570  0.00  0.00    +0.209 HD
ENDBRANCH  43  44
ENDBRANCH  35  43
ENDBRANCH  30  31
ENDBRANCH  29  30
ENDBRANCH   6  29
BRANCH   7  46
ATOM     46  C   LIG A   1      -7.190  -1.996 127.963  0.00  0.00    +0.160 C 
BRANCH  46  47
ATOM     47  O   LIG A   1      -7.984  -2.418 129.055  0.00  0.00    -0.395 OA
ATOM     48  H   LIG A   1      -8.551  -3.147 128.749  0.00  0.00    +0.209 HD
ENDBRANCH  46  47
ENDBRANCH   7  46
TORSDOF 17
ENDMDL
MODEL 5
REMARK VINA RESULT:      -7.1      2.627      7.457
REMARK  Name = NuBBE_208
REMARK  21 active torsions:
REMARK  status: ('A' for Active; 'I' for Inactive)
REMARK    1  A    between atoms: C_1  and  O_2
REMARK    2  A    between atoms: O_2  and  C_3
REMARK    3  A    between atoms: C_4  and  O_49
REMARK    4  A    between atoms: C_5  and  O_6
REMARK    5  A    between atoms: O_6  and  C_7
REMARK    6  A    between atoms: C_9  and  C_38
REMARK    7  A    between atoms: C_11  and  C_20
REMARK    8  A    between atoms: C_13  and  C_18
REMARK    9  A    between atoms: C_18  and  O_19
REMARK   10  A    between atoms: C_20  and  O_21
REMARK   11  A    between atoms: O_21  and  C_22
REMARK   12  A    between atoms: C_24  and  O_37
REMARK   13  A    between atoms: C_26  and  O_36
REMARK   14  A    between atoms: C_28  and  O_35
REMARK   15  A    between atoms: C_30  and  C_33
REMARK   16  A    between atoms: C_33  and  O_34
REMARK   17  A    between atoms: C_40  and  O_41
REMARK   18  A    between atoms: O_41  and  C_42
REMARK   19  A    between atoms: C_43  and  O_48
REMARK   20  A    between atoms: C_44  and  O_45
REMARK   21  A    between atoms: O_45  and  C_46
REMARK                            x       y       z     vdW  Elec       q    Type
REMARK                         _______ _______ _______ _____ _____    ______ ____
ROOT
ATOM      1  C   LIG A   1      -4.368   3.097 126.205  0.00  0.00    +0.165 A 
ATOM      2  C   LIG A   1      -5.619   3.560 125.787  0.00  0.00    +0.201 A 
ATOM      3  C   LIG A   1      -6.812   2.881 126.110  0.00  0.00    +0.169 A 
ATOM      4  C   LIG A   1      -6.705   1.702 126.907  0.00  0.00    +0.009 A 
ATOM      5  C   LIG A   1      -7.900   0.821 127.316  0.00  0.00    +0.059 C 
ATOM      6  C   LIG A   1      -7.836   0.566 128.883  0.00  0.00    +0.032 C 
ATOM      7  C   LIG A   1      -6.483  -0.010 129.383  0.00  0.00    +0.025 C 
ATOM      8  C   LIG A   1      -5.323   0.130 128.372  0.00  0.00    +0.041 C 
ATOM      9  C   LIG A   1      -5.446   1.287 127.403  0.00  0.00    -0.036 A 
ATOM     10  C   LIG A   1      -4.286   1.965 126.999  0.00  0.00    +0.053 A 
ENDROOT
BRANCH   5  11
ATOM     11  C   LIG A   1      -8.046  -0.444 126.454  0.00  0.00    -0.032 A 
ATOM     12  C   LIG A   1      -7.964  -0.437 125.051  0.00  0.00    +0.053 A 
ATOM     13  C   LIG A   1      -8.091  -1.614 124.285  0.00  0.00    +0.165 A 
ATOM     14  C   LIG A   1      -8.489  -2.803 124.892  0.00  0.00    +0.201 A 
ATOM     15  C   LIG A   1      -8.669  -2.812 126.314  0.00  0.00    +0.165 A 
ATOM     16  C   LIG A   1      -8.374  -1.647 127.041  0.00  0.00    +0.053 A 
BRANCH  14  17
ATOM     17  O   LIG A   1      -8.758  -3.941 124.233  0.00  0.00    -0.501 OA
ATOM     18  H   LIG A   1      -9.510  -3.752 123.681  0.00  0.00    +0.292 HD
ENDBRANCH  14  17
BRANCH  15  19
ATOM     19  O   LIG A   1      -9.087  -3.964 126.954  0.00  0.00    -0.491 OA
ATOM     20  C   LIG A   1      -8.974  -3.933 128.377  0.00  0.00    +0.277 C 
ENDBRANCH  15  19
BRANCH  13  21
ATOM     21  O   LIG A   1      -7.854  -1.601 122.947  0.00  0.00    -0.491 OA
ATOM     22  C   LIG A   1      -6.456  -1.724 122.588  0.00  0.00    +0.277 C 
ENDBRANCH  13  21
ENDBRANCH   5  11
BRANCH   2  23
ATOM     23  O   LIG A   1      -5.604   4.738 125.073  0.00  0.00    -0.501 OA
ATOM     24  H   LIG A   1      -5.632   5.450 125.758  0.00  0.00    +0.292 HD
ENDBRANCH   2  23
BRANCH   1  26
ATOM     25  C   LIG A   1      -2.068   3.450 126.405  0.00  0.00    +0.277 C 
ATOM     26  O   LIG A   1      -3.300   3.878 125.862  0.00  0.00    -0.491 OA
ENDBRANCH   1  26
BRANCH   3  27
ATOM     27  O   LIG A   1      -8.071   3.353 125.801  0.00  0.00    -0.491 OA
ATOM     28  C   LIG A   1      -8.554   3.119 124.463  0.00  0.00    +0.277 C 
ENDBRANCH   3  27
BRANCH   6  29
ATOM     29  C   LIG A   1      -8.077   1.939 129.547  0.00  0.00    +0.168 C 
BRANCH  29  30
ATOM     30  O   LIG A   1      -9.166   2.758 129.146  0.00  0.00    -0.348 OA
BRANCH  30  31
ATOM     31  C   LIG A   1     -10.007   3.146 130.281  0.00  0.00    +0.282 C 
ATOM     32  C   LIG A   1      -9.287   3.130 131.677  0.00  0.00    +0.201 C 
ATOM     33  C   LIG A   1      -8.783   4.524 132.106  0.00  0.00    +0.179 C 
ATOM     34  C   LIG A   1      -9.758   5.665 131.802  0.00  0.00    +0.177 C 
ATOM     35  C   LIG A   1     -11.052   5.150 131.173  0.00  0.00    +0.178 C 
ATOM     36  O   LIG A   1     -10.694   4.385 129.997  0.00  0.00    -0.341 OA
BRANCH  32  37
ATOM     37  O   LIG A   1     -10.230   2.690 132.683  0.00  0.00    -0.384 OA
ATOM     38  H   LIG A   1     -10.318   3.398 133.346  0.00  0.00    +0.210 HD
ENDBRANCH  32  37
BRANCH  33  39
ATOM     39  O   LIG A   1      -7.539   4.877 131.524  0.00  0.00    -0.386 OA
ATOM     40  H   LIG A   1      -7.220   5.712 131.917  0.00  0.00    +0.210 HD
ENDBRANCH  33  39
BRANCH  34  41
ATOM     41  O   LIG A   1      -9.928   6.466 132.969  0.00  0.00    -0.387 OA
ATOM     42  H   LIG A   1     -10.516   7.203 132.709  0.00  0.00    +0.210 HD
ENDBRANCH  34  41
BRANCH  35  43
ATOM     43  C   LIG A   1     -11.900   6.362 130.755  0.00  0.00    +0.190 C 
BRANCH  43  44
ATOM     44  O   LIG A   1     -12.696   6.845 131.833  0.00  0.00    -0.392 OA
ATOM     45  H   LIG A   1     -12.073   7.147 132.518  0.00  0.00    +0.209 HD
ENDBRANCH  43  44
ENDBRANCH  35  43
ENDBRANCH  30  31
ENDBRANCH  29  30
ENDBRANCH   6  29
BRANCH   7  46
ATOM     46  C   LIG A   1      -6.652  -1.446 129.907  0.00  0.00    +0.160 C 
BRANCH  46  47
ATOM     47  O   LIG A   1      -5.416  -2.133 129.922  0.00  0.00    -0.395 OA
ATOM     48  H   LIG A   1      -5.603  -3.085 129.984  0.00  0.00    +0.209 HD
ENDBRANCH  46  47
ENDBRANCH   7  46
TORSDOF 17
ENDMDL
MODEL 6
REMARK VINA RESULT:      -7.1      2.523      7.944
REMARK  Name = NuBBE_208
REMARK  21 active torsions:
REMARK  status: ('A' for Active; 'I' for Inactive)
REMARK    1  A    between atoms: C_1  and  O_2
REMARK    2  A    between atoms: O_2  and  C_3
REMARK    3  A    between atoms: C_4  and  O_49
REMARK    4  A    between atoms: C_5  and  O_6
REMARK    5  A    between atoms: O_6  and  C_7
REMARK    6  A    between atoms: C_9  and  C_38
REMARK    7  A    between atoms: C_11  and  C_20
REMARK    8  A    between atoms: C_13  and  C_18
REMARK    9  A    between atoms: C_18  and  O_19
REMARK   10  A    between atoms: C_20  and  O_21
REMARK   11  A    between atoms: O_21  and  C_22
REMARK   12  A    between atoms: C_24  and  O_37
REMARK   13  A    between atoms: C_26  and  O_36
REMARK   14  A    between atoms: C_28  and  O_35
REMARK   15  A    between atoms: C_30  and  C_33
REMARK   16  A    between atoms: C_33  and  O_34
REMARK   17  A    between atoms: C_40  and  O_41
REMARK   18  A    between atoms: O_41  and  C_42
REMARK   19  A    between atoms: C_43  and  O_48
REMARK   20  A    between atoms: C_44  and  O_45
REMARK   21  A    between atoms: O_45  and  C_46
REMARK                            x       y       z     vdW  Elec       q    Type
REMARK                         _______ _______ _______ _____ _____    ______ ____
ROOT
ATOM      1  C   LIG A   1      -4.032   3.487 126.813  0.00  0.00    +0.165 A 
ATOM      2  C   LIG A   1      -5.152   4.317 126.901  0.00  0.00    +0.201 A 
ATOM      3  C   LIG A   1      -6.457   3.797 127.030  0.00  0.00    +0.169 A 
ATOM      4  C   LIG A   1      -6.600   2.378 127.093  0.00  0.00    +0.009 A 
ATOM      5  C   LIG A   1      -7.950   1.646 127.193  0.00  0.00    +0.059 C 
ATOM      6  C   LIG A   1      -7.876   0.594 128.381  0.00  0.00    +0.032 C 
ATOM      7  C   LIG A   1      -6.679  -0.391 128.288  0.00  0.00    +0.025 C 
ATOM      8  C   LIG A   1      -5.569   0.052 127.309  0.00  0.00    +0.041 C 
ATOM      9  C   LIG A   1      -5.456   1.545 127.094  0.00  0.00    -0.036 A 
ATOM     10  C   LIG A   1      -4.187   2.113 126.900  0.00  0.00    +0.053 A 
ENDROOT
BRANCH   5  11
ATOM     11  C   LIG A   1      -8.438   1.081 125.849  0.00  0.00    -0.032 A 
ATOM     12  C   LIG A   1      -8.814   1.888 124.761  0.00  0.00    +0.053 A 
ATOM     13  C   LIG A   1      -9.247   1.342 123.535  0.00  0.00    +0.165 A 
ATOM     14  C   LIG A   1      -9.492  -0.025 123.427  0.00  0.00    +0.201 A 
ATOM     15  C   LIG A   1      -9.202  -0.858 124.557  0.00  0.00    +0.165 A 
ATOM     16  C   LIG A   1      -8.624  -0.276 125.696  0.00  0.00    +0.053 A 
BRANCH  14  17
ATOM     17  O   LIG A   1     -10.022  -0.619 122.347  0.00  0.00    -0.501 OA
ATOM     18  H   LIG A   1     -10.944  -0.383 122.344  0.00  0.00    +0.292 HD
ENDBRANCH  14  17
BRANCH  15  19
ATOM     19  O   LIG A   1      -9.455  -2.216 124.501  0.00  0.00    -0.491 OA
ATOM     20  C   LIG A   1      -9.601  -2.850 125.771  0.00  0.00    +0.277 C 
ENDBRANCH  15  19
BRANCH  13  21
ATOM     21  O   LIG A   1      -9.455   2.140 122.455  0.00  0.00    -0.491 OA
ATOM     22  C   LIG A   1      -8.382   3.079 122.193  0.00  0.00    +0.277 C 
ENDBRANCH  13  21
ENDBRANCH   5  11
BRANCH   2  23
ATOM     23  O   LIG A   1      -4.888   5.669 126.889  0.00  0.00    -0.501 OA
ATOM     24  H   LIG A   1      -4.851   5.912 125.932  0.00  0.00    +0.292 HD
ENDBRANCH   2  23
BRANCH   1  26
ATOM     25  C   LIG A   1      -1.720   3.258 126.575  0.00  0.00    +0.277 C 
ATOM     26  O   LIG A   1      -2.825   4.123 126.739  0.00  0.00    -0.491 OA
ENDBRANCH   1  26
BRANCH   3  27
ATOM     27  O   LIG A   1      -7.579   4.578 127.217  0.00  0.00    -0.491 OA
ATOM     28  C   LIG A   1      -8.213   5.116 126.039  0.00  0.00    +0.277 C 
ENDBRANCH   3  27
BRANCH   6  29
ATOM     29  C   LIG A   1      -7.747   1.424 129.677  0.00  0.00    +0.168 C 
BRANCH  29  30
ATOM     30  O   LIG A   1      -8.820   2.241 130.125  0.00  0.00    -0.348 OA
BRANCH  30  31
ATOM     31  C   LIG A   1      -8.345   3.506 130.692  0.00  0.00    +0.282 C 
ATOM     32  C   LIG A   1      -9.043   4.793 130.120  0.00  0.00    +0.201 C 
ATOM     33  C   LIG A   1     -10.192   5.299 131.017  0.00  0.00    +0.179 C 
ATOM     34  C   LIG A   1      -9.891   5.239 132.517  0.00  0.00    +0.177 C 
ATOM     35  C   LIG A   1      -8.477   4.725 132.789  0.00  0.00    +0.178 C 
ATOM     36  O   LIG A   1      -8.344   3.440 132.135  0.00  0.00    -0.341 OA
BRANCH  32  37
ATOM     37  O   LIG A   1      -8.064   5.857 130.040  0.00  0.00    -0.384 OA
ATOM     38  H   LIG A   1      -7.442   5.643 129.321  0.00  0.00    +0.210 HD
ENDBRANCH  32  37
BRANCH  33  39
ATOM     39  O   LIG A   1     -11.412   4.607 130.812  0.00  0.00    -0.386 OA
ATOM     40  H   LIG A   1     -11.267   3.648 130.929  0.00  0.00    +0.210 HD
ENDBRANCH  33  39
BRANCH  34  41
ATOM     41  O   LIG A   1     -10.205   6.496 133.113  0.00  0.00    -0.387 OA
ATOM     42  H   LIG A   1      -9.678   6.544 133.936  0.00  0.00    +0.210 HD
ENDBRANCH  34  41
BRANCH  35  43
ATOM     43  C   LIG A   1      -8.315   4.544 134.307  0.00  0.00    +0.190 C 
BRANCH  43  44
ATOM     44  O   LIG A   1      -8.242   5.797 134.982  0.00  0.00    -0.392 OA
ATOM     45  H   LIG A   1      -7.296   5.962 135.149  0.00  0.00    +0.209 HD
ENDBRANCH  43  44
ENDBRANCH  35  43
ENDBRANCH  30  31
ENDBRANCH  29  30
ENDBRANCH   6  29
BRANCH   7  46
ATOM     46  C   LIG A   1      -7.163  -1.830 128.035  0.00  0.00    +0.160 C 
BRANCH  46  47
ATOM     47  O   LIG A   1      -7.729  -2.391 129.203  0.00  0.00    -0.395 OA
ATOM     48  H   LIG A   1      -8.697  -2.388 129.098  0.00  0.00    +0.209 HD
ENDBRANCH  46  47
ENDBRANCH   7  46
TORSDOF 17
ENDMDL
MODEL 7
REMARK VINA RESULT:      -7.0      3.405      7.219
REMARK  Name = NuBBE_208
REMARK  21 active torsions:
REMARK  status: ('A' for Active; 'I' for Inactive)
REMARK    1  A    between atoms: C_1  and  O_2
REMARK    2  A    between atoms: O_2  and  C_3
REMARK    3  A    between atoms: C_4  and  O_49
REMARK    4  A    between atoms: C_5  and  O_6
REMARK    5  A    between atoms: O_6  and  C_7
REMARK    6  A    between atoms: C_9  and  C_38
REMARK    7  A    between atoms: C_11  and  C_20
REMARK    8  A    between atoms: C_13  and  C_18
REMARK    9  A    between atoms: C_18  and  O_19
REMARK   10  A    between atoms: C_20  and  O_21
REMARK   11  A    between atoms: O_21  and  C_22
REMARK   12  A    between atoms: C_24  and  O_37
REMARK   13  A    between atoms: C_26  and  O_36
REMARK   14  A    between atoms: C_28  and  O_35
REMARK   15  A    between atoms: C_30  and  C_33
REMARK   16  A    between atoms: C_33  and  O_34
REMARK   17  A    between atoms: C_40  and  O_41
REMARK   18  A    between atoms: O_41  and  C_42
REMARK   19  A    between atoms: C_43  and  O_48
REMARK   20  A    between atoms: C_44  and  O_45
REMARK   21  A    between atoms: O_45  and  C_46
REMARK                            x       y       z     vdW  Elec       q    Type
REMARK                         _______ _______ _______ _____ _____    ______ ____
ROOT
ATOM      1  C   LIG A   1      -4.939   4.554 128.040  0.00  0.00    +0.165 A 
ATOM      2  C   LIG A   1      -6.054   4.286 127.241  0.00  0.00    +0.201 A 
ATOM      3  C   LIG A   1      -7.107   3.459 127.685  0.00  0.00    +0.169 A 
ATOM      4  C   LIG A   1      -7.010   2.914 129.001  0.00  0.00    +0.009 A 
ATOM      5  C   LIG A   1      -8.048   1.963 129.624  0.00  0.00    +0.059 C 
ATOM      6  C   LIG A   1      -8.444   2.509 131.062  0.00  0.00    +0.032 C 
ATOM      7  C   LIG A   1      -7.236   2.760 132.006  0.00  0.00    +0.025 C 
ATOM      8  C   LIG A   1      -5.871   2.819 131.285  0.00  0.00    +0.041 C 
ATOM      9  C   LIG A   1      -5.923   3.260 129.838  0.00  0.00    -0.036 A 
ATOM     10  C   LIG A   1      -4.873   4.036 129.323  0.00  0.00    +0.053 A 
ENDROOT
BRANCH   5  11
ATOM     11  C   LIG A   1      -7.624   0.486 129.580  0.00  0.00    -0.032 A 
ATOM     12  C   LIG A   1      -7.888  -0.425 130.617  0.00  0.00    +0.053 A 
ATOM     13  C   LIG A   1      -7.497  -1.778 130.546  0.00  0.00    +0.165 A 
ATOM     14  C   LIG A   1      -6.668  -2.213 129.513  0.00  0.00    +0.201 A 
ATOM     15  C   LIG A   1      -6.310  -1.275 128.490  0.00  0.00    +0.165 A 
ATOM     16  C   LIG A   1      -6.859   0.016 128.533  0.00  0.00    +0.053 A 
BRANCH  14  17
ATOM     17  O   LIG A   1      -6.143  -3.445 129.428  0.00  0.00    -0.501 OA
ATOM     18  H   LIG A   1      -6.753  -3.953 128.903  0.00  0.00    +0.292 HD
ENDBRANCH  14  17
BRANCH  15  19
ATOM     19  O   LIG A   1      -5.470  -1.657 127.462  0.00  0.00    -0.491 OA
ATOM     20  C   LIG A   1      -5.416  -0.748 126.363  0.00  0.00    +0.277 C 
ENDBRANCH  15  19
BRANCH  13  21
ATOM     21  O   LIG A   1      -7.900  -2.668 131.491  0.00  0.00    -0.491 OA
ATOM     22  C   LIG A   1      -7.559  -2.290 132.848  0.00  0.00    +0.277 C 
ENDBRANCH  13  21
ENDBRANCH   5  11
BRANCH   2  23
ATOM     23  O   LIG A   1      -6.066   4.913 126.015  0.00  0.00    -0.501 OA
ATOM     24  H   LIG A   1      -6.533   4.284 125.413  0.00  0.00    +0.292 HD
ENDBRANCH   2  23
BRANCH   1  26
ATOM     25  C   LIG A   1      -2.675   5.077 127.801  0.00  0.00    +0.277 C 
ATOM     26  O   LIG A   1      -4.016   5.408 127.505  0.00  0.00    -0.491 OA
ENDBRANCH   1  26
BRANCH   3  27
ATOM     27  O   LIG A   1      -8.268   3.246 126.971  0.00  0.00    -0.491 OA
ATOM     28  C   LIG A   1      -8.232   2.245 125.934  0.00  0.00    +0.277 C 
ENDBRANCH   3  27
BRANCH   6  29
ATOM     29  C   LIG A   1      -9.183   3.843 130.822  0.00  0.00    +0.168 C 
BRANCH  29  30
ATOM     30  O   LIG A   1     -10.247   3.925 129.884  0.00  0.00    -0.348 OA
BRANCH  30  31
ATOM     31  C   LIG A   1     -11.301   4.839 130.329  0.00  0.00    +0.282 C 
ATOM     32  C   LIG A   1     -10.819   6.003 131.268  0.00  0.00    +0.201 C 
ATOM     33  C   LIG A   1     -10.568   7.322 130.508  0.00  0.00    +0.179 C 
ATOM     34  C   LIG A   1     -11.616   7.638 129.437  0.00  0.00    +0.177 C 
ATOM     35  C   LIG A   1     -12.718   6.579 129.395  0.00  0.00    +0.178 C 
ATOM     36  O   LIG A   1     -12.083   5.292 129.201  0.00  0.00    -0.341 OA
BRANCH  32  37
ATOM     37  O   LIG A   1     -11.849   6.266 132.251  0.00  0.00    -0.384 OA
ATOM     38  H   LIG A   1     -12.463   5.510 132.255  0.00  0.00    +0.210 HD
ENDBRANCH  32  37
BRANCH  33  39
ATOM     39  O   LIG A   1      -9.301   7.374 129.874  0.00  0.00    -0.386 OA
ATOM     40  H   LIG A   1      -9.388   7.816 129.007  0.00  0.00    +0.210 HD
ENDBRANCH  33  39
BRANCH  34  41
ATOM     41  O   LIG A   1     -12.071   8.979 129.600  0.00  0.00    -0.387 OA
ATOM     42  H   LIG A   1     -11.602   9.508 128.924  0.00  0.00    +0.210 HD
ENDBRANCH  34  41
BRANCH  35  43
ATOM     43  C   LIG A   1     -13.632   6.882 128.197  0.00  0.00    +0.190 C 
BRANCH  43  44
ATOM     44  O   LIG A   1     -12.884   7.276 127.050  0.00  0.00    -0.392 OA
ATOM     45  H   LIG A   1     -12.030   6.811 127.110  0.00  0.00    +0.209 HD
ENDBRANCH  43  44
ENDBRANCH  35  43
ENDBRANCH  30  31
ENDBRANCH  29  30
ENDBRANCH   6  29
BRANCH   7  46
ATOM     46  C   LIG A   1      -7.247   1.781 133.193  0.00  0.00    +0.160 C 
BRANCH  46  47
ATOM     47  O   LIG A   1      -6.067   1.003 133.222  0.00  0.00    -0.395 OA
ATOM     48  H   LIG A   1      -6.278   0.125 132.858  0.00  0.00    +0.209 HD
ENDBRANCH  46  47
ENDBRANCH   7  46
TORSDOF 17
ENDMDL
MODEL 8
REMARK VINA RESULT:      -6.9      3.326      7.152
REMARK  Name = NuBBE_208
REMARK  21 active torsions:
REMARK  status: ('A' for Active; 'I' for Inactive)
REMARK    1  A    between atoms: C_1  and  O_2
REMARK    2  A    between atoms: O_2  and  C_3
REMARK    3  A    between atoms: C_4  and  O_49
REMARK    4  A    between atoms: C_5  and  O_6
REMARK    5  A    between atoms: O_6  and  C_7
REMARK    6  A    between atoms: C_9  and  C_38
REMARK    7  A    between atoms: C_11  and  C_20
REMARK    8  A    between atoms: C_13  and  C_18
REMARK    9  A    between atoms: C_18  and  O_19
REMARK   10  A    between atoms: C_20  and  O_21
REMARK   11  A    between atoms: O_21  and  C_22
REMARK   12  A    between atoms: C_24  and  O_37
REMARK   13  A    between atoms: C_26  and  O_36
REMARK   14  A    between atoms: C_28  and  O_35
REMARK   15  A    between atoms: C_30  and  C_33
REMARK   16  A    between atoms: C_33  and  O_34
REMARK   17  A    between atoms: C_40  and  O_41
REMARK   18  A    between atoms: O_41  and  C_42
REMARK   19  A    between atoms: C_43  and  O_48
REMARK   20  A    between atoms: C_44  and  O_45
REMARK   21  A    between atoms: O_45  and  C_46
REMARK                            x       y       z     vdW  Elec       q    Type
REMARK                         _______ _______ _______ _____ _____    ______ ____
ROOT
ATOM      1  C   LIG A   1      -4.934   4.792 127.727  0.00  0.00    +0.165 A 
ATOM      2  C   LIG A   1      -6.077   4.451 126.999  0.00  0.00    +0.201 A 
ATOM      3  C   LIG A   1      -7.053   3.571 127.513  0.00  0.00    +0.169 A 
ATOM      4  C   LIG A   1      -6.848   3.051 128.826  0.00  0.00    +0.009 A 
ATOM      5  C   LIG A   1      -7.791   2.051 129.519  0.00  0.00    +0.059 C 
ATOM      6  C   LIG A   1      -8.133   2.593 130.973  0.00  0.00    +0.032 C 
ATOM      7  C   LIG A   1      -6.888   2.924 131.841  0.00  0.00    +0.025 C 
ATOM      8  C   LIG A   1      -5.573   3.050 131.039  0.00  0.00    +0.041 C 
ATOM      9  C   LIG A   1      -5.735   3.469 129.594  0.00  0.00    -0.036 A 
ATOM     10  C   LIG A   1      -4.764   4.296 129.010  0.00  0.00    +0.053 A 
ENDROOT
BRANCH   5  11
ATOM     11  C   LIG A   1      -7.287   0.600 129.465  0.00  0.00    -0.032 A 
ATOM     12  C   LIG A   1      -6.527   0.084 128.400  0.00  0.00    +0.053 A 
ATOM     13  C   LIG A   1      -6.068  -1.249 128.381  0.00  0.00    +0.165 A 
ATOM     14  C   LIG A   1      -6.514  -2.155 129.340  0.00  0.00    +0.201 A 
ATOM     15  C   LIG A   1      -7.366  -1.672 130.387  0.00  0.00    +0.165 A 
ATOM     16  C   LIG A   1      -7.661  -0.300 130.440  0.00  0.00    +0.053 A 
BRANCH  14  17
ATOM     17  O   LIG A   1      -6.234  -3.468 129.334  0.00  0.00    -0.501 OA
ATOM     18  H   LIG A   1      -6.511  -3.799 130.182  0.00  0.00    +0.292 HD
ENDBRANCH  14  17
BRANCH  15  19
ATOM     19  O   LIG A   1      -7.851  -2.542 131.344  0.00  0.00    -0.491 OA
ATOM     20  C   LIG A   1      -7.318  -2.350 132.654  0.00  0.00    +0.277 C 
ENDBRANCH  15  19
BRANCH  13  21
ATOM     21  O   LIG A   1      -5.209  -1.673 127.417  0.00  0.00    -0.491 OA
ATOM     22  C   LIG A   1      -5.802  -1.794 126.101  0.00  0.00    +0.277 C 
ENDBRANCH  13  21
ENDBRANCH   5  11
BRANCH   2  23
ATOM     23  O   LIG A   1      -6.198   5.059 125.770  0.00  0.00    -0.501 OA
ATOM     24  H   LIG A   1      -5.811   4.415 125.128  0.00  0.00    +0.292 HD
ENDBRANCH   2  23
BRANCH   1  26
ATOM     25  C   LIG A   1      -3.045   6.145 127.958  0.00  0.00    +0.277 C 
ATOM     26  O   LIG A   1      -4.095   5.690 127.130  0.00  0.00    -0.491 OA
ENDBRANCH   1  26
BRANCH   3  27
ATOM     27  O   LIG A   1      -8.240   3.284 126.871  0.00  0.00    -0.491 OA
ATOM     28  C   LIG A   1      -8.205   2.280 125.836  0.00  0.00    +0.277 C 
ENDBRANCH   3  27
BRANCH   6  29
ATOM     29  C   LIG A   1      -8.960   3.879 130.764  0.00  0.00    +0.168 C 
BRANCH  29  30
ATOM     30  O   LIG A   1     -10.108   3.876 129.927  0.00  0.00    -0.348 OA
BRANCH  30  31
ATOM     31  C   LIG A   1     -11.123   4.828 130.385  0.00  0.00    +0.282 C 
ATOM     32  C   LIG A   1     -10.569   6.042 131.214  0.00  0.00    +0.201 C 
ATOM     33  C   LIG A   1     -10.362   7.308 130.357  0.00  0.00    +0.179 C 
ATOM     34  C   LIG A   1     -11.480   7.569 129.343  0.00  0.00    +0.177 C 
ATOM     35  C   LIG A   1     -12.589   6.522 129.443  0.00  0.00    +0.178 C 
ATOM     36  O   LIG A   1     -11.977   5.219 129.287  0.00  0.00    -0.341 OA
BRANCH  32  37
ATOM     37  O   LIG A   1     -11.526   6.377 132.247  0.00  0.00    -0.384 OA
ATOM     38  H   LIG A   1     -11.613   7.347 132.276  0.00  0.00    +0.210 HD
ENDBRANCH  32  37
BRANCH  33  39
ATOM     39  O   LIG A   1      -9.141   7.307 129.636  0.00  0.00    -0.386 OA
ATOM     40  H   LIG A   1      -9.056   8.143 129.137  0.00  0.00    +0.210 HD
ENDBRANCH  33  39
BRANCH  34  41
ATOM     41  O   LIG A   1     -11.912   8.923 129.453  0.00  0.00    -0.387 OA
ATOM     42  H   LIG A   1     -11.501   9.274 130.267  0.00  0.00    +0.210 HD
ENDBRANCH  34  41
BRANCH  35  43
ATOM     43  C   LIG A   1     -13.581   6.761 128.294  0.00  0.00    +0.190 C 
BRANCH  43  44
ATOM     44  O   LIG A   1     -12.926   7.237 127.122  0.00  0.00    -0.392 OA
ATOM     45  H   LIG A   1     -12.300   7.922 127.420  0.00  0.00    +0.209 HD
ENDBRANCH  43  44
ENDBRANCH  35  43
ENDBRANCH  30  31
ENDBRANCH  29  30
ENDBRANCH   6  29
BRANCH   7  46
ATOM     46  C   LIG A   1      -6.773   1.962 133.036  0.00  0.00    +0.160 C 
BRANCH  46  47
ATOM     47  O   LIG A   1      -8.046   1.511 133.453  0.00  0.00    -0.395 OA
ATOM     48  H   LIG A   1      -8.201   0.638 133.050  0.00  0.00    +0.209 HD
ENDBRANCH  46  47
ENDBRANCH   7  46
TORSDOF 17
ENDMDL
MODEL 9
REMARK VINA RESULT:      -6.9      2.570      7.058
REMARK  Name = NuBBE_208
REMARK  21 active torsions:
REMARK  status: ('A' for Active; 'I' for Inactive)
REMARK    1  A    between atoms: C_1  and  O_2
REMARK    2  A    between atoms: O_2  and  C_3
REMARK    3  A    between atoms: C_4  and  O_49
REMARK    4  A    between atoms: C_5  and  O_6
REMARK    5  A    between atoms: O_6  and  C_7
REMARK    6  A    between atoms: C_9  and  C_38
REMARK    7  A    between atoms: C_11  and  C_20
REMARK    8  A    between atoms: C_13  and  C_18
REMARK    9  A    between atoms: C_18  and  O_19
REMARK   10  A    between atoms: C_20  and  O_21
REMARK   11  A    between atoms: O_21  and  C_22
REMARK   12  A    between atoms: C_24  and  O_37
REMARK   13  A    between atoms: C_26  and  O_36
REMARK   14  A    between atoms: C_28  and  O_35
REMARK   15  A    between atoms: C_30  and  C_33
REMARK   16  A    between atoms: C_33  and  O_34
REMARK   17  A    between atoms: C_40  and  O_41
REMARK   18  A    between atoms: O_41  and  C_42
REMARK   19  A    between atoms: C_43  and  O_48
REMARK   20  A    between atoms: C_44  and  O_45
REMARK   21  A    between atoms: O_45  and  C_46
REMARK                            x       y       z     vdW  Elec       q    Type
REMARK                         _______ _______ _______ _____ _____    ______ ____
ROOT
ATOM      1  C   LIG A   1      -8.213   1.894 130.167  0.00  0.00    +0.165 A 
ATOM      2  C   LIG A   1      -6.966   1.296 130.372  0.00  0.00    +0.201 A 
ATOM      3  C   LIG A   1      -6.158   0.871 129.297  0.00  0.00    +0.169 A 
ATOM      4  C   LIG A   1      -6.647   1.094 127.974  0.00  0.00    +0.009 A 
ATOM      5  C   LIG A   1      -5.913   0.657 126.693  0.00  0.00    +0.059 C 
ATOM      6  C   LIG A   1      -5.841   1.893 125.698  0.00  0.00    +0.032 C 
ATOM      7  C   LIG A   1      -7.216   2.548 125.392  0.00  0.00    +0.025 C 
ATOM      8  C   LIG A   1      -8.336   2.160 126.383  0.00  0.00    +0.041 C 
ATOM      9  C   LIG A   1      -7.868   1.779 127.771  0.00  0.00    -0.036 A 
ATOM     10  C   LIG A   1      -8.660   2.123 128.877  0.00  0.00    +0.053 A 
ENDROOT
BRANCH   5  11
ATOM     11  C   LIG A   1      -6.469  -0.641 126.085  0.00  0.00    -0.032 A 
ATOM     12  C   LIG A   1      -7.455  -1.426 126.707  0.00  0.00    +0.053 A 
ATOM     13  C   LIG A   1      -7.956  -2.607 126.121  0.00  0.00    +0.165 A 
ATOM     14  C   LIG A   1      -7.349  -3.133 124.983  0.00  0.00    +0.201 A 
ATOM     15  C   LIG A   1      -6.277  -2.395 124.382  0.00  0.00    +0.165 A 
ATOM     16  C   LIG A   1      -5.929  -1.147 124.922  0.00  0.00    +0.053 A 
BRANCH  14  17
ATOM     17  O   LIG A   1      -7.670  -4.312 124.427  0.00  0.00    -0.501 OA
ATOM     18  H   LIG A   1      -6.981  -4.917 124.680  0.00  0.00    +0.292 HD
ENDBRANCH  14  17
BRANCH  15  19
ATOM     19  O   LIG A   1      -5.630  -2.894 123.267  0.00  0.00    -0.491 OA
ATOM     20  C   LIG A   1      -4.448  -3.643 123.546  0.00  0.00    +0.277 C 
ENDBRANCH  15  19
BRANCH  13  21
ATOM     21  O   LIG A   1      -9.015  -3.259 126.669  0.00  0.00    -0.491 OA
ATOM     22  C   LIG A   1      -8.756  -3.820 127.980  0.00  0.00    +0.277 C 
ENDBRANCH  13  21
ENDBRANCH   5  11
BRANCH   2  23
ATOM     23  O   LIG A   1      -6.572   1.187 131.687  0.00  0.00    -0.501 OA
ATOM     24  H   LIG A   1      -7.365   0.837 132.161  0.00  0.00    +0.292 HD
ENDBRANCH   2  23
BRANCH   1  26
ATOM     25  C   LIG A   1     -10.038   3.054 131.048  0.00  0.00    +0.277 C 
ATOM     26  O   LIG A   1      -8.869   2.300 131.295  0.00  0.00    -0.491 OA
ENDBRANCH   1  26
BRANCH   3  27
ATOM     27  O   LIG A   1      -4.883   0.366 129.448  0.00  0.00    -0.491 OA
ATOM     28  C   LIG A   1      -4.758  -1.046 129.712  0.00  0.00    +0.277 C 
ENDBRANCH   3  27
BRANCH   6  29
ATOM     29  C   LIG A   1      -4.925   2.934 126.376  0.00  0.00    +0.168 C 
BRANCH  29  30
ATOM     30  O   LIG A   1      -5.462   4.136 126.908  0.00  0.00    -0.348 OA
BRANCH  30  31
ATOM     31  C   LIG A   1      -5.104   4.321 128.316  0.00  0.00    +0.282 C 
ATOM     32  C   LIG A   1      -3.723   3.702 128.737  0.00  0.00    +0.201 C 
ATOM     33  C   LIG A   1      -2.578   4.737 128.739  0.00  0.00    +0.179 C 
ATOM     34  C   LIG A   1      -2.968   6.103 129.310  0.00  0.00    +0.177 C 
ATOM     35  C   LIG A   1      -4.415   6.118 129.800  0.00  0.00    +0.178 C 
ATOM     36  O   LIG A   1      -5.257   5.707 128.696  0.00  0.00    -0.341 OA
BRANCH  32  37
ATOM     37  O   LIG A   1      -3.834   3.187 130.086  0.00  0.00    -0.384 OA
ATOM     38  H   LIG A   1      -3.218   2.438 130.175  0.00  0.00    +0.210 HD
ENDBRANCH  32  37
BRANCH  33  39
ATOM     39  O   LIG A   1      -2.026   4.968 127.453  0.00  0.00    -0.386 OA
ATOM     40  H   LIG A   1      -1.903   4.115 126.993  0.00  0.00    +0.210 HD
ENDBRANCH  33  39
BRANCH  34  41
ATOM     41  O   LIG A   1      -1.997   6.508 130.273  0.00  0.00    -0.387 OA
ATOM     42  H   LIG A   1      -2.497   6.739 131.081  0.00  0.00    +0.210 HD
ENDBRANCH  34  41
BRANCH  35  43
ATOM     43  C   LIG A   1      -4.771   7.558 130.205  0.00  0.00    +0.190 C 
BRANCH  43  44
ATOM     44  O   LIG A   1      -4.245   8.509 129.284  0.00  0.00    -0.392 OA
ATOM     45  H   LIG A   1      -3.306   8.623 129.517  0.00  0.00    +0.209 HD
ENDBRANCH  43  44
ENDBRANCH  35  43
ENDBRANCH  30  31
ENDBRANCH  29  30
ENDBRANCH   6  29
BRANCH   7  46
ATOM     46  C   LIG A   1      -7.616   2.338 123.922  0.00  0.00    +0.160 C 
BRANCH  46  47
ATOM     47  O   LIG A   1      -8.387   1.164 123.765  0.00  0.00    -0.395 OA
ATOM     48  H   LIG A   1      -8.979   1.294 123.004  0.00  0.00    +0.209 HD
ENDBRANCH  46  47
ENDBRANCH   7  46
TORSDOF 17
ENDMDL
