MODEL 1
REMARK VINA RESULT:      -6.5      0.000      0.000
REMARK  Name = NuBBE_1888
REMARK  13 active torsions:
REMARK  status: ('A' for Active; 'I' for Inactive)
REMARK    1  A    between atoms: C_4  and  O_5
REMARK    2  A    between atoms: O_5  and  C_6
REMARK    3  A    between atoms: C_8  and  O_9
REMARK    4  A    between atoms: O_9  and  C_10
REMARK    5  A    between atoms: C_14  and  C_15
REMARK    6  A    between atoms: C_17  and  O_18
REMARK    7  A    between atoms: O_18  and  C_19
REMARK    8  A    between atoms: C_20  and  O_21
REMARK    9  A    between atoms: O_21  and  C_22
REMARK   10  A    between atoms: C_24  and  O_25
REMARK   11  A    between atoms: O_25  and  C_26
REMARK   12  A    between atoms: C_27  and  O_28
REMARK   13  A    between atoms: O_28  and  C_29
REMARK                            x       y       z     vdW  Elec       q    Type
REMARK                         _______ _______ _______ _____ _____    ______ ____
ROOT
ATOM      1  O   LIG A   1      -9.604  -0.575 125.467  0.00  0.00    -0.283 OA
ATOM      2  C   LIG A   1      -8.435  -0.194 125.298  0.00  0.00    +0.238 A 
ATOM      3  C   LIG A   1      -7.388  -1.067 124.739  0.00  0.00    +0.109 A 
ATOM      4  C   LIG A   1      -7.580  -2.081 123.785  0.00  0.00    +0.138 A 
ATOM      5  C   LIG A   1      -6.471  -2.843 123.378  0.00  0.00    +0.092 A 
ATOM      6  C   LIG A   1      -5.216  -2.662 123.964  0.00  0.00    +0.127 A 
ATOM      7  C   LIG A   1      -5.037  -1.636 124.879  0.00  0.00    +0.092 A 
ATOM      8  C   LIG A   1      -6.107  -0.835 125.243  0.00  0.00    +0.147 A 
ATOM      9  O   LIG A   1      -5.815   0.191 126.102  0.00  0.00    -0.451 OA
ATOM     10  C   LIG A   1      -6.700   1.244 126.128  0.00  0.00    +0.184 A 
ATOM     11  C   LIG A   1      -7.981   1.167 125.719  0.00  0.00    +0.211 A 
ENDROOT
BRANCH  10  12
ATOM     12  C   LIG A   1      -6.111   2.495 126.611  0.00  0.00    +0.066 A 
ATOM     13  C   LIG A   1      -6.100   2.715 127.998  0.00  0.00    +0.064 A 
ATOM     14  C   LIG A   1      -5.547   3.879 128.542  0.00  0.00    +0.162 A 
ATOM     15  C   LIG A   1      -4.981   4.834 127.683  0.00  0.00    +0.165 A 
ATOM     16  C   LIG A   1      -4.992   4.604 126.303  0.00  0.00    +0.095 A 
ATOM     17  C   LIG A   1      -5.553   3.450 125.752  0.00  0.00    +0.135 A 
BRANCH  14  18
ATOM     18  O   LIG A   1      -5.517   4.120 129.895  0.00  0.00    -0.491 OA
ATOM     19  C   LIG A   1      -6.772   4.480 130.472  0.00  0.00    +0.277 C 
ENDBRANCH  14  18
BRANCH  15  20
ATOM     20  O   LIG A   1      -4.406   5.958 128.229  0.00  0.00    -0.491 OA
ATOM     21  C   LIG A   1      -2.983   6.034 128.125  0.00  0.00    +0.277 C 
ENDBRANCH  15  20
BRANCH  17  22
ATOM     22  O   LIG A   1      -5.574   3.190 124.404  0.00  0.00    -0.494 OA
ATOM     23  C   LIG A   1      -5.636   4.324 123.542  0.00  0.00    +0.277 C 
ENDBRANCH  17  22
ENDBRANCH  10  12
BRANCH   4  24
ATOM     24  O   LIG A   1      -8.827  -2.249 123.231  0.00  0.00    -0.494 OA
ATOM     25  C   LIG A   1      -9.515  -3.438 123.623  0.00  0.00    +0.277 C 
ENDBRANCH   4  24
BRANCH   6  26
ATOM     26  O   LIG A   1      -4.210  -3.498 123.558  0.00  0.00    -0.495 OA
ATOM     27  C   LIG A   1      -4.546  -4.887 123.618  0.00  0.00    +0.277 C 
ENDBRANCH   6  26
BRANCH  11  28
ATOM     28  O   LIG A   1      -8.804   2.278 125.714  0.00  0.00    -0.488 OA
ATOM     29  C   LIG A   1      -9.064   2.851 124.438  0.00  0.00    +0.277 C 
ENDBRANCH  11  28
TORSDOF 7
ENDMDL
MODEL 2
REMARK VINA RESULT:      -6.5      2.442      3.512
REMARK  Name = NuBBE_1888
REMARK  13 active torsions:
REMARK  status: ('A' for Active; 'I' for Inactive)
REMARK    1  A    between atoms: C_4  and  O_5
REMARK    2  A    between atoms: O_5  and  C_6
REMARK    3  A    between atoms: C_8  and  O_9
REMARK    4  A    between atoms: O_9  and  C_10
REMARK    5  A    between atoms: C_14  and  C_15
REMARK    6  A    between atoms: C_17  and  O_18
REMARK    7  A    between atoms: O_18  and  C_19
REMARK    8  A    between atoms: C_20  and  O_21
REMARK    9  A    between atoms: O_21  and  C_22
REMARK   10  A    between atoms: C_24  and  O_25
REMARK   11  A    between atoms: O_25  and  C_26
REMARK   12  A    between atoms: C_27  and  O_28
REMARK   13  A    between atoms: O_28  and  C_29
REMARK                            x       y       z     vdW  Elec       q    Type
REMARK                         _______ _______ _______ _____ _____    ______ ____
ROOT
ATOM      1  O   LIG A   1      -9.518   2.268 124.731  0.00  0.00    -0.283 OA
ATOM      2  C   LIG A   1      -8.560   1.840 125.392  0.00  0.00    +0.238 A 
ATOM      3  C   LIG A   1      -8.483   0.449 125.872  0.00  0.00    +0.109 A 
ATOM      4  C   LIG A   1      -9.006  -0.680 125.219  0.00  0.00    +0.138 A 
ATOM      5  C   LIG A   1      -8.871  -1.938 125.832  0.00  0.00    +0.092 A 
ATOM      6  C   LIG A   1      -8.305  -2.064 127.103  0.00  0.00    +0.127 A 
ATOM      7  C   LIG A   1      -7.765  -0.946 127.719  0.00  0.00    +0.092 A 
ATOM      8  C   LIG A   1      -7.834   0.291 127.098  0.00  0.00    +0.147 A 
ATOM      9  O   LIG A   1      -7.215   1.321 127.755  0.00  0.00    -0.451 OA
ATOM     10  C   LIG A   1      -6.869   2.416 126.998  0.00  0.00    +0.184 A 
ATOM     11  C   LIG A   1      -7.434   2.729 125.816  0.00  0.00    +0.211 A 
ENDROOT
BRANCH  10  12
ATOM     12  C   LIG A   1      -5.782   3.210 127.576  0.00  0.00    +0.066 A 
ATOM     13  C   LIG A   1      -4.466   2.802 127.305  0.00  0.00    +0.064 A 
ATOM     14  C   LIG A   1      -3.370   3.511 127.810  0.00  0.00    +0.162 A 
ATOM     15  C   LIG A   1      -3.597   4.657 128.588  0.00  0.00    +0.165 A 
ATOM     16  C   LIG A   1      -4.912   5.058 128.848  0.00  0.00    +0.095 A 
ATOM     17  C   LIG A   1      -6.009   4.349 128.358  0.00  0.00    +0.135 A 
BRANCH  14  18
ATOM     18  O   LIG A   1      -2.071   3.140 127.557  0.00  0.00    -0.491 OA
ATOM     19  C   LIG A   1      -1.693   3.164 126.181  0.00  0.00    +0.277 C 
ENDBRANCH  14  18
BRANCH  15  20
ATOM     20  O   LIG A   1      -2.514   5.369 129.049  0.00  0.00    -0.491 OA
ATOM     21  C   LIG A   1      -2.251   6.599 128.369  0.00  0.00    +0.277 C 
ENDBRANCH  15  20
BRANCH  17  22
ATOM     22  O   LIG A   1      -7.312   4.719 128.589  0.00  0.00    -0.494 OA
ATOM     23  C   LIG A   1      -7.783   4.572 129.927  0.00  0.00    +0.277 C 
ENDBRANCH  17  22
ENDBRANCH  10  12
BRANCH   4  24
ATOM     24  O   LIG A   1      -9.570  -0.530 123.974  0.00  0.00    -0.494 OA
ATOM     25  C   LIG A   1      -9.056  -1.398 122.961  0.00  0.00    +0.277 C 
ENDBRANCH   4  24
BRANCH   6  26
ATOM     26  O   LIG A   1      -8.280  -3.318 127.654  0.00  0.00    -0.495 OA
ATOM     27  C   LIG A   1      -8.135  -3.327 129.076  0.00  0.00    +0.277 C 
ENDBRANCH   6  26
BRANCH  11  28
ATOM     28  O   LIG A   1      -6.999   3.811 125.074  0.00  0.00    -0.488 OA
ATOM     29  C   LIG A   1      -6.306   3.499 123.870  0.00  0.00    +0.277 C 
ENDBRANCH  11  28
TORSDOF 7
ENDMDL
MODEL 3
REMARK VINA RESULT:      -6.3      2.437      8.242
REMARK  Name = NuBBE_1888
REMARK  13 active torsions:
REMARK  status: ('A' for Active; 'I' for Inactive)
REMARK    1  A    between atoms: C_4  and  O_5
REMARK    2  A    between atoms: O_5  and  C_6
REMARK    3  A    between atoms: C_8  and  O_9
REMARK    4  A    between atoms: O_9  and  C_10
REMARK    5  A    between atoms: C_14  and  C_15
REMARK    6  A    between atoms: C_17  and  O_18
REMARK    7  A    between atoms: O_18  and  C_19
REMARK    8  A    between atoms: C_20  and  O_21
REMARK    9  A    between atoms: O_21  and  C_22
REMARK   10  A    between atoms: C_24  and  O_25
REMARK   11  A    between atoms: O_25  and  C_26
REMARK   12  A    between atoms: C_27  and  O_28
REMARK   13  A    between atoms: O_28  and  C_29
REMARK                            x       y       z     vdW  Elec       q    Type
REMARK                         _______ _______ _______ _____ _____    ______ ____
ROOT
ATOM      1  O   LIG A   1      -5.073   3.437 129.375  0.00  0.00    -0.283 OA
ATOM      2  C   LIG A   1      -6.237   3.245 128.989  0.00  0.00    +0.238 A 
ATOM      3  C   LIG A   1      -7.395   3.935 129.583  0.00  0.00    +0.109 A 
ATOM      4  C   LIG A   1      -7.399   5.237 130.113  0.00  0.00    +0.138 A 
ATOM      5  C   LIG A   1      -8.589   5.735 130.671  0.00  0.00    +0.092 A 
ATOM      6  C   LIG A   1      -9.727   4.932 130.779  0.00  0.00    +0.127 A 
ATOM      7  C   LIG A   1      -9.717   3.663 130.222  0.00  0.00    +0.092 A 
ATOM      8  C   LIG A   1      -8.570   3.181 129.612  0.00  0.00    +0.147 A 
ATOM      9  O   LIG A   1      -8.679   1.944 129.035  0.00  0.00    -0.451 OA
ATOM     10  C   LIG A   1      -7.757   1.633 128.062  0.00  0.00    +0.184 A 
ATOM     11  C   LIG A   1      -6.561   2.239 127.931  0.00  0.00    +0.211 A 
ENDROOT
BRANCH  10  12
ATOM     12  C   LIG A   1      -8.210   0.595 127.134  0.00  0.00    +0.066 A 
ATOM     13  C   LIG A   1      -7.901  -0.738 127.450  0.00  0.00    +0.064 A 
ATOM     14  C   LIG A   1      -8.306  -1.791 126.623  0.00  0.00    +0.162 A 
ATOM     15  C   LIG A   1      -9.045  -1.505 125.464  0.00  0.00    +0.165 A 
ATOM     16  C   LIG A   1      -9.352  -0.175 125.160  0.00  0.00    +0.095 A 
ATOM     17  C   LIG A   1      -8.942   0.882 125.975  0.00  0.00    +0.135 A 
BRANCH  14  18
ATOM     18  O   LIG A   1      -8.023  -3.106 126.909  0.00  0.00    -0.491 OA
ATOM     19  C   LIG A   1      -8.627  -3.607 128.102  0.00  0.00    +0.277 C 
ENDBRANCH  14  18
BRANCH  15  20
ATOM     20  O   LIG A   1      -9.470  -2.549 124.676  0.00  0.00    -0.491 OA
ATOM     21  C   LIG A   1      -8.809  -2.679 123.415  0.00  0.00    +0.277 C 
ENDBRANCH  15  20
BRANCH  17  22
ATOM     22  O   LIG A   1      -9.232   2.198 125.709  0.00  0.00    -0.494 OA
ATOM     23  C   LIG A   1      -8.739   2.717 124.476  0.00  0.00    +0.277 C 
ENDBRANCH  17  22
ENDBRANCH  10  12
BRANCH   4  24
ATOM     24  O   LIG A   1      -6.263   6.004 130.007  0.00  0.00    -0.494 OA
ATOM     25  C   LIG A   1      -5.901   6.727 131.185  0.00  0.00    +0.277 C 
ENDBRANCH   4  24
BRANCH   6  26
ATOM     26  O   LIG A   1     -10.819   5.477 131.402  0.00  0.00    -0.495 OA
ATOM     27  C   LIG A   1     -11.492   6.475 130.631  0.00  0.00    +0.277 C 
ENDBRANCH   6  26
BRANCH  11  28
ATOM     28  O   LIG A   1      -5.704   1.922 126.894  0.00  0.00    -0.488 OA
ATOM     29  C   LIG A   1      -5.416   2.978 125.984  0.00  0.00    +0.277 C 
ENDBRANCH  11  28
TORSDOF 7
ENDMDL
MODEL 4
REMARK VINA RESULT:      -6.3      3.723      5.887
REMARK  Name = NuBBE_1888
REMARK  13 active torsions:
REMARK  status: ('A' for Active; 'I' for Inactive)
REMARK    1  A    between atoms: C_4  and  O_5
REMARK    2  A    between atoms: O_5  and  C_6
REMARK    3  A    between atoms: C_8  and  O_9
REMARK    4  A    between atoms: O_9  and  C_10
REMARK    5  A    between atoms: C_14  and  C_15
REMARK    6  A    between atoms: C_17  and  O_18
REMARK    7  A    between atoms: O_18  and  C_19
REMARK    8  A    between atoms: C_20  and  O_21
REMARK    9  A    between atoms: O_21  and  C_22
REMARK   10  A    between atoms: C_24  and  O_25
REMARK   11  A    between atoms: O_25  and  C_26
REMARK   12  A    between atoms: C_27  and  O_28
REMARK   13  A    between atoms: O_28  and  C_29
REMARK                            x       y       z     vdW  Elec       q    Type
REMARK                         _______ _______ _______ _____ _____    ______ ____
ROOT
ATOM      1  O   LIG A   1      -5.867   5.989 125.053  0.00  0.00    -0.283 OA
ATOM      2  C   LIG A   1      -6.437   4.946 125.411  0.00  0.00    +0.238 A 
ATOM      3  C   LIG A   1      -7.125   4.051 124.465  0.00  0.00    +0.109 A 
ATOM      4  C   LIG A   1      -6.758   3.822 123.127  0.00  0.00    +0.138 A 
ATOM      5  C   LIG A   1      -7.545   2.955 122.349  0.00  0.00    +0.092 A 
ATOM      6  C   LIG A   1      -8.718   2.393 122.859  0.00  0.00    +0.127 A 
ATOM      7  C   LIG A   1      -9.048   2.601 124.189  0.00  0.00    +0.092 A 
ATOM      8  C   LIG A   1      -8.247   3.403 124.987  0.00  0.00    +0.147 A 
ATOM      9  O   LIG A   1      -8.620   3.496 126.301  0.00  0.00    -0.451 OA
ATOM     10  C   LIG A   1      -7.646   3.882 127.192  0.00  0.00    +0.184 A 
ATOM     11  C   LIG A   1      -6.529   4.552 126.851  0.00  0.00    +0.211 A 
ENDROOT
BRANCH  10  12
ATOM     12  C   LIG A   1      -7.910   3.460 128.570  0.00  0.00    +0.066 A 
ATOM     13  C   LIG A   1      -7.595   2.136 128.914  0.00  0.00    +0.064 A 
ATOM     14  C   LIG A   1      -7.806   1.655 130.211  0.00  0.00    +0.162 A 
ATOM     15  C   LIG A   1      -8.329   2.521 131.185  0.00  0.00    +0.165 A 
ATOM     16  C   LIG A   1      -8.636   3.840 130.833  0.00  0.00    +0.095 A 
ATOM     17  C   LIG A   1      -8.439   4.322 129.538  0.00  0.00    +0.135 A 
BRANCH  14  18
ATOM     18  O   LIG A   1      -7.503   0.366 130.580  0.00  0.00    -0.491 OA
ATOM     19  C   LIG A   1      -6.108   0.072 130.655  0.00  0.00    +0.277 C 
ENDBRANCH  14  18
BRANCH  15  20
ATOM     20  O   LIG A   1      -8.499   2.051 132.466  0.00  0.00    -0.491 OA
ATOM     21  C   LIG A   1      -9.093   2.969 133.386  0.00  0.00    +0.277 C 
ENDBRANCH  15  20
BRANCH  17  22
ATOM     22  O   LIG A   1      -8.722   5.613 129.162  0.00  0.00    -0.494 OA
ATOM     23  C   LIG A   1     -10.036   6.083 129.455  0.00  0.00    +0.277 C 
ENDBRANCH  17  22
ENDBRANCH  10  12
BRANCH   4  24
ATOM     24  O   LIG A   1      -5.606   4.397 122.644  0.00  0.00    -0.494 OA
ATOM     25  C   LIG A   1      -5.381   4.229 121.242  0.00  0.00    +0.277 C 
ENDBRANCH   4  24
BRANCH   6  26
ATOM     26  O   LIG A   1      -9.460   1.618 122.008  0.00  0.00    -0.495 OA
ATOM     27  C   LIG A   1     -10.186   0.570 122.657  0.00  0.00    +0.277 C 
ENDBRANCH   6  26
BRANCH  11  28
ATOM     28  O   LIG A   1      -5.559   4.859 127.787  0.00  0.00    -0.488 OA
ATOM     29  C   LIG A   1      -4.336   4.139 127.670  0.00  0.00    +0.277 C 
ENDBRANCH  11  28
TORSDOF 7
ENDMDL
MODEL 5
REMARK VINA RESULT:      -6.3      1.611      2.724
REMARK  Name = NuBBE_1888
REMARK  13 active torsions:
REMARK  status: ('A' for Active; 'I' for Inactive)
REMARK    1  A    between atoms: C_4  and  O_5
REMARK    2  A    between atoms: O_5  and  C_6
REMARK    3  A    between atoms: C_8  and  O_9
REMARK    4  A    between atoms: O_9  and  C_10
REMARK    5  A    between atoms: C_14  and  C_15
REMARK    6  A    between atoms: C_17  and  O_18
REMARK    7  A    between atoms: O_18  and  C_19
REMARK    8  A    between atoms: C_20  and  O_21
REMARK    9  A    between atoms: O_21  and  C_22
REMARK   10  A    between atoms: C_24  and  O_25
REMARK   11  A    between atoms: O_25  and  C_26
REMARK   12  A    between atoms: C_27  and  O_28
REMARK   13  A    between atoms: O_28  and  C_29
REMARK                            x       y       z     vdW  Elec       q    Type
REMARK                         _______ _______ _______ _____ _____    ______ ____
ROOT
ATOM      1  O   LIG A   1     -10.163   0.306 125.768  0.00  0.00    -0.283 OA
ATOM      2  C   LIG A   1      -8.924   0.280 125.702  0.00  0.00    +0.238 A 
ATOM      3  C   LIG A   1      -8.181  -0.869 125.157  0.00  0.00    +0.109 A 
ATOM      4  C   LIG A   1      -8.617  -1.721 124.127  0.00  0.00    +0.138 A 
ATOM      5  C   LIG A   1      -7.792  -2.794 123.744  0.00  0.00    +0.092 A 
ATOM      6  C   LIG A   1      -6.602  -3.068 124.423  0.00  0.00    +0.127 A 
ATOM      7  C   LIG A   1      -6.171  -2.199 125.414  0.00  0.00    +0.092 A 
ATOM      8  C   LIG A   1      -6.943  -1.100 125.759  0.00  0.00    +0.147 A 
ATOM      9  O   LIG A   1      -6.401  -0.267 126.701  0.00  0.00    -0.451 OA
ATOM     10  C   LIG A   1      -6.888   1.019 126.738  0.00  0.00    +0.184 A 
ATOM     11  C   LIG A   1      -8.082   1.393 126.241  0.00  0.00    +0.211 A 
ENDROOT
BRANCH  10  12
ATOM     12  C   LIG A   1      -5.960   1.980 127.341  0.00  0.00    +0.066 A 
ATOM     13  C   LIG A   1      -4.877   2.414 126.560  0.00  0.00    +0.064 A 
ATOM     14  C   LIG A   1      -3.952   3.339 127.055  0.00  0.00    +0.162 A 
ATOM     15  C   LIG A   1      -4.122   3.849 128.352  0.00  0.00    +0.165 A 
ATOM     16  C   LIG A   1      -5.207   3.414 129.121  0.00  0.00    +0.095 A 
ATOM     17  C   LIG A   1      -6.127   2.483 128.637  0.00  0.00    +0.135 A 
BRANCH  14  18
ATOM     18  O   LIG A   1      -2.885   3.787 126.313  0.00  0.00    -0.491 OA
ATOM     19  C   LIG A   1      -1.695   3.008 126.436  0.00  0.00    +0.277 C 
ENDBRANCH  14  18
BRANCH  15  20
ATOM     20  O   LIG A   1      -3.228   4.785 128.817  0.00  0.00    -0.491 OA
ATOM     21  C   LIG A   1      -3.703   6.133 128.838  0.00  0.00    +0.277 C 
ENDBRANCH  15  20
BRANCH  17  22
ATOM     22  O   LIG A   1      -7.207   2.040 129.363  0.00  0.00    -0.494 OA
ATOM     23  C   LIG A   1      -7.321   2.540 130.693  0.00  0.00    +0.277 C 
ENDBRANCH  17  22
ENDBRANCH  10  12
BRANCH   4  24
ATOM     24  O   LIG A   1      -9.798  -1.440 123.482  0.00  0.00    -0.494 OA
ATOM     25  C   LIG A   1      -9.686  -0.564 122.358  0.00  0.00    +0.277 C 
ENDBRANCH   4  24
BRANCH   6  26
ATOM     26  O   LIG A   1      -5.899  -4.175 124.030  0.00  0.00    -0.495 OA
ATOM     27  C   LIG A   1      -4.543  -3.906 123.665  0.00  0.00    +0.277 C 
ENDBRANCH   6  26
BRANCH  11  28
ATOM     28  O   LIG A   1      -8.488   2.714 126.256  0.00  0.00    -0.488 OA
ATOM     29  C   LIG A   1      -8.404   3.402 125.013  0.00  0.00    +0.277 C 
ENDBRANCH  11  28
TORSDOF 7
ENDMDL
MODEL 6
REMARK VINA RESULT:      -6.2      2.205      4.161
REMARK  Name = NuBBE_1888
REMARK  13 active torsions:
REMARK  status: ('A' for Active; 'I' for Inactive)
REMARK    1  A    between atoms: C_4  and  O_5
REMARK    2  A    between atoms: O_5  and  C_6
REMARK    3  A    between atoms: C_8  and  O_9
REMARK    4  A    between atoms: O_9  and  C_10
REMARK    5  A    between atoms: C_14  and  C_15
REMARK    6  A    between atoms: C_17  and  O_18
REMARK    7  A    between atoms: O_18  and  C_19
REMARK    8  A    between atoms: C_20  and  O_21
REMARK    9  A    between atoms: O_21  and  C_22
REMARK   10  A    between atoms: C_24  and  O_25
REMARK   11  A    between atoms: O_25  and  C_26
REMARK   12  A    between atoms: C_27  and  O_28
REMARK   13  A    between atoms: O_28  and  C_29
REMARK                            x       y       z     vdW  Elec       q    Type
REMARK                         _______ _______ _______ _____ _____    ______ ____
ROOT
ATOM      1  O   LIG A   1      -5.395  -0.511 125.653  0.00  0.00    -0.283 OA
ATOM      2  C   LIG A   1      -5.742   0.678 125.734  0.00  0.00    +0.238 A 
ATOM      3  C   LIG A   1      -6.671   1.302 124.776  0.00  0.00    +0.109 A 
ATOM      4  C   LIG A   1      -7.733   0.659 124.117  0.00  0.00    +0.138 A 
ATOM      5  C   LIG A   1      -8.510   1.398 123.208  0.00  0.00    +0.092 A 
ATOM      6  C   LIG A   1      -8.190   2.722 122.895  0.00  0.00    +0.127 A 
ATOM      7  C   LIG A   1      -7.161   3.351 123.578  0.00  0.00    +0.092 A 
ATOM      8  C   LIG A   1      -6.427   2.653 124.524  0.00  0.00    +0.147 A 
ATOM      9  O   LIG A   1      -5.476   3.379 125.191  0.00  0.00    -0.451 OA
ATOM     10  C   LIG A   1      -5.058   2.881 126.403  0.00  0.00    +0.184 A 
ATOM     11  C   LIG A   1      -5.183   1.593 126.777  0.00  0.00    +0.211 A 
ENDROOT
BRANCH  10  12
ATOM     12  C   LIG A   1      -4.490   3.898 127.291  0.00  0.00    +0.066 A 
ATOM     13  C   LIG A   1      -5.333   4.450 128.268  0.00  0.00    +0.064 A 
ATOM     14  C   LIG A   1      -4.867   5.419 129.163  0.00  0.00    +0.162 A 
ATOM     15  C   LIG A   1      -3.527   5.832 129.088  0.00  0.00    +0.165 A 
ATOM     16  C   LIG A   1      -2.694   5.272 128.114  0.00  0.00    +0.095 A 
ATOM     17  C   LIG A   1      -3.155   4.314 127.210  0.00  0.00    +0.135 A 
BRANCH  14  18
ATOM     18  O   LIG A   1      -5.667   5.974 130.134  0.00  0.00    -0.491 OA
ATOM     19  C   LIG A   1      -6.950   5.366 130.279  0.00  0.00    +0.277 C 
ENDBRANCH  14  18
BRANCH  15  20
ATOM     20  O   LIG A   1      -3.068   6.757 129.996  0.00  0.00    -0.491 OA
ATOM     21  C   LIG A   1      -1.859   6.408 130.673  0.00  0.00    +0.277 C 
ENDBRANCH  15  20
BRANCH  17  22
ATOM     22  O   LIG A   1      -2.362   3.739 126.247  0.00  0.00    -0.494 OA
ATOM     23  C   LIG A   1      -1.360   2.836 126.710  0.00  0.00    +0.277 C 
ENDBRANCH  17  22
ENDBRANCH  10  12
BRANCH   4  24
ATOM     24  O   LIG A   1      -8.021  -0.648 124.432  0.00  0.00    -0.494 OA
ATOM     25  C   LIG A   1      -8.859  -1.331 123.497  0.00  0.00    +0.277 C 
ENDBRANCH   4  24
BRANCH   6  26
ATOM     26  O   LIG A   1      -8.958   3.342 121.945  0.00  0.00    -0.495 OA
ATOM     27  C   LIG A   1      -8.234   3.731 120.774  0.00  0.00    +0.277 C 
ENDBRANCH   6  26
BRANCH  11  28
ATOM     28  O   LIG A   1      -4.797   1.167 128.034  0.00  0.00    -0.488 OA
ATOM     29  C   LIG A   1      -5.850   0.747 128.895  0.00  0.00    +0.277 C 
ENDBRANCH  11  28
TORSDOF 7
ENDMDL
MODEL 7
REMARK VINA RESULT:      -6.2      5.726      7.436
REMARK  Name = NuBBE_1888
REMARK  13 active torsions:
REMARK  status: ('A' for Active; 'I' for Inactive)
REMARK    1  A    between atoms: C_4  and  O_5
REMARK    2  A    between atoms: O_5  and  C_6
REMARK    3  A    between atoms: C_8  and  O_9
REMARK    4  A    between atoms: O_9  and  C_10
REMARK    5  A    between atoms: C_14  and  C_15
REMARK    6  A    between atoms: C_17  and  O_18
REMARK    7  A    between atoms: O_18  and  C_19
REMARK    8  A    between atoms: C_20  and  O_21
REMARK    9  A    between atoms: O_21  and  C_22
REMARK   10  A    between atoms: C_24  and  O_25
REMARK   11  A    between atoms: O_25  and  C_26
REMARK   12  A    between atoms: C_27  and  O_28
REMARK   13  A    between atoms: O_28  and  C_29
REMARK                            x       y       z     vdW  Elec       q    Type
REMARK                         _______ _______ _______ _____ _____    ______ ____
ROOT
ATOM      1  O   LIG A   1      -7.826   0.859 128.922  0.00  0.00    -0.283 OA
ATOM      2  C   LIG A   1      -7.513  -0.336 128.800  0.00  0.00    +0.238 A 
ATOM      3  C   LIG A   1      -7.899  -1.143 127.630  0.00  0.00    +0.109 A 
ATOM      4  C   LIG A   1      -8.048  -0.672 126.314  0.00  0.00    +0.138 A 
ATOM      5  C   LIG A   1      -8.452  -1.576 125.315  0.00  0.00    +0.092 A 
ATOM      6  C   LIG A   1      -8.782  -2.897 125.628  0.00  0.00    +0.127 A 
ATOM      7  C   LIG A   1      -8.598  -3.354 126.924  0.00  0.00    +0.092 A 
ATOM      8  C   LIG A   1      -8.140  -2.491 127.906  0.00  0.00    +0.147 A 
ATOM      9  O   LIG A   1      -7.928  -3.052 129.137  0.00  0.00    -0.451 OA
ATOM     10  C   LIG A   1      -7.075  -2.380 129.982  0.00  0.00    +0.184 A 
ATOM     11  C   LIG A   1      -6.776  -1.071 129.874  0.00  0.00    +0.211 A 
ENDROOT
BRANCH  10  12
ATOM     12  C   LIG A   1      -6.472  -3.234 131.008  0.00  0.00    +0.066 A 
ATOM     13  C   LIG A   1      -7.117  -3.308 132.253  0.00  0.00    +0.064 A 
ATOM     14  C   LIG A   1      -6.613  -4.108 133.284  0.00  0.00    +0.162 A 
ATOM     15  C   LIG A   1      -5.449  -4.860 133.059  0.00  0.00    +0.165 A 
ATOM     16  C   LIG A   1      -4.815  -4.783 131.814  0.00  0.00    +0.095 A 
ATOM     17  C   LIG A   1      -5.306  -3.978 130.785  0.00  0.00    +0.135 A 
BRANCH  14  18
ATOM     18  O   LIG A   1      -7.226  -4.205 134.510  0.00  0.00    -0.491 OA
ATOM     19  C   LIG A   1      -8.280  -3.269 134.735  0.00  0.00    +0.277 C 
ENDBRANCH  14  18
BRANCH  15  20
ATOM     20  O   LIG A   1      -4.981  -5.672 134.066  0.00  0.00    -0.491 OA
ATOM     21  C   LIG A   1      -3.616  -6.078 133.946  0.00  0.00    +0.277 C 
ENDBRANCH  15  20
BRANCH  17  22
ATOM     22  O   LIG A   1      -4.713  -3.886 129.549  0.00  0.00    -0.494 OA
ATOM     23  C   LIG A   1      -3.342  -3.493 129.534  0.00  0.00    +0.277 C 
ENDBRANCH  17  22
ENDBRANCH  10  12
BRANCH   4  24
ATOM     24  O   LIG A   1      -7.729   0.635 126.033  0.00  0.00    -0.494 OA
ATOM     25  C   LIG A   1      -8.790   1.418 125.482  0.00  0.00    +0.277 C 
ENDBRANCH   4  24
BRANCH   6  26
ATOM     26  O   LIG A   1      -9.236  -3.686 124.604  0.00  0.00    -0.495 OA
ATOM     27  C   LIG A   1      -9.328  -3.013 123.346  0.00  0.00    +0.277 C 
ENDBRANCH   6  26
BRANCH  11  28
ATOM     28  O   LIG A   1      -5.863  -0.468 130.720  0.00  0.00    -0.488 OA
ATOM     29  C   LIG A   1      -4.627  -0.088 130.126  0.00  0.00    +0.277 C 
ENDBRANCH  11  28
TORSDOF 7
ENDMDL
MODEL 8
REMARK VINA RESULT:      -6.2      3.145      5.993
REMARK  Name = NuBBE_1888
REMARK  13 active torsions:
REMARK  status: ('A' for Active; 'I' for Inactive)
REMARK    1  A    between atoms: C_4  and  O_5
REMARK    2  A    between atoms: O_5  and  C_6
REMARK    3  A    between atoms: C_8  and  O_9
REMARK    4  A    between atoms: O_9  and  C_10
REMARK    5  A    between atoms: C_14  and  C_15
REMARK    6  A    between atoms: C_17  and  O_18
REMARK    7  A    between atoms: O_18  and  C_19
REMARK    8  A    between atoms: C_20  and  O_21
REMARK    9  A    between atoms: O_21  and  C_22
REMARK   10  A    between atoms: C_24  and  O_25
REMARK   11  A    between atoms: O_25  and  C_26
REMARK   12  A    between atoms: C_27  and  O_28
REMARK   13  A    between atoms: O_28  and  C_29
REMARK                            x       y       z     vdW  Elec       q    Type
REMARK                         _______ _______ _______ _____ _____    ______ ____
ROOT
ATOM      1  O   LIG A   1      -6.155   5.071 126.368  0.00  0.00    -0.283 OA
ATOM      2  C   LIG A   1      -6.682   3.948 126.403  0.00  0.00    +0.238 A 
ATOM      3  C   LIG A   1      -7.386   3.364 125.248  0.00  0.00    +0.109 A 
ATOM      4  C   LIG A   1      -7.068   3.573 123.895  0.00  0.00    +0.138 A 
ATOM      5  C   LIG A   1      -7.863   2.959 122.912  0.00  0.00    +0.092 A 
ATOM      6  C   LIG A   1      -8.999   2.223 123.259  0.00  0.00    +0.127 A 
ATOM      7  C   LIG A   1      -9.280   1.999 124.598  0.00  0.00    +0.092 A 
ATOM      8  C   LIG A   1      -8.468   2.546 125.579  0.00  0.00    +0.147 A 
ATOM      9  O   LIG A   1      -8.789   2.214 126.868  0.00  0.00    -0.451 OA
ATOM     10  C   LIG A   1      -7.790   2.343 127.805  0.00  0.00    +0.184 A 
ATOM     11  C   LIG A   1      -6.705   3.126 127.653  0.00  0.00    +0.211 A 
ENDROOT
BRANCH  10  12
ATOM     12  C   LIG A   1      -7.986   1.507 128.991  0.00  0.00    +0.066 A 
ATOM     13  C   LIG A   1      -8.659   2.077 130.083  0.00  0.00    +0.064 A 
ATOM     14  C   LIG A   1      -8.897   1.343 131.251  0.00  0.00    +0.162 A 
ATOM     15  C   LIG A   1      -8.465   0.010 131.321  0.00  0.00    +0.165 A 
ATOM     16  C   LIG A   1      -7.799  -0.551 130.226  0.00  0.00    +0.095 A 
ATOM     17  C   LIG A   1      -7.548   0.178 129.062  0.00  0.00    +0.135 A 
BRANCH  14  18
ATOM     18  O   LIG A   1      -9.558   1.873 132.334  0.00  0.00    -0.491 OA
ATOM     19  C   LIG A   1      -8.790   2.779 133.126  0.00  0.00    +0.277 C 
ENDBRANCH  14  18
BRANCH  15  20
ATOM     20  O   LIG A   1      -8.736  -0.715 132.458  0.00  0.00    -0.491 OA
ATOM     21  C   LIG A   1      -7.661  -1.522 132.945  0.00  0.00    +0.277 C 
ENDBRANCH  15  20
BRANCH  17  22
ATOM     22  O   LIG A   1      -6.904  -0.344 127.967  0.00  0.00    -0.494 OA
ATOM     23  C   LIG A   1      -5.581  -0.829 128.184  0.00  0.00    +0.277 C 
ENDBRANCH  17  22
ENDBRANCH  10  12
BRANCH   4  24
ATOM     24  O   LIG A   1      -5.952   4.311 123.578  0.00  0.00    -0.494 OA
ATOM     25  C   LIG A   1      -5.477   4.155 122.239  0.00  0.00    +0.277 C 
ENDBRANCH   4  24
BRANCH   6  26
ATOM     26  O   LIG A   1      -9.756   1.722 122.233  0.00  0.00    -0.495 OA
ATOM     27  C   LIG A   1     -10.184   0.372 122.430  0.00  0.00    +0.277 C 
ENDBRANCH   6  26
BRANCH  11  28
ATOM     28  O   LIG A   1      -5.705   3.166 128.607  0.00  0.00    -0.488 OA
ATOM     29  C   LIG A   1      -4.437   2.668 128.196  0.00  0.00    +0.277 C 
ENDBRANCH  11  28
TORSDOF 7
ENDMDL
MODEL 9
REMARK VINA RESULT:      -6.2      2.662      8.568
REMARK  Name = NuBBE_1888
REMARK  13 active torsions:
REMARK  status: ('A' for Active; 'I' for Inactive)
REMARK    1  A    between atoms: C_4  and  O_5
REMARK    2  A    between atoms: O_5  and  C_6
REMARK    3  A    between atoms: C_8  and  O_9
REMARK    4  A    between atoms: O_9  and  C_10
REMARK    5  A    between atoms: C_14  and  C_15
REMARK    6  A    between atoms: C_17  and  O_18
REMARK    7  A    between atoms: O_18  and  C_19
REMARK    8  A    between atoms: C_20  and  O_21
REMARK    9  A    between atoms: O_21  and  C_22
REMARK   10  A    between atoms: C_24  and  O_25
REMARK   11  A    between atoms: O_25  and  C_26
REMARK   12  A    between atoms: C_27  and  O_28
REMARK   13  A    between atoms: O_28  and  C_29
REMARK                            x       y       z     vdW  Elec       q    Type
REMARK                         _______ _______ _______ _____ _____    ______ ____
ROOT
ATOM      1  O   LIG A   1      -5.415   3.819 129.729  0.00  0.00    -0.283 OA
ATOM      2  C   LIG A   1      -6.548   3.570 129.287  0.00  0.00    +0.238 A 
ATOM      3  C   LIG A   1      -7.764   4.216 129.810  0.00  0.00    +0.109 A 
ATOM      4  C   LIG A   1      -7.853   5.524 130.318  0.00  0.00    +0.138 A 
ATOM      5  C   LIG A   1      -9.091   5.977 130.806  0.00  0.00    +0.092 A 
ATOM      6  C   LIG A   1     -10.197   5.126 130.868  0.00  0.00    +0.127 A 
ATOM      7  C   LIG A   1     -10.103   3.850 130.333  0.00  0.00    +0.092 A 
ATOM      8  C   LIG A   1      -8.906   3.411 129.790  0.00  0.00    +0.147 A 
ATOM      9  O   LIG A   1      -8.931   2.162 129.229  0.00  0.00    -0.451 OA
ATOM     10  C   LIG A   1      -7.947   1.880 128.310  0.00  0.00    +0.184 A 
ATOM     11  C   LIG A   1      -6.773   2.536 128.230  0.00  0.00    +0.211 A 
ENDROOT
BRANCH  10  12
ATOM     12  C   LIG A   1      -8.305   0.809 127.377  0.00  0.00    +0.066 A 
ATOM     13  C   LIG A   1      -9.081   1.155 126.259  0.00  0.00    +0.064 A 
ATOM     14  C   LIG A   1      -9.457   0.194 125.314  0.00  0.00    +0.162 A 
ATOM     15  C   LIG A   1      -9.037  -1.134 125.484  0.00  0.00    +0.165 A 
ATOM     16  C   LIG A   1      -8.261  -1.468 126.599  0.00  0.00    +0.095 A 
ATOM     17  C   LIG A   1      -7.892  -0.518 127.552  0.00  0.00    +0.135 A 
BRANCH  14  18
ATOM     18  O   LIG A   1     -10.211   0.503 124.207  0.00  0.00    -0.491 OA
ATOM     19  C   LIG A   1      -9.652   1.505 123.356  0.00  0.00    +0.277 C 
ENDBRANCH  14  18
BRANCH  15  20
ATOM     20  O   LIG A   1      -9.381  -2.064 124.531  0.00  0.00    -0.491 OA
ATOM     21  C   LIG A   1      -8.743  -3.338 124.654  0.00  0.00    +0.277 C 
ENDBRANCH  15  20
BRANCH  17  22
ATOM     22  O   LIG A   1      -7.124  -0.810 128.653  0.00  0.00    -0.494 OA
ATOM     23  C   LIG A   1      -7.680  -1.738 129.582  0.00  0.00    +0.277 C 
ENDBRANCH  17  22
ENDBRANCH  10  12
BRANCH   4  24
ATOM     24  O   LIG A   1      -6.747   6.339 130.257  0.00  0.00    -0.494 OA
ATOM     25  C   LIG A   1      -6.183   6.698 131.520  0.00  0.00    +0.277 C 
ENDBRANCH   4  24
BRANCH   6  26
ATOM     26  O   LIG A   1     -11.342   5.629 131.426  0.00  0.00    -0.495 OA
ATOM     27  C   LIG A   1     -11.876   6.763 130.737  0.00  0.00    +0.277 C 
ENDBRANCH   6  26
BRANCH  11  28
ATOM     28  O   LIG A   1      -5.850   2.243 127.244  0.00  0.00    -0.488 OA
ATOM     29  C   LIG A   1      -5.709   3.219 126.218  0.00  0.00    +0.277 C 
ENDBRANCH  11  28
TORSDOF 7
ENDMDL
