MODEL 1
REMARK VINA RESULT:      -7.6      0.000      0.000
REMARK  Name = NuBBE_1080
REMARK  9 active torsions:
REMARK  status: ('A' for Active; 'I' for Inactive)
REMARK    1  A    between atoms: N_5  and  C_13
REMARK    2  A    between atoms: C_7  and  O_12
REMARK    3  A    between atoms: C_14  and  O_15
REMARK    4  A    between atoms: O_15  and  C_16
REMARK    5  A    between atoms: C_19  and  C_24
REMARK    6  A    between atoms: C_22  and  O_23
REMARK    7  A    between atoms: C_24  and  O_25
REMARK    8  A    between atoms: C_24  and  C_26
REMARK    9  A    between atoms: C_24  and  C_27
REMARK                            x       y       z     vdW  Elec       q    Type
REMARK                         _______ _______ _______ _____ _____    ______ ____
ROOT
ATOM      1  O   LIG A   1      -8.073   5.754 134.552  0.00  0.00    -0.286 OA
ATOM      2  C   LIG A   1      -7.738   5.144 133.540  0.00  0.00    +0.201 A 
ATOM      3  C   LIG A   1      -8.301   5.437 132.192  0.00  0.00    +0.091 A 
ATOM      4  C   LIG A   1      -7.575   4.993 131.049  0.00  0.00    +0.102 A 
ATOM      5  N   LIG A   1      -6.363   4.228 131.228  0.00  0.00    -0.337 N 
ATOM      6  C   LIG A   1      -6.094   3.627 132.497  0.00  0.00    +0.095 A 
ATOM      7  C   LIG A   1      -5.195   2.556 132.617  0.00  0.00    +0.141 A 
ATOM      8  C   LIG A   1      -4.874   2.003 133.854  0.00  0.00    +0.047 A 
ATOM      9  C   LIG A   1      -5.476   2.502 135.007  0.00  0.00    +0.004 A 
ATOM     10  C   LIG A   1      -6.410   3.535 134.912  0.00  0.00    +0.014 A 
ATOM     11  C   LIG A   1      -6.726   4.078 133.658  0.00  0.00    +0.050 A 
ATOM     12  C   LIG A   1      -5.202   5.080 130.859  0.00  0.00    +0.149 C 
ATOM     13  C   LIG A   1      -8.073   5.268 129.743  0.00  0.00    +0.186 A 
ATOM     14  C   LIG A   1      -9.274   5.962 129.642  0.00  0.00    +0.171 A 
ATOM     15  O   LIG A   1      -9.911   6.315 128.474  0.00  0.00    -0.481 OA
ATOM     16  C   LIG A   1     -11.263   6.660 128.879  0.00  0.00    +0.209 C 
ATOM     17  C   LIG A   1     -11.185   7.136 130.334  0.00  0.00    +0.090 C 
ATOM     18  C   LIG A   1      -9.973   6.396 130.764  0.00  0.00    +0.044 A 
ATOM     19  C   LIG A   1      -9.497   6.153 132.040  0.00  0.00    +0.137 A 
ENDROOT
BRANCH  16  20
ATOM     20  C   LIG A   1     -11.856   7.699 127.899  0.00  0.00    +0.097 C 
ATOM     21  C   LIG A   1     -11.148   7.648 126.540  0.00  0.00    +0.045 C 
ATOM     22  C   LIG A   1     -13.358   7.479 127.705  0.00  0.00    +0.045 C 
BRANCH  20  23
ATOM     23  O   LIG A   1     -11.682   9.021 128.426  0.00  0.00    -0.386 OA
ATOM     24  H   LIG A   1     -10.733   9.124 128.624  0.00  0.00    +0.210 HD
ENDBRANCH  20  23
ENDBRANCH  16  20
BRANCH   7  25
ATOM     25  O   LIG A   1      -4.641   1.994 131.497  0.00  0.00    -0.505 OA
ATOM     26  H   LIG A   1      -4.824   1.037 131.578  0.00  0.00    +0.292 HD
ENDBRANCH   7  25
BRANCH  13  27
ATOM     27  O   LIG A   1      -7.327   4.794 128.694  0.00  0.00    -0.489 OA
ATOM     28  C   LIG A   1      -7.761   3.606 128.043  0.00  0.00    +0.277 C 
ENDBRANCH  13  27
BRANCH  19  29
ATOM     29  O   LIG A   1     -10.211   6.577 133.120  0.00  0.00    -0.506 OA
ATOM     30  H   LIG A   1     -10.019   7.508 133.309  0.00  0.00    +0.292 HD
ENDBRANCH  19  29
TORSDOF 5
ENDMDL
MODEL 2
REMARK VINA RESULT:      -7.3      4.247      6.372
REMARK  Name = NuBBE_1080
REMARK  9 active torsions:
REMARK  status: ('A' for Active; 'I' for Inactive)
REMARK    1  A    between atoms: N_5  and  C_13
REMARK    2  A    between atoms: C_7  and  O_12
REMARK    3  A    between atoms: C_14  and  O_15
REMARK    4  A    between atoms: O_15  and  C_16
REMARK    5  A    between atoms: C_19  and  C_24
REMARK    6  A    between atoms: C_22  and  O_23
REMARK    7  A    between atoms: C_24  and  O_25
REMARK    8  A    between atoms: C_24  and  C_26
REMARK    9  A    between atoms: C_24  and  C_27
REMARK                            x       y       z     vdW  Elec       q    Type
REMARK                         _______ _______ _______ _____ _____    ______ ____
ROOT
ATOM      1  O   LIG A   1      -7.446  -1.867 131.230  0.00  0.00    -0.286 OA
ATOM      2  C   LIG A   1      -7.838  -1.250 130.243  0.00  0.00    +0.201 A 
ATOM      3  C   LIG A   1      -8.085   0.219 130.249  0.00  0.00    +0.091 A 
ATOM      4  C   LIG A   1      -8.126   0.900 128.999  0.00  0.00    +0.102 A 
ATOM      5  N   LIG A   1      -7.987   0.147 127.773  0.00  0.00    -0.337 N 
ATOM      6  C   LIG A   1      -8.168  -1.270 127.797  0.00  0.00    +0.095 A 
ATOM      7  C   LIG A   1      -8.466  -1.983 126.626  0.00  0.00    +0.141 A 
ATOM      8  C   LIG A   1      -8.580  -3.371 126.621  0.00  0.00    +0.047 A 
ATOM      9  C   LIG A   1      -8.423  -4.078 127.812  0.00  0.00    +0.004 A 
ATOM     10  C   LIG A   1      -8.172  -3.390 129.000  0.00  0.00    +0.014 A 
ATOM     11  C   LIG A   1      -8.065  -1.991 128.989  0.00  0.00    +0.050 A 
ATOM     12  C   LIG A   1      -6.655   0.440 127.182  0.00  0.00    +0.149 C 
ATOM     13  C   LIG A   1      -8.344   2.307 128.964  0.00  0.00    +0.186 A 
ATOM     14  C   LIG A   1      -8.524   2.963 130.178  0.00  0.00    +0.171 A 
ATOM     15  O   LIG A   1      -8.750   4.311 130.346  0.00  0.00    -0.481 OA
ATOM     16  C   LIG A   1      -9.244   4.436 131.707  0.00  0.00    +0.209 C 
ATOM     17  C   LIG A   1      -8.664   3.261 132.501  0.00  0.00    +0.090 C 
ATOM     18  C   LIG A   1      -8.479   2.290 131.394  0.00  0.00    +0.044 A 
ATOM     19  C   LIG A   1      -8.251   0.927 131.449  0.00  0.00    +0.137 A 
ENDROOT
BRANCH  16  20
ATOM     20  C   LIG A   1      -8.879   5.830 132.271  0.00  0.00    +0.097 C 
ATOM     21  C   LIG A   1      -7.673   5.748 133.215  0.00  0.00    +0.045 C 
ATOM     22  C   LIG A   1      -8.585   6.820 131.143  0.00  0.00    +0.045 C 
BRANCH  20  23
ATOM     23  O   LIG A   1      -9.981   6.354 133.024  0.00  0.00    -0.386 OA
ATOM     24  H   LIG A   1     -10.494   5.588 133.345  0.00  0.00    +0.210 HD
ENDBRANCH  20  23
ENDBRANCH  16  20
BRANCH   7  25
ATOM     25  O   LIG A   1      -8.700  -1.315 125.453  0.00  0.00    -0.505 OA
ATOM     26  H   LIG A   1      -8.108  -1.737 124.799  0.00  0.00    +0.292 HD
ENDBRANCH   7  25
BRANCH  13  27
ATOM     27  O   LIG A   1      -8.385   2.888 127.722  0.00  0.00    -0.489 OA
ATOM     28  C   LIG A   1      -7.417   3.883 127.413  0.00  0.00    +0.277 C 
ENDBRANCH  13  27
BRANCH  19  29
ATOM     29  O   LIG A   1      -8.227   0.293 132.655  0.00  0.00    -0.506 OA
ATOM     30  H   LIG A   1      -9.045  -0.210 132.789  0.00  0.00    +0.292 HD
ENDBRANCH  19  29
TORSDOF 5
ENDMDL
MODEL 3
REMARK VINA RESULT:      -7.2      4.952      7.533
REMARK  Name = NuBBE_1080
REMARK  9 active torsions:
REMARK  status: ('A' for Active; 'I' for Inactive)
REMARK    1  A    between atoms: N_5  and  C_13
REMARK    2  A    between atoms: C_7  and  O_12
REMARK    3  A    between atoms: C_14  and  O_15
REMARK    4  A    between atoms: O_15  and  C_16
REMARK    5  A    between atoms: C_19  and  C_24
REMARK    6  A    between atoms: C_22  and  O_23
REMARK    7  A    between atoms: C_24  and  O_25
REMARK    8  A    between atoms: C_24  and  C_26
REMARK    9  A    between atoms: C_24  and  C_27
REMARK                            x       y       z     vdW  Elec       q    Type
REMARK                         _______ _______ _______ _____ _____    ______ ____
ROOT
ATOM      1  O   LIG A   1      -8.420   3.691 128.422  0.00  0.00    -0.286 OA
ATOM      2  C   LIG A   1      -8.309   2.634 129.038  0.00  0.00    +0.201 A 
ATOM      3  C   LIG A   1      -8.204   1.310 128.363  0.00  0.00    +0.091 A 
ATOM      4  C   LIG A   1      -7.668   0.218 129.105  0.00  0.00    +0.102 A 
ATOM      5  N   LIG A   1      -7.302   0.408 130.490  0.00  0.00    -0.337 N 
ATOM      6  C   LIG A   1      -7.797   1.549 131.195  0.00  0.00    +0.095 A 
ATOM      7  C   LIG A   1      -7.838   1.573 132.597  0.00  0.00    +0.141 A 
ATOM      8  C   LIG A   1      -8.256   2.701 133.299  0.00  0.00    +0.047 A 
ATOM      9  C   LIG A   1      -8.671   3.832 132.599  0.00  0.00    +0.004 A 
ATOM     10  C   LIG A   1      -8.683   3.819 131.203  0.00  0.00    +0.014 A 
ATOM     11  C   LIG A   1      -8.265   2.674 130.511  0.00  0.00    +0.050 A 
ATOM     12  C   LIG A   1      -5.820   0.398 130.597  0.00  0.00    +0.149 C 
ATOM     13  C   LIG A   1      -7.538  -1.061 128.490  0.00  0.00    +0.186 A 
ATOM     14  C   LIG A   1      -7.961  -1.189 127.171  0.00  0.00    +0.171 A 
ATOM     15  O   LIG A   1      -7.918  -2.339 126.414  0.00  0.00    -0.481 OA
ATOM     16  C   LIG A   1      -8.796  -2.072 125.288  0.00  0.00    +0.209 C 
ATOM     17  C   LIG A   1      -8.798  -0.555 125.073  0.00  0.00    +0.090 C 
ATOM     18  C   LIG A   1      -8.479  -0.116 126.454  0.00  0.00    +0.044 A 
ATOM     19  C   LIG A   1      -8.597   1.137 127.028  0.00  0.00    +0.137 A 
ENDROOT
BRANCH  16  20
ATOM     20  C   LIG A   1      -8.336  -2.891 124.058  0.00  0.00    +0.097 C 
ATOM     21  C   LIG A   1      -9.535  -3.394 123.245  0.00  0.00    +0.045 C 
ATOM     22  C   LIG A   1      -7.415  -2.063 123.160  0.00  0.00    +0.045 C 
BRANCH  20  23
ATOM     23  O   LIG A   1      -7.594  -4.039 124.488  0.00  0.00    -0.386 OA
ATOM     24  H   LIG A   1      -7.280  -3.851 125.392  0.00  0.00    +0.210 HD
ENDBRANCH  20  23
ENDBRANCH  16  20
BRANCH   7  25
ATOM     25  O   LIG A   1      -7.509   0.454 133.315  0.00  0.00    -0.505 OA
ATOM     26  H   LIG A   1      -6.900  -0.047 132.737  0.00  0.00    +0.292 HD
ENDBRANCH   7  25
BRANCH  13  27
ATOM     27  O   LIG A   1      -7.028  -2.065 129.274  0.00  0.00    -0.489 OA
ATOM     28  C   LIG A   1      -7.924  -3.054 129.765  0.00  0.00    +0.277 C 
ENDBRANCH  13  27
BRANCH  19  29
ATOM     29  O   LIG A   1      -9.122   2.165 126.305  0.00  0.00    -0.506 OA
ATOM     30  H   LIG A   1      -9.873   2.560 126.774  0.00  0.00    +0.292 HD
ENDBRANCH  19  29
TORSDOF 5
ENDMDL
MODEL 4
REMARK VINA RESULT:      -7.2      5.585      9.194
REMARK  Name = NuBBE_1080
REMARK  9 active torsions:
REMARK  status: ('A' for Active; 'I' for Inactive)
REMARK    1  A    between atoms: N_5  and  C_13
REMARK    2  A    between atoms: C_7  and  O_12
REMARK    3  A    between atoms: C_14  and  O_15
REMARK    4  A    between atoms: O_15  and  C_16
REMARK    5  A    between atoms: C_19  and  C_24
REMARK    6  A    between atoms: C_22  and  O_23
REMARK    7  A    between atoms: C_24  and  O_25
REMARK    8  A    between atoms: C_24  and  C_26
REMARK    9  A    between atoms: C_24  and  C_27
REMARK                            x       y       z     vdW  Elec       q    Type
REMARK                         _______ _______ _______ _____ _____    ______ ____
ROOT
ATOM      1  O   LIG A   1      -5.544  -2.599 126.266  0.00  0.00    -0.286 OA
ATOM      2  C   LIG A   1      -6.270  -1.719 125.811  0.00  0.00    +0.201 A 
ATOM      3  C   LIG A   1      -6.059  -0.270 126.085  0.00  0.00    +0.091 A 
ATOM      4  C   LIG A   1      -6.664   0.676 125.208  0.00  0.00    +0.102 A 
ATOM      5  N   LIG A   1      -7.504   0.210 124.128  0.00  0.00    -0.337 N 
ATOM      6  C   LIG A   1      -8.005  -1.129 124.157  0.00  0.00    +0.095 A 
ATOM      7  C   LIG A   1      -9.128  -1.500 123.402  0.00  0.00    +0.141 A 
ATOM      8  C   LIG A   1      -9.588  -2.814 123.369  0.00  0.00    +0.047 A 
ATOM      9  C   LIG A   1      -8.937  -3.789 124.122  0.00  0.00    +0.004 A 
ATOM     10  C   LIG A   1      -7.846  -3.438 124.919  0.00  0.00    +0.014 A 
ATOM     11  C   LIG A   1      -7.399  -2.109 124.945  0.00  0.00    +0.050 A 
ATOM     12  C   LIG A   1      -6.786   0.414 122.843  0.00  0.00    +0.149 C 
ATOM     13  C   LIG A   1      -6.473   2.070 125.427  0.00  0.00    +0.186 A 
ATOM     14  C   LIG A   1      -5.697   2.452 126.518  0.00  0.00    +0.171 A 
ATOM     15  O   LIG A   1      -5.404   3.744 126.892  0.00  0.00    -0.481 OA
ATOM     16  C   LIG A   1      -4.916   3.633 128.256  0.00  0.00    +0.209 C 
ATOM     17  C   LIG A   1      -4.315   2.231 128.401  0.00  0.00    +0.090 C 
ATOM     18  C   LIG A   1      -5.107   1.521 127.366  0.00  0.00    +0.044 A 
ATOM     19  C   LIG A   1      -5.267   0.163 127.159  0.00  0.00    +0.137 A 
ENDROOT
BRANCH  16  20
ATOM     20  C   LIG A   1      -3.928   4.785 128.555  0.00  0.00    +0.097 C 
ATOM     21  C   LIG A   1      -3.546   4.817 130.040  0.00  0.00    +0.045 C 
ATOM     22  C   LIG A   1      -2.666   4.664 127.700  0.00  0.00    +0.045 C 
BRANCH  20  23
ATOM     23  O   LIG A   1      -4.538   6.043 128.240  0.00  0.00    -0.386 OA
ATOM     24  H   LIG A   1      -5.405   5.845 127.840  0.00  0.00    +0.210 HD
ENDBRANCH  20  23
ENDBRANCH  16  20
BRANCH   7  25
ATOM     25  O   LIG A   1      -9.835  -0.553 122.709  0.00  0.00    -0.505 OA
ATOM     26  H   LIG A   1     -10.670  -0.446 123.206  0.00  0.00    +0.292 HD
ENDBRANCH   7  25
BRANCH  13  27
ATOM     27  O   LIG A   1      -7.101   2.917 124.550  0.00  0.00    -0.489 OA
ATOM     28  C   LIG A   1      -8.299   3.556 124.974  0.00  0.00    +0.277 C 
ENDBRANCH  13  27
BRANCH  19  29
ATOM     29  O   LIG A   1      -4.688  -0.725 128.015  0.00  0.00    -0.506 OA
ATOM     30  H   LIG A   1      -4.396  -1.516 127.537  0.00  0.00    +0.292 HD
ENDBRANCH  19  29
TORSDOF 5
ENDMDL
MODEL 5
REMARK VINA RESULT:      -7.2      5.581     10.098
REMARK  Name = NuBBE_1080
REMARK  9 active torsions:
REMARK  status: ('A' for Active; 'I' for Inactive)
REMARK    1  A    between atoms: N_5  and  C_13
REMARK    2  A    between atoms: C_7  and  O_12
REMARK    3  A    between atoms: C_14  and  O_15
REMARK    4  A    between atoms: O_15  and  C_16
REMARK    5  A    between atoms: C_19  and  C_24
REMARK    6  A    between atoms: C_22  and  O_23
REMARK    7  A    between atoms: C_24  and  O_25
REMARK    8  A    between atoms: C_24  and  C_26
REMARK    9  A    between atoms: C_24  and  C_27
REMARK                            x       y       z     vdW  Elec       q    Type
REMARK                         _______ _______ _______ _____ _____    ______ ____
ROOT
ATOM      1  O   LIG A   1      -8.415  -2.670 124.459  0.00  0.00    -0.286 OA
ATOM      2  C   LIG A   1      -8.504  -1.600 125.054  0.00  0.00    +0.201 A 
ATOM      3  C   LIG A   1      -8.173  -1.444 126.498  0.00  0.00    +0.091 A 
ATOM      4  C   LIG A   1      -7.902  -0.134 126.989  0.00  0.00    +0.102 A 
ATOM      5  N   LIG A   1      -8.014   0.998 126.098  0.00  0.00    -0.337 N 
ATOM      6  C   LIG A   1      -8.722   0.852 124.865  0.00  0.00    +0.095 A 
ATOM      7  C   LIG A   1      -9.224   1.969 124.180  0.00  0.00    +0.141 A 
ATOM      8  C   LIG A   1      -9.858   1.849 122.947  0.00  0.00    +0.047 A 
ATOM      9  C   LIG A   1     -10.028   0.587 122.381  0.00  0.00    +0.004 A 
ATOM     10  C   LIG A   1      -9.580  -0.546 123.063  0.00  0.00    +0.014 A 
ATOM     11  C   LIG A   1      -8.948  -0.408 124.307  0.00  0.00    +0.050 A 
ATOM     12  C   LIG A   1      -6.649   1.504 125.797  0.00  0.00    +0.149 C 
ATOM     13  C   LIG A   1      -7.566   0.053 128.361  0.00  0.00    +0.186 A 
ATOM     14  C   LIG A   1      -7.530  -1.073 129.177  0.00  0.00    +0.171 A 
ATOM     15  O   LIG A   1      -7.231  -1.091 130.521  0.00  0.00    -0.481 OA
ATOM     16  C   LIG A   1      -7.692  -2.389 130.984  0.00  0.00    +0.209 C 
ATOM     17  C   LIG A   1      -7.635  -3.337 129.782  0.00  0.00    +0.090 C 
ATOM     18  C   LIG A   1      -7.792  -2.348 128.688  0.00  0.00    +0.044 A 
ATOM     19  C   LIG A   1      -8.102  -2.553 127.355  0.00  0.00    +0.137 A 
ENDROOT
BRANCH  16  20
ATOM     20  C   LIG A   1      -6.846  -2.844 132.197  0.00  0.00    +0.097 C 
ATOM     21  C   LIG A   1      -7.736  -3.202 133.393  0.00  0.00    +0.045 C 
ATOM     22  C   LIG A   1      -5.964  -4.040 131.835  0.00  0.00    +0.045 C 
BRANCH  20  23
ATOM     23  O   LIG A   1      -5.976  -1.781 132.610  0.00  0.00    -0.386 OA
ATOM     24  H   LIG A   1      -5.097  -2.176 132.757  0.00  0.00    +0.210 HD
ENDBRANCH  20  23
ENDBRANCH  16  20
BRANCH   7  25
ATOM     25  O   LIG A   1      -9.140   3.216 124.741  0.00  0.00    -0.505 OA
ATOM     26  H   LIG A   1      -8.843   3.060 125.660  0.00  0.00    +0.292 HD
ENDBRANCH   7  25
BRANCH  13  27
ATOM     27  O   LIG A   1      -7.335   1.345 128.761  0.00  0.00    -0.489 OA
ATOM     28  C   LIG A   1      -8.375   2.033 129.446  0.00  0.00    +0.277 C 
ENDBRANCH  13  27
BRANCH  19  29
ATOM     29  O   LIG A   1      -8.369  -3.811 126.908  0.00  0.00    -0.506 OA
ATOM     30  H   LIG A   1      -7.910  -4.468 127.454  0.00  0.00    +0.292 HD
ENDBRANCH  19  29
TORSDOF 5
ENDMDL
MODEL 6
REMARK VINA RESULT:      -7.1      4.949      8.073
REMARK  Name = NuBBE_1080
REMARK  9 active torsions:
REMARK  status: ('A' for Active; 'I' for Inactive)
REMARK    1  A    between atoms: N_5  and  C_13
REMARK    2  A    between atoms: C_7  and  O_12
REMARK    3  A    between atoms: C_14  and  O_15
REMARK    4  A    between atoms: O_15  and  C_16
REMARK    5  A    between atoms: C_19  and  C_24
REMARK    6  A    between atoms: C_22  and  O_23
REMARK    7  A    between atoms: C_24  and  O_25
REMARK    8  A    between atoms: C_24  and  C_26
REMARK    9  A    between atoms: C_24  and  C_27
REMARK                            x       y       z     vdW  Elec       q    Type
REMARK                         _______ _______ _______ _____ _____    ______ ____
ROOT
ATOM      1  O   LIG A   1      -6.982  -2.406 127.610  0.00  0.00    -0.286 OA
ATOM      2  C   LIG A   1      -7.628  -1.631 126.910  0.00  0.00    +0.201 A 
ATOM      3  C   LIG A   1      -7.850  -0.203 127.271  0.00  0.00    +0.091 A 
ATOM      4  C   LIG A   1      -8.231   0.701 126.238  0.00  0.00    +0.102 A 
ATOM      5  N   LIG A   1      -8.446   0.203 124.899  0.00  0.00    -0.337 N 
ATOM      6  C   LIG A   1      -8.626  -1.200 124.694  0.00  0.00    +0.095 A 
ATOM      7  C   LIG A   1      -9.244  -1.690 123.533  0.00  0.00    +0.141 A 
ATOM      8  C   LIG A   1      -9.369  -3.055 123.289  0.00  0.00    +0.047 A 
ATOM      9  C   LIG A   1      -8.892  -3.968 124.228  0.00  0.00    +0.004 A 
ATOM     10  C   LIG A   1      -8.314  -3.508 125.413  0.00  0.00    +0.014 A 
ATOM     11  C   LIG A   1      -8.202  -2.130 125.646  0.00  0.00    +0.050 A 
ATOM     12  C   LIG A   1      -7.329   0.664 124.034  0.00  0.00    +0.149 C 
ATOM     13  C   LIG A   1      -8.437   2.077 126.542  0.00  0.00    +0.186 A 
ATOM     14  C   LIG A   1      -8.266   2.481 127.862  0.00  0.00    +0.171 A 
ATOM     15  O   LIG A   1      -8.424   3.760 128.346  0.00  0.00    -0.481 OA
ATOM     16  C   LIG A   1      -8.518   3.601 129.788  0.00  0.00    +0.209 C 
ATOM     17  C   LIG A   1      -7.751   2.324 130.146  0.00  0.00    +0.090 C 
ATOM     18  C   LIG A   1      -7.891   1.592 128.863  0.00  0.00    +0.044 A 
ATOM     19  C   LIG A   1      -7.668   0.255 128.585  0.00  0.00    +0.137 A 
ENDROOT
BRANCH  16  20
ATOM     20  C   LIG A   1      -7.998   4.877 130.491  0.00  0.00    +0.097 C 
ATOM     21  C   LIG A   1      -9.131   5.884 130.724  0.00  0.00    +0.045 C 
ATOM     22  C   LIG A   1      -7.330   4.536 131.824  0.00  0.00    +0.045 C 
BRANCH  20  23
ATOM     23  O   LIG A   1      -7.013   5.518 129.670  0.00  0.00    -0.386 OA
ATOM     24  H   LIG A   1      -7.492   5.955 128.942  0.00  0.00    +0.210 HD
ENDBRANCH  20  23
ENDBRANCH  16  20
BRANCH   7  25
ATOM     25  O   LIG A   1      -9.789  -0.822 122.625  0.00  0.00    -0.505 OA
ATOM     26  H   LIG A   1     -10.521  -1.319 122.207  0.00  0.00    +0.292 HD
ENDBRANCH   7  25
BRANCH  13  27
ATOM     27  O   LIG A   1      -8.817   2.882 125.497  0.00  0.00    -0.489 OA
ATOM     28  C   LIG A   1      -7.959   3.954 125.128  0.00  0.00    +0.277 C 
ENDBRANCH  13  27
BRANCH  19  29
ATOM     29  O   LIG A   1      -7.316  -0.595 129.589  0.00  0.00    -0.506 OA
ATOM     30  H   LIG A   1      -6.577  -1.159 129.312  0.00  0.00    +0.292 HD
ENDBRANCH  19  29
TORSDOF 5
ENDMDL
MODEL 7
REMARK VINA RESULT:      -7.1      2.053      6.976
REMARK  Name = NuBBE_1080
REMARK  9 active torsions:
REMARK  status: ('A' for Active; 'I' for Inactive)
REMARK    1  A    between atoms: N_5  and  C_13
REMARK    2  A    between atoms: C_7  and  O_12
REMARK    3  A    between atoms: C_14  and  O_15
REMARK    4  A    between atoms: O_15  and  C_16
REMARK    5  A    between atoms: C_19  and  C_24
REMARK    6  A    between atoms: C_22  and  O_23
REMARK    7  A    between atoms: C_24  and  O_25
REMARK    8  A    between atoms: C_24  and  C_26
REMARK    9  A    between atoms: C_24  and  C_27
REMARK                            x       y       z     vdW  Elec       q    Type
REMARK                         _______ _______ _______ _____ _____    ______ ____
ROOT
ATOM      1  O   LIG A   1     -10.885   6.296 132.766  0.00  0.00    -0.286 OA
ATOM      2  C   LIG A   1     -10.164   6.339 131.773  0.00  0.00    +0.201 A 
ATOM      3  C   LIG A   1      -8.712   6.008 131.811  0.00  0.00    +0.091 A 
ATOM      4  C   LIG A   1      -8.065   5.680 130.584  0.00  0.00    +0.102 A 
ATOM      5  N   LIG A   1      -8.811   5.736 129.348  0.00  0.00    -0.337 N 
ATOM      6  C   LIG A   1     -10.051   6.445 129.310  0.00  0.00    +0.095 A 
ATOM      7  C   LIG A   1     -10.594   6.893 128.096  0.00  0.00    +0.141 A 
ATOM      8  C   LIG A   1     -11.833   7.527 128.035  0.00  0.00    +0.047 A 
ATOM      9  C   LIG A   1     -12.548   7.751 129.210  0.00  0.00    +0.004 A 
ATOM     10  C   LIG A   1     -12.010   7.357 130.437  0.00  0.00    +0.014 A 
ATOM     11  C   LIG A   1     -10.759   6.725 130.481  0.00  0.00    +0.050 A 
ATOM     12  C   LIG A   1      -9.049   4.349 128.871  0.00  0.00    +0.149 C 
ATOM     13  C   LIG A   1      -6.681   5.342 130.581  0.00  0.00    +0.186 A 
ATOM     14  C   LIG A   1      -6.009   5.361 131.799  0.00  0.00    +0.171 A 
ATOM     15  O   LIG A   1      -4.677   5.069 131.995  0.00  0.00    -0.481 OA
ATOM     16  C   LIG A   1      -4.375   5.590 133.317  0.00  0.00    +0.209 C 
ATOM     17  C   LIG A   1      -5.685   5.571 134.113  0.00  0.00    +0.090 C 
ATOM     18  C   LIG A   1      -6.650   5.678 132.992  0.00  0.00    +0.044 A 
ATOM     19  C   LIG A   1      -7.997   5.991 133.018  0.00  0.00    +0.137 A 
ENDROOT
BRANCH  16  20
ATOM     20  C   LIG A   1      -3.229   4.771 133.955  0.00  0.00    +0.097 C 
ATOM     21  C   LIG A   1      -3.770   3.549 134.707  0.00  0.00    +0.045 C 
ATOM     22  C   LIG A   1      -2.221   4.319 132.897  0.00  0.00    +0.045 C 
BRANCH  20  23
ATOM     23  O   LIG A   1      -2.520   5.580 134.902  0.00  0.00    -0.386 OA
ATOM     24  H   LIG A   1      -1.569   5.444 134.735  0.00  0.00    +0.210 HD
ENDBRANCH  20  23
ENDBRANCH  16  20
BRANCH   7  25
ATOM     25  O   LIG A   1      -9.885   6.755 126.932  0.00  0.00    -0.505 OA
ATOM     26  H   LIG A   1      -9.125   7.363 127.026  0.00  0.00    +0.292 HD
ENDBRANCH   7  25
BRANCH  13  27
ATOM     27  O   LIG A   1      -6.126   5.055 129.360  0.00  0.00    -0.489 OA
ATOM     28  C   LIG A   1      -5.580   3.757 129.159  0.00  0.00    +0.277 C 
ENDBRANCH  13  27
BRANCH  19  29
ATOM     29  O   LIG A   1      -8.594   6.312 134.199  0.00  0.00    -0.506 OA
ATOM     30  H   LIG A   1      -9.005   7.188 134.144  0.00  0.00    +0.292 HD
ENDBRANCH  19  29
TORSDOF 5
ENDMDL
MODEL 8
REMARK VINA RESULT:      -7.0      3.819      4.655
REMARK  Name = NuBBE_1080
REMARK  9 active torsions:
REMARK  status: ('A' for Active; 'I' for Inactive)
REMARK    1  A    between atoms: N_5  and  C_13
REMARK    2  A    between atoms: C_7  and  O_12
REMARK    3  A    between atoms: C_14  and  O_15
REMARK    4  A    between atoms: O_15  and  C_16
REMARK    5  A    between atoms: C_19  and  C_24
REMARK    6  A    between atoms: C_22  and  O_23
REMARK    7  A    between atoms: C_24  and  O_25
REMARK    8  A    between atoms: C_24  and  C_26
REMARK    9  A    between atoms: C_24  and  C_27
REMARK                            x       y       z     vdW  Elec       q    Type
REMARK                         _______ _______ _______ _____ _____    ______ ____
ROOT
ATOM      1  O   LIG A   1      -7.291   0.047 133.154  0.00  0.00    -0.286 OA
ATOM      2  C   LIG A   1      -7.617   0.022 131.970  0.00  0.00    +0.201 A 
ATOM      3  C   LIG A   1      -8.209   1.194 131.266  0.00  0.00    +0.091 A 
ATOM      4  C   LIG A   1      -8.164   1.217 129.842  0.00  0.00    +0.102 A 
ATOM      5  N   LIG A   1      -7.607   0.091 129.129  0.00  0.00    -0.337 N 
ATOM      6  C   LIG A   1      -7.440  -1.155 129.808  0.00  0.00    +0.095 A 
ATOM      7  C   LIG A   1      -7.317  -2.358 129.096  0.00  0.00    +0.141 A 
ATOM      8  C   LIG A   1      -7.088  -3.572 129.740  0.00  0.00    +0.047 A 
ATOM      9  C   LIG A   1      -7.004  -3.607 131.131  0.00  0.00    +0.004 A 
ATOM     10  C   LIG A   1      -7.168  -2.432 131.866  0.00  0.00    +0.014 A 
ATOM     11  C   LIG A   1      -7.404  -1.219 131.203  0.00  0.00    +0.050 A 
ATOM     12  C   LIG A   1      -6.295   0.492 128.555  0.00  0.00    +0.149 C 
ATOM     13  C   LIG A   1      -8.706   2.328 129.134  0.00  0.00    +0.186 A 
ATOM     14  C   LIG A   1      -9.277   3.354 129.880  0.00  0.00    +0.171 A 
ATOM     15  O   LIG A   1      -9.852   4.500 129.377  0.00  0.00    -0.481 OA
ATOM     16  C   LIG A   1     -10.621   5.044 130.483  0.00  0.00    +0.209 C 
ATOM     17  C   LIG A   1      -9.943   4.570 131.773  0.00  0.00    +0.090 C 
ATOM     18  C   LIG A   1      -9.313   3.324 131.270  0.00  0.00    +0.044 A 
ATOM     19  C   LIG A   1      -8.776   2.263 131.976  0.00  0.00    +0.137 A 
ENDROOT
BRANCH  16  20
ATOM     20  C   LIG A   1     -10.724   6.581 130.344  0.00  0.00    +0.097 C 
ATOM     21  C   LIG A   1     -10.577   7.018 128.881  0.00  0.00    +0.045 C 
ATOM     22  C   LIG A   1     -12.051   7.096 130.905  0.00  0.00    +0.045 C 
BRANCH  20  23
ATOM     23  O   LIG A   1      -9.673   7.209 131.089  0.00  0.00    -0.386 OA
ATOM     24  H   LIG A   1      -9.857   8.167 131.086  0.00  0.00    +0.210 HD
ENDBRANCH  20  23
ENDBRANCH  16  20
BRANCH   7  25
ATOM     25  O   LIG A   1      -7.468  -2.371 127.735  0.00  0.00    -0.505 OA
ATOM     26  H   LIG A   1      -8.407  -2.147 127.582  0.00  0.00    +0.292 HD
ENDBRANCH   7  25
BRANCH  13  27
ATOM     27  O   LIG A   1      -8.639   2.270 127.765  0.00  0.00    -0.489 OA
ATOM     28  C   LIG A   1      -7.820   3.218 127.091  0.00  0.00    +0.277 C 
ENDBRANCH  13  27
BRANCH  19  29
ATOM     29  O   LIG A   1      -8.839   2.255 133.337  0.00  0.00    -0.506 OA
ATOM     30  H   LIG A   1      -9.141   1.391 133.657  0.00  0.00    +0.292 HD
ENDBRANCH  19  29
TORSDOF 5
ENDMDL
MODEL 9
REMARK VINA RESULT:      -7.0      6.126      7.630
REMARK  Name = NuBBE_1080
REMARK  9 active torsions:
REMARK  status: ('A' for Active; 'I' for Inactive)
REMARK    1  A    between atoms: N_5  and  C_13
REMARK    2  A    between atoms: C_7  and  O_12
REMARK    3  A    between atoms: C_14  and  O_15
REMARK    4  A    between atoms: O_15  and  C_16
REMARK    5  A    between atoms: C_19  and  C_24
REMARK    6  A    between atoms: C_22  and  O_23
REMARK    7  A    between atoms: C_24  and  O_25
REMARK    8  A    between atoms: C_24  and  C_26
REMARK    9  A    between atoms: C_24  and  C_27
REMARK                            x       y       z     vdW  Elec       q    Type
REMARK                         _______ _______ _______ _____ _____    ______ ____
ROOT
ATOM      1  O   LIG A   1      -8.247  -4.068 128.847  0.00  0.00    -0.286 OA
ATOM      2  C   LIG A   1      -7.445  -3.140 128.884  0.00  0.00    +0.201 A 
ATOM      3  C   LIG A   1      -7.536  -1.952 127.989  0.00  0.00    +0.091 A 
ATOM      4  C   LIG A   1      -6.844  -0.767 128.371  0.00  0.00    +0.102 A 
ATOM      5  N   LIG A   1      -6.035  -0.769 129.568  0.00  0.00    -0.337 N 
ATOM      6  C   LIG A   1      -5.650  -2.016 130.151  0.00  0.00    +0.095 A 
ATOM      7  C   LIG A   1      -4.554  -2.100 131.023  0.00  0.00    +0.141 A 
ATOM      8  C   LIG A   1      -4.205  -3.294 131.650  0.00  0.00    +0.047 A 
ATOM      9  C   LIG A   1      -4.943  -4.448 131.390  0.00  0.00    +0.004 A 
ATOM     10  C   LIG A   1      -6.010  -4.402 130.491  0.00  0.00    +0.014 A 
ATOM     11  C   LIG A   1      -6.344  -3.193 129.864  0.00  0.00    +0.050 A 
ATOM     12  C   LIG A   1      -6.720   0.043 130.608  0.00  0.00    +0.149 C 
ATOM     13  C   LIG A   1      -6.921   0.394 127.550  0.00  0.00    +0.186 A 
ATOM     14  C   LIG A   1      -7.673   0.312 126.382  0.00  0.00    +0.171 A 
ATOM     15  O   LIG A   1      -7.860   1.322 125.465  0.00  0.00    -0.481 OA
ATOM     16  C   LIG A   1      -8.370   0.654 124.279  0.00  0.00    +0.209 C 
ATOM     17  C   LIG A   1      -9.088  -0.613 124.755  0.00  0.00    +0.090 C 
ATOM     18  C   LIG A   1      -8.348  -0.848 126.019  0.00  0.00    +0.044 A 
ATOM     19  C   LIG A   1      -8.301  -1.981 126.813  0.00  0.00    +0.137 A 
ENDROOT
BRANCH  16  20
ATOM     20  C   LIG A   1      -9.260   1.628 123.471  0.00  0.00    +0.097 C 
ATOM     21  C   LIG A   1      -8.414   2.669 122.729  0.00  0.00    +0.045 C 
ATOM     22  C   LIG A   1     -10.138   0.871 122.473  0.00  0.00    +0.045 C 
BRANCH  20  23
ATOM     23  O   LIG A   1     -10.136   2.337 124.358  0.00  0.00    -0.386 OA
ATOM     24  H   LIG A   1     -10.048   1.919 125.236  0.00  0.00    +0.210 HD
ENDBRANCH  20  23
ENDBRANCH  16  20
BRANCH   7  25
ATOM     25  O   LIG A   1      -3.763  -1.004 131.244  0.00  0.00    -0.505 OA
ATOM     26  H   LIG A   1      -3.759  -0.886 132.214  0.00  0.00    +0.292 HD
ENDBRANCH   7  25
BRANCH  13  27
ATOM     27  O   LIG A   1      -6.215   1.491 127.976  0.00  0.00    -0.489 OA
ATOM     28  C   LIG A   1      -5.049   1.864 127.251  0.00  0.00    +0.277 C 
ENDBRANCH  13  27
BRANCH  19  29
ATOM     29  O   LIG A   1      -8.960  -3.107 126.424  0.00  0.00    -0.506 OA
ATOM     30  H   LIG A   1      -8.707  -3.858 126.982  0.00  0.00    +0.292 HD
ENDBRANCH  19  29
TORSDOF 5
ENDMDL
