MODEL 1
REMARK VINA RESULT:      -7.8      0.000      0.000
REMARK  Name = NuBBE_189
REMARK  7 active torsions:
REMARK  status: ('A' for Active; 'I' for Inactive)
REMARK    1  A    between atoms: O_1  and  C_2
REMARK    2  A    between atoms: C_4  and  O_28
REMARK    3  A    between atoms: C_6  and  C_7
REMARK    4  A    between atoms: C_6  and  C_27
REMARK    5  A    between atoms: C_10  and  C_12
REMARK    6  A    between atoms: C_17  and  C_18
REMARK    7  A    between atoms: C_17  and  O_19
REMARK                            x       y       z     vdW  Elec       q    Type
REMARK                         _______ _______ _______ _____ _____    ______ ____
ROOT
ATOM      1  C   LIG A   1      -6.797   4.645 125.498  0.00  0.00    +0.144 C 
ATOM      2  C   LIG A   1      -7.100   4.024 126.916  0.00  0.00    +0.149 C 
ATOM      3  C   LIG A   1      -6.898   2.497 126.546  0.00  0.00    -0.003 C 
ATOM      4  C   LIG A   1      -5.500   2.379 125.598  0.00  0.00    +0.014 C 
ATOM      5  C   LIG A   1      -8.353   2.180 125.819  0.00  0.00    +0.003 C 
ATOM      6  C   LIG A   1      -8.013   2.153 124.348  0.00  0.00    -0.023 C 
ATOM      7  C   LIG A   1      -7.466   3.803 124.290  0.00  0.00    +0.041 C 
ATOM      8  C   LIG A   1      -9.048   2.221 123.214  0.00  0.00    +0.012 C 
ATOM      9  C   LIG A   1      -9.281   1.090 126.307  0.00  0.00    +0.005 C 
ATOM     10  C   LIG A   1      -8.594  -0.222 126.254  0.00  0.00    +0.007 C 
ATOM     11  C   LIG A   1      -7.829  -0.373 124.939  0.00  0.00    -0.023 C 
ATOM     12  C   LIG A   1      -6.557  -1.784 125.438  0.00  0.00    +0.041 C 
ATOM     13  C   LIG A   1      -6.409  -2.883 123.889  0.00  0.00    +0.067 C 
ATOM     14  C   LIG A   1      -4.996  -2.883 123.285  0.00  0.00    +0.041 C 
ATOM     15  C   LIG A   1      -7.079   0.768 124.292  0.00  0.00    +0.002 C 
ATOM     16  C   LIG A   1      -6.857  -0.640 123.633  0.00  0.00    +0.005 C 
ATOM     17  C   LIG A   1      -8.184  -2.214 124.202  0.00  0.00    +0.006 C 
ATOM     18  C   LIG A   1      -7.892  -2.425 122.870  0.00  0.00    +0.021 C 
ATOM     19  C   LIG A   1      -8.858  -0.909 123.317  0.00  0.00    +0.013 C 
ATOM     20  C   LIG A   1      -6.391   1.648 127.707  0.00  0.00    +0.014 C 
ENDROOT
BRANCH   1  21
ATOM     21  O   LIG A   1      -6.380   5.877 124.936  0.00  0.00    -0.389 OA
ATOM     22  H   LIG A   1      -6.424   6.620 125.552  0.00  0.00    +0.210 HD
ENDBRANCH   1  21
BRANCH  13  23
ATOM     23  O   LIG A   1      -6.564  -4.297 124.242  0.00  0.00    -0.389 OA
ATOM     24  H   LIG A   1      -5.972  -4.790 123.652  0.00  0.00    +0.210 HD
ENDBRANCH  13  23
BRANCH   2  25
ATOM     25  O   LIG A   1      -8.374   4.262 127.518  0.00  0.00    -0.389 OA
ATOM     26  H   LIG A   1      -8.423   3.808 128.375  0.00  0.00    +0.210 HD
ENDBRANCH   2  25
TORSDOF 3
ENDMDL
MODEL 2
REMARK VINA RESULT:      -7.4      1.153      6.148
REMARK  Name = NuBBE_189
REMARK  7 active torsions:
REMARK  status: ('A' for Active; 'I' for Inactive)
REMARK    1  A    between atoms: O_1  and  C_2
REMARK    2  A    between atoms: C_4  and  O_28
REMARK    3  A    between atoms: C_6  and  C_7
REMARK    4  A    between atoms: C_6  and  C_27
REMARK    5  A    between atoms: C_10  and  C_12
REMARK    6  A    between atoms: C_17  and  C_18
REMARK    7  A    between atoms: C_17  and  O_19
REMARK                            x       y       z     vdW  Elec       q    Type
REMARK                         _______ _______ _______ _____ _____    ______ ____
ROOT
ATOM      1  C   LIG A   1      -6.156  -3.447 124.101  0.00  0.00    +0.144 C 
ATOM      2  C   LIG A   1      -7.711  -3.280 123.892  0.00  0.00    +0.149 C 
ATOM      3  C   LIG A   1      -7.789  -1.701 123.994  0.00  0.00    -0.003 C 
ATOM      4  C   LIG A   1      -6.509  -1.064 123.088  0.00  0.00    +0.014 C 
ATOM      5  C   LIG A   1      -7.738  -1.515 125.640  0.00  0.00    +0.003 C 
ATOM      6  C   LIG A   1      -6.325  -1.048 125.897  0.00  0.00    -0.023 C 
ATOM      7  C   LIG A   1      -5.575  -2.481 125.261  0.00  0.00    +0.041 C 
ATOM      8  C   LIG A   1      -5.650  -1.036 127.279  0.00  0.00    +0.012 C 
ATOM      9  C   LIG A   1      -8.825  -0.797 126.407  0.00  0.00    +0.005 C 
ATOM     10  C   LIG A   1      -8.953   0.598 125.922  0.00  0.00    +0.007 C 
ATOM     11  C   LIG A   1      -7.573   1.230 125.741  0.00  0.00    -0.023 C 
ATOM     12  C   LIG A   1      -8.021   2.697 124.515  0.00  0.00    +0.041 C 
ATOM     13  C   LIG A   1      -6.938   4.159 125.081  0.00  0.00    +0.067 C 
ATOM     14  C   LIG A   1      -5.921   4.600 124.017  0.00  0.00    +0.041 C 
ATOM     15  C   LIG A   1      -6.389   0.467 125.194  0.00  0.00    +0.002 C 
ATOM     16  C   LIG A   1      -6.166   2.011 125.378  0.00  0.00    +0.005 C 
ATOM     17  C   LIG A   1      -7.613   3.084 126.526  0.00  0.00    +0.006 C 
ATOM     18  C   LIG A   1      -6.397   3.680 126.792  0.00  0.00    +0.021 C 
ATOM     19  C   LIG A   1      -6.651   1.936 127.362  0.00  0.00    +0.013 C 
ATOM     20  C   LIG A   1      -8.910  -1.089 123.162  0.00  0.00    +0.014 C 
ENDROOT
BRANCH   1  21
ATOM     21  O   LIG A   1      -5.132  -4.385 123.818  0.00  0.00    -0.389 OA
ATOM     22  H   LIG A   1      -4.800  -4.844 124.600  0.00  0.00    +0.210 HD
ENDBRANCH   1  21
BRANCH  13  23
ATOM     23  O   LIG A   1      -7.744   5.375 125.222  0.00  0.00    -0.389 OA
ATOM     24  H   LIG A   1      -8.511   5.260 124.639  0.00  0.00    +0.210 HD
ENDBRANCH  13  23
BRANCH   2  25
ATOM     25  O   LIG A   1      -8.605  -3.918 124.807  0.00  0.00    -0.389 OA
ATOM     26  H   LIG A   1      -8.231  -3.893 125.703  0.00  0.00    +0.210 HD
ENDBRANCH   2  25
TORSDOF 3
ENDMDL
MODEL 3
REMARK VINA RESULT:      -7.1      3.274      4.868
REMARK  Name = NuBBE_189
REMARK  7 active torsions:
REMARK  status: ('A' for Active; 'I' for Inactive)
REMARK    1  A    between atoms: O_1  and  C_2
REMARK    2  A    between atoms: C_4  and  O_28
REMARK    3  A    between atoms: C_6  and  C_7
REMARK    4  A    between atoms: C_6  and  C_27
REMARK    5  A    between atoms: C_10  and  C_12
REMARK    6  A    between atoms: C_17  and  C_18
REMARK    7  A    between atoms: C_17  and  O_19
REMARK                            x       y       z     vdW  Elec       q    Type
REMARK                         _______ _______ _______ _____ _____    ______ ____
ROOT
ATOM      1  C   LIG A   1      -7.362   0.092 130.724  0.00  0.00    +0.144 C 
ATOM      2  C   LIG A   1      -5.902   0.266 130.153  0.00  0.00    +0.149 C 
ATOM      3  C   LIG A   1      -6.219  -0.009 128.625  0.00  0.00    -0.003 C 
ATOM      4  C   LIG A   1      -7.632   0.837 128.234  0.00  0.00    +0.014 C 
ATOM      5  C   LIG A   1      -6.287  -1.664 128.636  0.00  0.00    +0.003 C 
ATOM      6  C   LIG A   1      -7.767  -1.955 128.568  0.00  0.00    -0.023 C 
ATOM      7  C   LIG A   1      -8.146  -1.159 130.066  0.00  0.00    +0.041 C 
ATOM      8  C   LIG A   1      -8.400  -3.323 128.874  0.00  0.00    +0.012 C 
ATOM      9  C   LIG A   1      -5.400  -2.516 127.757  0.00  0.00    +0.005 C 
ATOM     10  C   LIG A   1      -5.633  -2.187 126.330  0.00  0.00    +0.007 C 
ATOM     11  C   LIG A   1      -7.130  -2.061 126.048  0.00  0.00    -0.023 C 
ATOM     12  C   LIG A   1      -7.082  -1.007 124.391  0.00  0.00    +0.041 C 
ATOM     13  C   LIG A   1      -8.486  -1.717 123.316  0.00  0.00    +0.067 C 
ATOM     14  C   LIG A   1      -9.599  -0.696 123.032  0.00  0.00    +0.041 C 
ATOM     15  C   LIG A   1      -8.095  -1.422 127.018  0.00  0.00    +0.002 C 
ATOM     16  C   LIG A   1      -8.693  -1.770 125.608  0.00  0.00    +0.005 C 
ATOM     17  C   LIG A   1      -7.541  -3.043 124.339  0.00  0.00    +0.006 C 
ATOM     18  C   LIG A   1      -8.863  -3.359 124.097  0.00  0.00    +0.021 C 
ATOM     19  C   LIG A   1      -8.171  -3.739 125.773  0.00  0.00    +0.013 C 
ATOM     20  C   LIG A   1      -5.300   0.740 127.666  0.00  0.00    +0.014 C 
ENDROOT
BRANCH   1  21
ATOM     21  O   LIG A   1      -8.124   0.487 131.852  0.00  0.00    -0.389 OA
ATOM     22  H   LIG A   1      -8.680  -0.217 132.210  0.00  0.00    +0.210 HD
ENDBRANCH   1  21
BRANCH  13  23
ATOM     23  O   LIG A   1      -8.007  -1.998 121.960  0.00  0.00    -0.389 OA
ATOM     24  H   LIG A   1      -8.103  -1.171 121.462  0.00  0.00    +0.210 HD
ENDBRANCH  13  23
BRANCH   2  25
ATOM     25  O   LIG A   1      -4.862  -0.584 130.642  0.00  0.00    -0.389 OA
ATOM     26  H   LIG A   1      -4.315  -0.100 131.283  0.00  0.00    +0.210 HD
ENDBRANCH   2  25
TORSDOF 3
ENDMDL
MODEL 4
REMARK VINA RESULT:      -7.0      2.893      5.690
REMARK  Name = NuBBE_189
REMARK  7 active torsions:
REMARK  status: ('A' for Active; 'I' for Inactive)
REMARK    1  A    between atoms: O_1  and  C_2
REMARK    2  A    between atoms: C_4  and  O_28
REMARK    3  A    between atoms: C_6  and  C_7
REMARK    4  A    between atoms: C_6  and  C_27
REMARK    5  A    between atoms: C_10  and  C_12
REMARK    6  A    between atoms: C_17  and  C_18
REMARK    7  A    between atoms: C_17  and  O_19
REMARK                            x       y       z     vdW  Elec       q    Type
REMARK                         _______ _______ _______ _____ _____    ______ ____
ROOT
ATOM      1  C   LIG A   1      -9.454  -0.763 123.032  0.00  0.00    +0.144 C 
ATOM      2  C   LIG A   1      -8.667  -2.121 122.874  0.00  0.00    +0.149 C 
ATOM      3  C   LIG A   1      -8.188  -2.284 124.375  0.00  0.00    -0.003 C 
ATOM      4  C   LIG A   1      -9.502  -1.915 125.377  0.00  0.00    +0.014 C 
ATOM      5  C   LIG A   1      -6.896  -1.247 124.381  0.00  0.00    +0.003 C 
ATOM      6  C   LIG A   1      -7.420  -0.037 125.116  0.00  0.00    -0.023 C 
ATOM      7  C   LIG A   1      -8.677   0.305 123.965  0.00  0.00    +0.041 C 
ATOM      8  C   LIG A   1      -6.740   1.342 125.121  0.00  0.00    +0.012 C 
ATOM      9  C   LIG A   1      -5.500  -1.695 124.750  0.00  0.00    +0.005 C 
ATOM     10  C   LIG A   1      -5.489  -2.241 126.128  0.00  0.00    +0.007 C 
ATOM     11  C   LIG A   1      -6.299  -1.345 127.065  0.00  0.00    -0.023 C 
ATOM     12  C   LIG A   1      -6.660  -2.607 128.526  0.00  0.00    +0.041 C 
ATOM     13  C   LIG A   1      -6.528  -1.567 130.117  0.00  0.00    +0.067 C 
ATOM     14  C   LIG A   1      -7.854  -1.479 130.889  0.00  0.00    +0.041 C 
ATOM     15  C   LIG A   1      -7.591  -0.681 126.650  0.00  0.00    +0.002 C 
ATOM     16  C   LIG A   1      -7.232  -0.556 128.174  0.00  0.00    +0.005 C 
ATOM     17  C   LIG A   1      -5.250  -1.086 128.764  0.00  0.00    +0.006 C 
ATOM     18  C   LIG A   1      -5.623  -0.037 129.580  0.00  0.00    +0.021 C 
ATOM     19  C   LIG A   1      -5.421   0.301 127.770  0.00  0.00    +0.013 C 
ATOM     20  C   LIG A   1      -8.039  -3.737 124.815  0.00  0.00    +0.014 C 
ENDROOT
BRANCH   1  21
ATOM     21  O   LIG A   1     -10.486  -0.041 122.381  0.00  0.00    -0.389 OA
ATOM     22  H   LIG A   1     -10.558   0.878 122.669  0.00  0.00    +0.210 HD
ENDBRANCH   1  21
BRANCH  13  23
ATOM     23  O   LIG A   1      -5.673  -2.235 131.102  0.00  0.00    -0.389 OA
ATOM     24  H   LIG A   1      -6.240  -2.433 131.864  0.00  0.00    +0.210 HD
ENDBRANCH  13  23
BRANCH   2  25
ATOM     25  O   LIG A   1      -7.573  -2.184 121.956  0.00  0.00    -0.389 OA
ATOM     26  H   LIG A   1      -7.380  -3.111 121.738  0.00  0.00    +0.210 HD
ENDBRANCH   2  25
TORSDOF 3
ENDMDL
MODEL 5
REMARK VINA RESULT:      -6.8      6.891      9.223
REMARK  Name = NuBBE_189
REMARK  7 active torsions:
REMARK  status: ('A' for Active; 'I' for Inactive)
REMARK    1  A    between atoms: O_1  and  C_2
REMARK    2  A    between atoms: C_4  and  O_28
REMARK    3  A    between atoms: C_6  and  C_7
REMARK    4  A    between atoms: C_6  and  C_27
REMARK    5  A    between atoms: C_10  and  C_12
REMARK    6  A    between atoms: C_17  and  C_18
REMARK    7  A    between atoms: C_17  and  O_19
REMARK                            x       y       z     vdW  Elec       q    Type
REMARK                         _______ _______ _______ _____ _____    ______ ____
ROOT
ATOM      1  C   LIG A   1      -3.995   5.710 132.654  0.00  0.00    +0.144 C 
ATOM      2  C   LIG A   1      -4.101   4.423 131.748  0.00  0.00    +0.149 C 
ATOM      3  C   LIG A   1      -5.457   4.774 131.008  0.00  0.00    -0.003 C 
ATOM      4  C   LIG A   1      -5.388   6.403 130.555  0.00  0.00    +0.014 C 
ATOM      5  C   LIG A   1      -6.547   4.343 132.180  0.00  0.00    +0.003 C 
ATOM      6  C   LIG A   1      -6.995   5.669 132.747  0.00  0.00    -0.023 C 
ATOM      7  C   LIG A   1      -5.414   6.138 133.299  0.00  0.00    +0.041 C 
ATOM      8  C   LIG A   1      -7.754   5.837 134.074  0.00  0.00    +0.012 C 
ATOM      9  C   LIG A   1      -7.634   3.322 131.938  0.00  0.00    +0.005 C 
ATOM     10  C   LIG A   1      -8.507   3.764 130.825  0.00  0.00    +0.007 C 
ATOM     11  C   LIG A   1      -8.842   5.249 130.965  0.00  0.00    -0.023 C 
ATOM     12  C   LIG A   1      -9.370   5.661 129.118  0.00  0.00    +0.041 C 
ATOM     13  C   LIG A   1     -10.828   6.876 129.284  0.00  0.00    +0.067 C 
ATOM     14  C   LIG A   1     -10.523   8.263 128.696  0.00  0.00    +0.041 C 
ATOM     15  C   LIG A   1      -7.838   6.274 131.437  0.00  0.00    +0.002 C 
ATOM     16  C   LIG A   1      -9.194   6.860 130.904  0.00  0.00    +0.005 C 
ATOM     17  C   LIG A   1     -10.811   5.494 130.620  0.00  0.00    +0.006 C 
ATOM     18  C   LIG A   1     -11.382   6.677 131.045  0.00  0.00    +0.021 C 
ATOM     19  C   LIG A   1     -10.293   5.762 132.233  0.00  0.00    +0.013 C 
ATOM     20  C   LIG A   1      -5.549   4.206 129.596  0.00  0.00    +0.014 C 
ENDROOT
BRANCH   1  21
ATOM     21  O   LIG A   1      -3.006   6.455 133.344  0.00  0.00    -0.389 OA
ATOM     22  H   LIG A   1      -2.890   7.352 133.006  0.00  0.00    +0.210 HD
ENDBRANCH   1  21
BRANCH  13  23
ATOM     23  O   LIG A   1     -11.951   6.454 128.442  0.00  0.00    -0.389 OA
ATOM     24  H   LIG A   1     -11.712   6.693 127.532  0.00  0.00    +0.210 HD
ENDBRANCH  13  23
BRANCH   2  25
ATOM     25  O   LIG A   1      -4.152   3.139 132.373  0.00  0.00    -0.389 OA
ATOM     26  H   LIG A   1      -4.859   3.125 133.040  0.00  0.00    +0.210 HD
ENDBRANCH   2  25
TORSDOF 3
ENDMDL
MODEL 6
REMARK VINA RESULT:      -6.8      6.635      9.878
REMARK  Name = NuBBE_189
REMARK  7 active torsions:
REMARK  status: ('A' for Active; 'I' for Inactive)
REMARK    1  A    between atoms: O_1  and  C_2
REMARK    2  A    between atoms: C_4  and  O_28
REMARK    3  A    between atoms: C_6  and  C_7
REMARK    4  A    between atoms: C_6  and  C_27
REMARK    5  A    between atoms: C_10  and  C_12
REMARK    6  A    between atoms: C_17  and  C_18
REMARK    7  A    between atoms: C_17  and  O_19
REMARK                            x       y       z     vdW  Elec       q    Type
REMARK                         _______ _______ _______ _____ _____    ______ ____
ROOT
ATOM      1  C   LIG A   1      -9.206   5.354 129.106  0.00  0.00    +0.144 C 
ATOM      2  C   LIG A   1     -10.418   5.292 130.115  0.00  0.00    +0.149 C 
ATOM      3  C   LIG A   1      -9.602   5.449 131.464  0.00  0.00    -0.003 C 
ATOM      4  C   LIG A   1      -8.459   6.677 131.232  0.00  0.00    +0.014 C 
ATOM      5  C   LIG A   1      -9.045   3.899 131.648  0.00  0.00    +0.003 C 
ATOM      6  C   LIG A   1      -7.594   3.998 131.243  0.00  0.00    -0.023 C 
ATOM      7  C   LIG A   1      -7.926   4.508 129.615  0.00  0.00    +0.041 C 
ATOM      8  C   LIG A   1      -6.696   2.791 130.921  0.00  0.00    +0.012 C 
ATOM      9  C   LIG A   1      -9.337   3.076 132.881  0.00  0.00    +0.005 C 
ATOM     10  C   LIG A   1      -8.809   3.760 134.086  0.00  0.00    +0.007 C 
ATOM     11  C   LIG A   1      -7.405   4.304 133.820  0.00  0.00    -0.023 C 
ATOM     12  C   LIG A   1      -7.283   5.657 135.238  0.00  0.00    +0.041 C 
ATOM     13  C   LIG A   1      -5.481   5.565 135.851  0.00  0.00    +0.067 C 
ATOM     14  C   LIG A   1      -4.695   6.862 135.601  0.00  0.00    +0.041 C 
ATOM     15  C   LIG A   1      -7.004   4.926 132.502  0.00  0.00    +0.002 C 
ATOM     16  C   LIG A   1      -5.945   5.055 133.655  0.00  0.00    +0.005 C 
ATOM     17  C   LIG A   1      -6.238   3.856 135.398  0.00  0.00    +0.006 C 
ATOM     18  C   LIG A   1      -4.872   3.931 135.212  0.00  0.00    +0.021 C 
ATOM     19  C   LIG A   1      -5.874   3.032 133.939  0.00  0.00    +0.013 C 
ATOM     20  C   LIG A   1     -10.382   6.147 132.573  0.00  0.00    +0.014 C 
ENDROOT
BRANCH   1  21
ATOM     21  O   LIG A   1      -8.962   5.660 127.744  0.00  0.00    -0.389 OA
ATOM     22  H   LIG A   1      -9.655   6.195 127.336  0.00  0.00    +0.210 HD
ENDBRANCH   1  21
BRANCH  13  23
ATOM     23  O   LIG A   1      -5.436   5.485 137.313  0.00  0.00    -0.389 OA
ATOM     24  H   LIG A   1      -6.183   4.926 137.578  0.00  0.00    +0.210 HD
ENDBRANCH  13  23
BRANCH   2  25
ATOM     25  O   LIG A   1     -11.249   4.129 130.128  0.00  0.00    -0.389 OA
ATOM     26  H   LIG A   1     -10.698   3.331 130.199  0.00  0.00    +0.210 HD
ENDBRANCH   2  25
TORSDOF 3
ENDMDL
MODEL 7
REMARK VINA RESULT:      -6.8      2.441      5.977
REMARK  Name = NuBBE_189
REMARK  7 active torsions:
REMARK  status: ('A' for Active; 'I' for Inactive)
REMARK    1  A    between atoms: O_1  and  C_2
REMARK    2  A    between atoms: C_4  and  O_28
REMARK    3  A    between atoms: C_6  and  C_7
REMARK    4  A    between atoms: C_6  and  C_27
REMARK    5  A    between atoms: C_10  and  C_12
REMARK    6  A    between atoms: C_17  and  C_18
REMARK    7  A    between atoms: C_17  and  O_19
REMARK                            x       y       z     vdW  Elec       q    Type
REMARK                         _______ _______ _______ _____ _____    ______ ____
ROOT
ATOM      1  C   LIG A   1      -8.981  -0.146 124.610  0.00  0.00    +0.144 C 
ATOM      2  C   LIG A   1      -8.986   1.065 123.598  0.00  0.00    +0.149 C 
ATOM      3  C   LIG A   1      -7.695   1.814 124.129  0.00  0.00    -0.003 C 
ATOM      4  C   LIG A   1      -6.499   0.647 124.401  0.00  0.00    +0.014 C 
ATOM      5  C   LIG A   1      -8.332   2.590 125.447  0.00  0.00    +0.003 C 
ATOM      6  C   LIG A   1      -7.830   1.771 126.613  0.00  0.00    -0.023 C 
ATOM      7  C   LIG A   1      -8.627   0.306 126.122  0.00  0.00    +0.041 C 
ATOM      8  C   LIG A   1      -8.387   1.860 128.043  0.00  0.00    +0.012 C 
ATOM      9  C   LIG A   1      -8.268   4.091 125.612  0.00  0.00    +0.005 C 
ATOM     10  C   LIG A   1      -6.855   4.541 125.617  0.00  0.00    +0.007 C 
ATOM     11  C   LIG A   1      -6.003   3.618 126.488  0.00  0.00    -0.023 C 
ATOM     12  C   LIG A   1      -4.217   4.019 125.774  0.00  0.00    +0.041 C 
ATOM     13  C   LIG A   1      -3.067   4.006 127.293  0.00  0.00    +0.067 C 
ATOM     14  C   LIG A   1      -2.004   2.898 127.232  0.00  0.00    +0.041 C 
ATOM     15  C   LIG A   1      -6.198   2.121 126.530  0.00  0.00    +0.002 C 
ATOM     16  C   LIG A   1      -4.928   2.653 127.286  0.00  0.00    +0.005 C 
ATOM     17  C   LIG A   1      -4.804   4.756 127.638  0.00  0.00    +0.006 C 
ATOM     18  C   LIG A   1      -4.226   4.150 128.736  0.00  0.00    +0.021 C 
ATOM     19  C   LIG A   1      -6.041   3.901 128.462  0.00  0.00    +0.013 C 
ATOM     20  C   LIG A   1      -6.944   2.581 123.046  0.00  0.00    +0.014 C 
ENDROOT
BRANCH   1  21
ATOM     21  O   LIG A   1      -9.482  -1.468 124.699  0.00  0.00    -0.389 OA
ATOM     22  H   LIG A   1      -9.677  -1.749 125.603  0.00  0.00    +0.210 HD
ENDBRANCH   1  21
BRANCH  13  23
ATOM     23  O   LIG A   1      -2.223   5.204 127.313  0.00  0.00    -0.389 OA
ATOM     24  H   LIG A   1      -2.827   5.962 127.261  0.00  0.00    +0.210 HD
ENDBRANCH  13  23
BRANCH   2  25
ATOM     25  O   LIG A   1     -10.124   1.928 123.557  0.00  0.00    -0.389 OA
ATOM     26  H   LIG A   1     -10.899   1.470 123.924  0.00  0.00    +0.210 HD
ENDBRANCH   2  25
TORSDOF 3
ENDMDL
MODEL 8
REMARK VINA RESULT:      -6.8      6.582      7.819
REMARK  Name = NuBBE_189
REMARK  7 active torsions:
REMARK  status: ('A' for Active; 'I' for Inactive)
REMARK    1  A    between atoms: O_1  and  C_2
REMARK    2  A    between atoms: C_4  and  O_28
REMARK    3  A    between atoms: C_6  and  C_7
REMARK    4  A    between atoms: C_6  and  C_27
REMARK    5  A    between atoms: C_10  and  C_12
REMARK    6  A    between atoms: C_17  and  C_18
REMARK    7  A    between atoms: C_17  and  O_19
REMARK                            x       y       z     vdW  Elec       q    Type
REMARK                         _______ _______ _______ _____ _____    ______ ____
ROOT
ATOM      1  C   LIG A   1     -10.648   5.482 130.402  0.00  0.00    +0.144 C 
ATOM      2  C   LIG A   1      -9.930   6.254 131.576  0.00  0.00    +0.149 C 
ATOM      3  C   LIG A   1      -8.657   5.323 131.719  0.00  0.00    -0.003 C 
ATOM      4  C   LIG A   1      -8.095   4.978 130.159  0.00  0.00    +0.014 C 
ATOM      5  C   LIG A   1      -9.305   4.078 132.599  0.00  0.00    +0.003 C 
ATOM      6  C   LIG A   1      -9.481   2.979 131.578  0.00  0.00    -0.023 C 
ATOM      7  C   LIG A   1     -10.587   3.876 130.582  0.00  0.00    +0.041 C 
ATOM      8  C   LIG A   1     -10.339   1.722 131.791  0.00  0.00    +0.012 C 
ATOM      9  C   LIG A   1      -8.745   3.657 133.939  0.00  0.00    +0.005 C 
ATOM     10  C   LIG A   1      -7.327   3.251 133.792  0.00  0.00    +0.007 C 
ATOM     11  C   LIG A   1      -7.147   2.371 132.555  0.00  0.00    -0.023 C 
ATOM     12  C   LIG A   1      -5.216   2.576 132.260  0.00  0.00    +0.041 C 
ATOM     13  C   LIG A   1      -4.620   0.856 131.698  0.00  0.00    +0.067 C 
ATOM     14  C   LIG A   1      -4.063   0.853 130.265  0.00  0.00    +0.041 C 
ATOM     15  C   LIG A   1      -7.879   2.624 131.257  0.00  0.00    +0.002 C 
ATOM     16  C   LIG A   1      -6.766   1.517 131.195  0.00  0.00    +0.005 C 
ATOM     17  C   LIG A   1      -5.985   0.803 133.051  0.00  0.00    +0.006 C 
ATOM     18  C   LIG A   1      -5.998  -0.283 132.199  0.00  0.00    +0.021 C 
ATOM     19  C   LIG A   1      -7.626   0.441 132.706  0.00  0.00    +0.013 C 
ATOM     20  C   LIG A   1      -7.409   6.061 132.191  0.00  0.00    +0.014 C 
ENDROOT
BRANCH   1  21
ATOM     21  O   LIG A   1     -11.601   5.730 129.383  0.00  0.00    -0.389 OA
ATOM     22  H   LIG A   1     -12.509   5.531 129.644  0.00  0.00    +0.210 HD
ENDBRANCH   1  21
BRANCH  13  23
ATOM     23  O   LIG A   1      -3.438   0.445 132.461  0.00  0.00    -0.389 OA
ATOM     24  H   LIG A   1      -3.728   0.355 133.382  0.00  0.00    +0.210 HD
ENDBRANCH  13  23
BRANCH   2  25
ATOM     25  O   LIG A   1     -10.615   6.413 132.820  0.00  0.00    -0.389 OA
ATOM     26  H   LIG A   1     -11.514   6.747 132.661  0.00  0.00    +0.210 HD
ENDBRANCH   2  25
TORSDOF 3
ENDMDL
MODEL 9
REMARK VINA RESULT:      -6.8      4.136      5.873
REMARK  Name = NuBBE_189
REMARK  7 active torsions:
REMARK  status: ('A' for Active; 'I' for Inactive)
REMARK    1  A    between atoms: O_1  and  C_2
REMARK    2  A    between atoms: C_4  and  O_28
REMARK    3  A    between atoms: C_6  and  C_7
REMARK    4  A    between atoms: C_6  and  C_27
REMARK    5  A    between atoms: C_10  and  C_12
REMARK    6  A    between atoms: C_17  and  C_18
REMARK    7  A    between atoms: C_17  and  O_19
REMARK                            x       y       z     vdW  Elec       q    Type
REMARK                         _______ _______ _______ _____ _____    ______ ____
ROOT
ATOM      1  C   LIG A   1      -3.780  -2.094 131.485  0.00  0.00    +0.144 C 
ATOM      2  C   LIG A   1      -5.171  -2.804 131.709  0.00  0.00    +0.149 C 
ATOM      3  C   LIG A   1      -5.653  -2.847 130.200  0.00  0.00    -0.003 C 
ATOM      4  C   LIG A   1      -4.337  -3.338 129.255  0.00  0.00    +0.014 C 
ATOM      5  C   LIG A   1      -6.193  -1.291 130.025  0.00  0.00    +0.003 C 
ATOM      6  C   LIG A   1      -5.099  -0.627 129.223  0.00  0.00    -0.023 C 
ATOM      7  C   LIG A   1      -3.862  -0.883 130.417  0.00  0.00    +0.041 C 
ATOM      8  C   LIG A   1      -4.941   0.893 129.058  0.00  0.00    +0.012 C 
ATOM      9  C   LIG A   1      -7.611  -0.969 129.609  0.00  0.00    +0.005 C 
ATOM     10  C   LIG A   1      -7.900  -1.569 128.285  0.00  0.00    +0.007 C 
ATOM     11  C   LIG A   1      -6.731  -1.341 127.327  0.00  0.00    -0.023 C 
ATOM     12  C   LIG A   1      -7.086  -2.750 126.005  0.00  0.00    +0.041 C 
ATOM     13  C   LIG A   1      -6.633  -1.972 124.325  0.00  0.00    +0.067 C 
ATOM     14  C   LIG A   1      -5.458  -2.682 123.633  0.00  0.00    +0.041 C 
ATOM     15  C   LIG A   1      -5.287  -1.422 127.764  0.00  0.00    +0.002 C 
ATOM     16  C   LIG A   1      -5.512  -1.288 126.216  0.00  0.00    +0.005 C 
ATOM     17  C   LIG A   1      -7.468  -0.748 125.550  0.00  0.00    +0.006 C 
ATOM     18  C   LIG A   1      -6.587  -0.149 124.672  0.00  0.00    +0.021 C 
ATOM     19  C   LIG A   1      -6.592   0.434 126.430  0.00  0.00    +0.013 C 
ATOM     20  C   LIG A   1      -6.549  -4.038 129.878  0.00  0.00    +0.014 C 
ENDROOT
BRANCH   1  21
ATOM     21  O   LIG A   1      -2.528  -1.964 132.135  0.00  0.00    -0.389 OA
ATOM     22  H   LIG A   1      -2.183  -2.797 132.483  0.00  0.00    +0.210 HD
ENDBRANCH   1  21
BRANCH  13  23
ATOM     23  O   LIG A   1      -7.705  -2.187 123.350  0.00  0.00    -0.389 OA
ATOM     24  H   LIG A   1      -8.478  -2.479 123.858  0.00  0.00    +0.210 HD
ENDBRANCH  13  23
BRANCH   2  25
ATOM     25  O   LIG A   1      -6.137  -2.182 132.559  0.00  0.00    -0.389 OA
ATOM     26  H   LIG A   1      -6.955  -2.017 132.062  0.00  0.00    +0.210 HD
ENDBRANCH   2  25
TORSDOF 3
ENDMDL
