MODEL 1
REMARK VINA RESULT:      -6.0      0.000      0.000
REMARK  Name = NuBBE_1011
REMARK  2 active torsions:
REMARK  status: ('A' for Active; 'I' for Inactive)
REMARK    1  A    between atoms: O_1  and  C_2
REMARK    2  A    between atoms: C_8  and  O_9
REMARK                            x       y       z     vdW  Elec       q    Type
REMARK                         _______ _______ _______ _____ _____    ______ ____
ROOT
ATOM      1  C   LIG A   1     -10.751   6.452 131.724  0.00  0.00    +0.128 A 
ATOM      2  C   LIG A   1     -11.140   7.159 130.558  0.00  0.00    +0.065 A 
ATOM      3  C   LIG A   1     -10.116   7.583 129.678  0.00  0.00    -0.011 A 
ATOM      4  C   LIG A   1     -10.449   8.277 128.502  0.00  0.00    +0.009 A 
ATOM      5  C   LIG A   1     -11.778   8.575 128.193  0.00  0.00    +0.004 A 
ATOM      6  C   LIG A   1     -12.796   8.182 129.053  0.00  0.00    +0.046 A 
ATOM      7  C   LIG A   1     -12.478   7.479 130.216  0.00  0.00    +0.128 A 
ATOM      8  C   LIG A   1      -8.770   7.318 129.989  0.00  0.00    +0.009 A 
ATOM      9  C   LIG A   1      -8.421   6.645 131.161  0.00  0.00    +0.004 A 
ATOM     10  C   LIG A   1      -9.414   6.206 132.028  0.00  0.00    +0.046 A 
ENDROOT
BRANCH   1  11
ATOM     11  O   LIG A   1     -11.669   5.967 132.620  0.00  0.00    -0.506 OA
ATOM     12  H   LIG A   1     -11.197   5.288 133.147  0.00  0.00    +0.292 HD
ENDBRANCH   1  11
BRANCH   7  13
ATOM     13  O   LIG A   1     -13.491   7.094 131.064  0.00  0.00    -0.506 OA
ATOM     14  H   LIG A   1     -14.008   7.884 131.298  0.00  0.00    +0.292 HD
ENDBRANCH   7  13
TORSDOF 2
ENDMDL
MODEL 2
REMARK VINA RESULT:      -6.0      0.047      3.349
REMARK  Name = NuBBE_1011
REMARK  2 active torsions:
REMARK  status: ('A' for Active; 'I' for Inactive)
REMARK    1  A    between atoms: O_1  and  C_2
REMARK    2  A    between atoms: C_8  and  O_9
REMARK                            x       y       z     vdW  Elec       q    Type
REMARK                         _______ _______ _______ _____ _____    ______ ____
ROOT
ATOM      1  C   LIG A   1     -12.465   7.465 130.272  0.00  0.00    +0.128 A 
ATOM      2  C   LIG A   1     -11.121   7.154 130.602  0.00  0.00    +0.065 A 
ATOM      3  C   LIG A   1     -10.111   7.588 129.711  0.00  0.00    -0.011 A 
ATOM      4  C   LIG A   1      -8.762   7.315 129.999  0.00  0.00    +0.009 A 
ATOM      5  C   LIG A   1      -8.400   6.601 131.143  0.00  0.00    +0.004 A 
ATOM      6  C   LIG A   1      -9.379   6.151 132.021  0.00  0.00    +0.046 A 
ATOM      7  C   LIG A   1     -10.720   6.430 131.754  0.00  0.00    +0.128 A 
ATOM      8  C   LIG A   1     -10.461   8.280 128.538  0.00  0.00    +0.009 A 
ATOM      9  C   LIG A   1     -11.796   8.545 128.230  0.00  0.00    +0.004 A 
ATOM     10  C   LIG A   1     -12.800   8.141 129.101  0.00  0.00    +0.046 A 
ENDROOT
BRANCH   1  11
ATOM     11  O   LIG A   1     -13.512   7.121 131.087  0.00  0.00    -0.506 OA
ATOM     12  H   LIG A   1     -13.791   7.950 131.532  0.00  0.00    +0.292 HD
ENDBRANCH   1  11
BRANCH   7  13
ATOM     13  O   LIG A   1     -11.684   5.981 132.627  0.00  0.00    -0.506 OA
ATOM     14  H   LIG A   1     -11.255   5.402 133.281  0.00  0.00    +0.292 HD
ENDBRANCH   7  13
TORSDOF 2
ENDMDL
MODEL 3
REMARK VINA RESULT:      -6.0      2.310      3.084
REMARK  Name = NuBBE_1011
REMARK  2 active torsions:
REMARK  status: ('A' for Active; 'I' for Inactive)
REMARK    1  A    between atoms: O_1  and  C_2
REMARK    2  A    between atoms: C_8  and  O_9
REMARK                            x       y       z     vdW  Elec       q    Type
REMARK                         _______ _______ _______ _____ _____    ______ ____
ROOT
ATOM      1  C   LIG A   1     -10.042   6.506 129.971  0.00  0.00    +0.128 A 
ATOM      2  C   LIG A   1     -11.132   6.823 129.119  0.00  0.00    +0.065 A 
ATOM      3  C   LIG A   1     -12.389   7.057 129.725  0.00  0.00    -0.011 A 
ATOM      4  C   LIG A   1     -13.498   7.387 128.926  0.00  0.00    +0.009 A 
ATOM      5  C   LIG A   1     -13.387   7.466 127.536  0.00  0.00    +0.004 A 
ATOM      6  C   LIG A   1     -12.165   7.221 126.922  0.00  0.00    +0.046 A 
ATOM      7  C   LIG A   1     -11.053   6.909 127.706  0.00  0.00    +0.128 A 
ATOM      8  C   LIG A   1     -12.526   6.951 131.120  0.00  0.00    +0.009 A 
ATOM      9  C   LIG A   1     -11.438   6.609 131.926  0.00  0.00    +0.004 A 
ATOM     10  C   LIG A   1     -10.193   6.391 131.351  0.00  0.00    +0.046 A 
ENDROOT
BRANCH   1  11
ATOM     11  O   LIG A   1      -8.777   6.297 129.485  0.00  0.00    -0.506 OA
ATOM     12  H   LIG A   1      -8.495   5.426 129.837  0.00  0.00    +0.292 HD
ENDBRANCH   1  11
BRANCH   7  13
ATOM     13  O   LIG A   1      -9.846   6.668 127.091  0.00  0.00    -0.506 OA
ATOM     14  H   LIG A   1      -9.266   6.215 127.727  0.00  0.00    +0.292 HD
ENDBRANCH   7  13
TORSDOF 2
ENDMDL
MODEL 4
REMARK VINA RESULT:      -5.9      2.327      4.412
REMARK  Name = NuBBE_1011
REMARK  2 active torsions:
REMARK  status: ('A' for Active; 'I' for Inactive)
REMARK    1  A    between atoms: O_1  and  C_2
REMARK    2  A    between atoms: C_8  and  O_9
REMARK                            x       y       z     vdW  Elec       q    Type
REMARK                         _______ _______ _______ _____ _____    ______ ____
ROOT
ATOM      1  C   LIG A   1     -10.991   6.886 127.701  0.00  0.00    +0.128 A 
ATOM      2  C   LIG A   1     -11.089   6.780 129.112  0.00  0.00    +0.065 A 
ATOM      3  C   LIG A   1     -12.352   7.027 129.701  0.00  0.00    -0.011 A 
ATOM      4  C   LIG A   1     -12.505   6.923 131.095  0.00  0.00    +0.009 A 
ATOM      5  C   LIG A   1     -11.423   6.599 131.916  0.00  0.00    +0.004 A 
ATOM      6  C   LIG A   1     -10.171   6.370 131.358  0.00  0.00    +0.046 A 
ATOM      7  C   LIG A   1     -10.011   6.455 129.974  0.00  0.00    +0.128 A 
ATOM      8  C   LIG A   1     -13.445   7.385 128.892  0.00  0.00    +0.009 A 
ATOM      9  C   LIG A   1     -13.306   7.509 127.508  0.00  0.00    +0.004 A 
ATOM     10  C   LIG A   1     -12.078   7.254 126.911  0.00  0.00    +0.046 A 
ENDROOT
BRANCH   1  11
ATOM     11  O   LIG A   1      -9.822   6.631 127.033  0.00  0.00    -0.506 OA
ATOM     12  H   LIG A   1      -9.209   7.357 127.277  0.00  0.00    +0.292 HD
ENDBRANCH   1  11
BRANCH   7  13
ATOM     13  O   LIG A   1      -8.769   6.228 129.429  0.00  0.00    -0.506 OA
ATOM     14  H   LIG A   1      -8.884   6.027 128.484  0.00  0.00    +0.292 HD
ENDBRANCH   7  13
TORSDOF 2
ENDMDL
MODEL 5
REMARK VINA RESULT:      -5.7     10.226     11.063
REMARK  Name = NuBBE_1011
REMARK  2 active torsions:
REMARK  status: ('A' for Active; 'I' for Inactive)
REMARK    1  A    between atoms: O_1  and  C_2
REMARK    2  A    between atoms: C_8  and  O_9
REMARK                            x       y       z     vdW  Elec       q    Type
REMARK                         _______ _______ _______ _____ _____    ______ ____
ROOT
ATOM      1  C   LIG A   1      -5.849   3.957 122.014  0.00  0.00    +0.128 A 
ATOM      2  C   LIG A   1      -6.786   4.067 120.955  0.00  0.00    +0.065 A 
ATOM      3  C   LIG A   1      -8.102   3.610 121.196  0.00  0.00    -0.011 A 
ATOM      4  C   LIG A   1      -9.073   3.708 120.182  0.00  0.00    +0.009 A 
ATOM      5  C   LIG A   1      -8.753   4.232 118.928  0.00  0.00    +0.004 A 
ATOM      6  C   LIG A   1      -7.460   4.670 118.666  0.00  0.00    +0.046 A 
ATOM      7  C   LIG A   1      -6.493   4.592 119.670  0.00  0.00    +0.128 A 
ATOM      8  C   LIG A   1      -8.434   3.051 122.443  0.00  0.00    +0.009 A 
ATOM      9  C   LIG A   1      -7.478   2.931 123.454  0.00  0.00    +0.004 A 
ATOM     10  C   LIG A   1      -6.185   3.390 123.241  0.00  0.00    +0.046 A 
ENDROOT
BRANCH   1  11
ATOM     11  O   LIG A   1      -4.558   4.404 121.893  0.00  0.00    -0.506 OA
ATOM     12  H   LIG A   1      -4.114   3.780 121.281  0.00  0.00    +0.292 HD
ENDBRANCH   1  11
BRANCH   7  13
ATOM     13  O   LIG A   1      -5.215   5.027 119.404  0.00  0.00    -0.506 OA
ATOM     14  H   LIG A   1      -4.936   4.645 118.554  0.00  0.00    +0.292 HD
ENDBRANCH   7  13
TORSDOF 2
ENDMDL
MODEL 6
REMARK VINA RESULT:      -5.6     11.250     11.690
REMARK  Name = NuBBE_1011
REMARK  2 active torsions:
REMARK  status: ('A' for Active; 'I' for Inactive)
REMARK    1  A    between atoms: O_1  and  C_2
REMARK    2  A    between atoms: C_8  and  O_9
REMARK                            x       y       z     vdW  Elec       q    Type
REMARK                         _______ _______ _______ _____ _____    ______ ____
ROOT
ATOM      1  C   LIG A   1      -8.967  -2.825 126.005  0.00  0.00    +0.128 A 
ATOM      2  C   LIG A   1      -8.195  -2.509 124.857  0.00  0.00    +0.065 A 
ATOM      3  C   LIG A   1      -6.830  -2.193 125.054  0.00  0.00    -0.011 A 
ATOM      4  C   LIG A   1      -6.018  -1.884 123.948  0.00  0.00    +0.009 A 
ATOM      5  C   LIG A   1      -6.543  -1.862 122.654  0.00  0.00    +0.004 A 
ATOM      6  C   LIG A   1      -7.885  -2.153 122.443  0.00  0.00    +0.046 A 
ATOM      7  C   LIG A   1      -8.696  -2.476 123.532  0.00  0.00    +0.128 A 
ATOM      8  C   LIG A   1      -6.293  -2.180 126.354  0.00  0.00    +0.009 A 
ATOM      9  C   LIG A   1      -7.088  -2.468 127.464  0.00  0.00    +0.004 A 
ATOM     10  C   LIG A   1      -8.427  -2.797 127.289  0.00  0.00    +0.046 A 
ENDROOT
BRANCH   1  11
ATOM     11  O   LIG A   1     -10.288  -3.180 125.917  0.00  0.00    -0.506 OA
ATOM     12  H   LIG A   1     -10.766  -2.591 126.538  0.00  0.00    +0.292 HD
ENDBRANCH   1  11
BRANCH   7  13
ATOM     13  O   LIG A   1     -10.025  -2.762 123.315  0.00  0.00    -0.506 OA
ATOM     14  H   LIG A   1     -10.558  -2.094 123.780  0.00  0.00    +0.292 HD
ENDBRANCH   7  13
TORSDOF 2
ENDMDL
MODEL 7
REMARK VINA RESULT:      -5.6     11.226     11.939
REMARK  Name = NuBBE_1011
REMARK  2 active torsions:
REMARK  status: ('A' for Active; 'I' for Inactive)
REMARK    1  A    between atoms: O_1  and  C_2
REMARK    2  A    between atoms: C_8  and  O_9
REMARK                            x       y       z     vdW  Elec       q    Type
REMARK                         _______ _______ _______ _____ _____    ______ ____
ROOT
ATOM      1  C   LIG A   1      -8.716  -2.464 123.571  0.00  0.00    +0.128 A 
ATOM      2  C   LIG A   1      -8.206  -2.478 124.895  0.00  0.00    +0.065 A 
ATOM      3  C   LIG A   1      -6.843  -2.144 125.075  0.00  0.00    -0.011 A 
ATOM      4  C   LIG A   1      -6.292  -2.132 126.368  0.00  0.00    +0.009 A 
ATOM      5  C   LIG A   1      -7.064  -2.465 127.483  0.00  0.00    +0.004 A 
ATOM      6  C   LIG A   1      -8.401  -2.812 127.325  0.00  0.00    +0.046 A 
ATOM      7  C   LIG A   1      -8.962  -2.813 126.047  0.00  0.00    +0.128 A 
ATOM      8  C   LIG A   1      -6.043  -1.837 123.960  0.00  0.00    +0.009 A 
ATOM      9  C   LIG A   1      -6.570  -1.861 122.667  0.00  0.00    +0.004 A 
ATOM     10  C   LIG A   1      -7.910  -2.170 122.473  0.00  0.00    +0.046 A 
ENDROOT
BRANCH   1  11
ATOM     11  O   LIG A   1     -10.031  -2.737 123.295  0.00  0.00    -0.506 OA
ATOM     12  H   LIG A   1     -10.483  -2.786 124.164  0.00  0.00    +0.292 HD
ENDBRANCH   1  11
BRANCH   7  13
ATOM     13  O   LIG A   1     -10.285  -3.159 125.897  0.00  0.00    -0.506 OA
ATOM     14  H   LIG A   1     -10.421  -3.450 124.979  0.00  0.00    +0.292 HD
ENDBRANCH   7  13
TORSDOF 2
ENDMDL
MODEL 8
REMARK VINA RESULT:      -5.3     11.118     12.042
REMARK  Name = NuBBE_1011
REMARK  2 active torsions:
REMARK  status: ('A' for Active; 'I' for Inactive)
REMARK    1  A    between atoms: O_1  and  C_2
REMARK    2  A    between atoms: C_8  and  O_9
REMARK                            x       y       z     vdW  Elec       q    Type
REMARK                         _______ _______ _______ _____ _____    ______ ____
ROOT
ATOM      1  C   LIG A   1      -6.788  -2.083 124.738  0.00  0.00    +0.128 A 
ATOM      2  C   LIG A   1      -7.293  -2.511 125.993  0.00  0.00    +0.065 A 
ATOM      3  C   LIG A   1      -8.519  -3.216 125.998  0.00  0.00    -0.011 A 
ATOM      4  C   LIG A   1      -9.057  -3.673 127.215  0.00  0.00    +0.009 A 
ATOM      5  C   LIG A   1      -8.410  -3.422 128.427  0.00  0.00    +0.004 A 
ATOM      6  C   LIG A   1      -7.213  -2.715 128.443  0.00  0.00    +0.046 A 
ATOM      7  C   LIG A   1      -6.663  -2.272 127.240  0.00  0.00    +0.128 A 
ATOM      8  C   LIG A   1      -9.199  -3.450 124.790  0.00  0.00    +0.009 A 
ATOM      9  C   LIG A   1      -8.688  -2.990 123.575  0.00  0.00    +0.004 A 
ATOM     10  C   LIG A   1      -7.477  -2.309 123.549  0.00  0.00    +0.046 A 
ENDROOT
BRANCH   1  11
ATOM     11  O   LIG A   1      -5.591  -1.424 124.622  0.00  0.00    -0.506 OA
ATOM     12  H   LIG A   1      -5.746  -0.696 123.984  0.00  0.00    +0.292 HD
ENDBRANCH   1  11
BRANCH   7  13
ATOM     13  O   LIG A   1      -5.478  -1.571 127.264  0.00  0.00    -0.506 OA
ATOM     14  H   LIG A   1      -5.473  -1.012 128.060  0.00  0.00    +0.292 HD
ENDBRANCH   7  13
TORSDOF 2
ENDMDL
MODEL 9
REMARK VINA RESULT:      -5.2     11.110     11.739
REMARK  Name = NuBBE_1011
REMARK  2 active torsions:
REMARK  status: ('A' for Active; 'I' for Inactive)
REMARK    1  A    between atoms: O_1  and  C_2
REMARK    2  A    between atoms: C_8  and  O_9
REMARK                            x       y       z     vdW  Elec       q    Type
REMARK                         _______ _______ _______ _____ _____    ______ ____
ROOT
ATOM      1  C   LIG A   1      -6.617  -2.289 127.314  0.00  0.00    +0.128 A 
ATOM      2  C   LIG A   1      -7.224  -2.515 126.052  0.00  0.00    +0.065 A 
ATOM      3  C   LIG A   1      -8.465  -3.195 126.036  0.00  0.00    -0.011 A 
ATOM      4  C   LIG A   1      -9.114  -3.434 124.811  0.00  0.00    +0.009 A 
ATOM      5  C   LIG A   1      -8.543  -3.029 123.603  0.00  0.00    +0.004 A 
ATOM      6  C   LIG A   1      -7.317  -2.376 123.598  0.00  0.00    +0.046 A 
ATOM      7  C   LIG A   1      -6.671  -2.119 124.808  0.00  0.00    +0.128 A 
ATOM      8  C   LIG A   1      -9.039  -3.637 127.241  0.00  0.00    +0.009 A 
ATOM      9  C   LIG A   1      -8.399  -3.423 128.464  0.00  0.00    +0.004 A 
ATOM     10  C   LIG A   1      -7.189  -2.743 128.501  0.00  0.00    +0.046 A 
ENDROOT
BRANCH   1  11
ATOM     11  O   LIG A   1      -5.434  -1.608 127.440  0.00  0.00    -0.506 OA
ATOM     12  H   LIG A   1      -4.875  -2.148 128.038  0.00  0.00    +0.292 HD
ENDBRANCH   1  11
BRANCH   7  13
ATOM     13  O   LIG A   1      -5.457  -1.472 124.795  0.00  0.00    -0.506 OA
ATOM     14  H   LIG A   1      -5.576  -0.611 124.360  0.00  0.00    +0.292 HD
ENDBRANCH   7  13
TORSDOF 2
ENDMDL
