MODEL 1
REMARK VINA RESULT:      -7.1      0.000      0.000
REMARK  Name = NuBBE_211
REMARK  20 active torsions:
REMARK  status: ('A' for Active; 'I' for Inactive)
REMARK    1  A    between atoms: O_1  and  C_2
REMARK    2  A    between atoms: C_5  and  C_6
REMARK    3  A    between atoms: C_7  and  C_8
REMARK    4  A    between atoms: C_8  and  O_9
REMARK    5  A    between atoms: O_9  and  C_10
REMARK    6  A    between atoms: C_12  and  C_14
REMARK    7  A    between atoms: C_17  and  C_19
REMARK    8  A    between atoms: C_19  and  C_20
REMARK    9  A    between atoms: C_20  and  C_21
REMARK   10  A    between atoms: C_21  and  C_22
REMARK   11  A    between atoms: C_22  and  C_23
REMARK   12  A    between atoms: C_23  and  C_24
REMARK   13  A    between atoms: C_24  and  C_25
REMARK   14  A    between atoms: C_25  and  C_26
REMARK   15  A    between atoms: C_26  and  C_27
REMARK   16  A    between atoms: C_27  and  C_28
REMARK   17  A    between atoms: C_28  and  C_29
REMARK   18  A    between atoms: C_29  and  C_30
REMARK   19  A    between atoms: C_36  and  O_37
REMARK   20  A    between atoms: O_37  and  C_38
REMARK                            x       y       z     vdW  Elec       q    Type
REMARK                         _______ _______ _______ _____ _____    ______ ____
ROOT
ATOM      1  C   LIG A   1      -8.761  -1.836 122.992  0.00  0.00    +0.193 C 
ATOM      2  C   LIG A   1      -7.295  -2.289 123.235  0.00  0.00    +0.092 C 
ATOM      3  C   LIG A   1      -6.233  -1.456 122.518  0.00  0.00    +0.028 C 
ATOM      4  N   LIG A   1      -6.982  -2.248 124.666  0.00  0.00    -0.307 NA
ATOM      5  H   LIG A   1      -7.076  -1.274 124.948  0.00  0.00    +0.123 HD
ATOM      6  C   LIG A   1      -7.871  -3.087 125.487  0.00  0.00    +0.054 C 
ATOM      7  C   LIG A   1      -9.376  -3.008 125.150  0.00  0.00    +0.022 C 
ATOM      8  C   LIG A   1      -9.643  -2.922 123.651  0.00  0.00    +0.048 C 
ENDROOT
BRANCH   1   9
ATOM      9  O   LIG A   1      -9.042  -0.571 123.650  0.00  0.00    -0.457 OA
BRANCH   9  10
ATOM     10  C   LIG A   1      -9.746   0.377 122.984  0.00  0.00    +0.332 C 
ATOM     11  O   LIG A   1     -10.915   0.308 122.630  0.00  0.00    -0.246 OA
BRANCH  10  13
ATOM     12  C   LIG A   1      -7.886   1.997 123.263  0.00  0.00    +0.015 C 
ATOM     13  C   LIG A   1      -8.846   1.454 122.502  0.00  0.00    +0.092 C 
BRANCH  12  17
ATOM     14  C   LIG A   1      -4.973   4.833 121.861  0.00  0.00    +0.159 A 
ATOM     15  C   LIG A   1      -5.049   4.502 123.212  0.00  0.00    +0.050 A 
ATOM     16  C   LIG A   1      -5.968   3.550 123.650  0.00  0.00    +0.012 A 
ATOM     17  C   LIG A   1      -6.813   2.881 122.746  0.00  0.00    -0.021 A 
ATOM     18  C   LIG A   1      -6.783   3.282 121.391  0.00  0.00    +0.057 A 
ATOM     19  C   LIG A   1      -5.882   4.284 120.942  0.00  0.00    +0.162 A 
BRANCH  19  20
ATOM     20  O   LIG A   1      -6.130   4.757 119.669  0.00  0.00    -0.491 OA
ATOM     21  C   LIG A   1      -7.337   4.330 119.031  0.00  0.00    +0.277 C 
ENDBRANCH  19  20
BRANCH  14  22
ATOM     22  O   LIG A   1      -4.085   5.816 121.506  0.00  0.00    -0.503 OA
ATOM     23  H   LIG A   1      -3.194   5.595 121.824  0.00  0.00    +0.292 HD
ENDBRANCH  14  22
ENDBRANCH  12  17
ENDBRANCH  10  13
ENDBRANCH   9  10
ENDBRANCH   1   9
BRANCH   6  24
ATOM     24  C   LIG A   1      -7.648  -2.734 126.957  0.00  0.00    +0.019 C 
BRANCH  24  25
ATOM     25  C   LIG A   1      -8.673  -3.405 127.836  0.00  0.00    +0.002 C 
BRANCH  25  26
ATOM     26  C   LIG A   1      -8.275  -3.362 129.260  0.00  0.00    +0.000 C 
BRANCH  26  27
ATOM     27  C   LIG A   1      -6.846  -2.997 129.523  0.00  0.00    -0.000 C 
BRANCH  27  28
ATOM     28  C   LIG A   1      -6.743  -1.696 130.306  0.00  0.00    -0.000 C 
BRANCH  28  29
ATOM     29  C   LIG A   1      -7.932  -0.741 130.398  0.00  0.00    -0.000 C 
BRANCH  29  30
ATOM     30  C   LIG A   1      -7.827   0.727 129.928  0.00  0.00    +0.000 C 
BRANCH  30  31
ATOM     31  C   LIG A   1      -8.323   1.141 128.543  0.00  0.00    +0.000 C 
BRANCH  31  32
ATOM     32  C   LIG A   1      -7.351   1.057 127.350  0.00  0.00    +0.007 C 
BRANCH  32  33
ATOM     33  C   LIG A   1      -6.283   2.155 127.225  0.00  0.00    +0.074 C 
BRANCH  33  34
ATOM     34  C   LIG A   1      -5.038   1.574 126.541  0.00  0.00    +0.130 C 
ATOM     35  C   LIG A   1      -5.098   0.199 125.913  0.00  0.00    +0.086 C 
ATOM     36  O   LIG A   1      -4.053   2.209 126.397  0.00  0.00    -0.298 OA
ENDBRANCH  33  34
ENDBRANCH  32  33
ENDBRANCH  31  32
ENDBRANCH  30  31
ENDBRANCH  29  30
ENDBRANCH  28  29
ENDBRANCH  27  28
ENDBRANCH  26  27
ENDBRANCH  25  26
ENDBRANCH  24  25
ENDBRANCH   6  24
TORSDOF 17
ENDMDL
MODEL 2
REMARK VINA RESULT:      -7.1      2.358      6.236
REMARK  Name = NuBBE_211
REMARK  20 active torsions:
REMARK  status: ('A' for Active; 'I' for Inactive)
REMARK    1  A    between atoms: O_1  and  C_2
REMARK    2  A    between atoms: C_5  and  C_6
REMARK    3  A    between atoms: C_7  and  C_8
REMARK    4  A    between atoms: C_8  and  O_9
REMARK    5  A    between atoms: O_9  and  C_10
REMARK    6  A    between atoms: C_12  and  C_14
REMARK    7  A    between atoms: C_17  and  C_19
REMARK    8  A    between atoms: C_19  and  C_20
REMARK    9  A    between atoms: C_20  and  C_21
REMARK   10  A    between atoms: C_21  and  C_22
REMARK   11  A    between atoms: C_22  and  C_23
REMARK   12  A    between atoms: C_23  and  C_24
REMARK   13  A    between atoms: C_24  and  C_25
REMARK   14  A    between atoms: C_25  and  C_26
REMARK   15  A    between atoms: C_26  and  C_27
REMARK   16  A    between atoms: C_27  and  C_28
REMARK   17  A    between atoms: C_28  and  C_29
REMARK   18  A    between atoms: C_29  and  C_30
REMARK   19  A    between atoms: C_36  and  O_37
REMARK   20  A    between atoms: O_37  and  C_38
REMARK                            x       y       z     vdW  Elec       q    Type
REMARK                         _______ _______ _______ _____ _____    ______ ____
ROOT
ATOM      1  C   LIG A   1      -6.978  -2.563 125.091  0.00  0.00    +0.193 C 
ATOM      2  C   LIG A   1      -8.481  -2.937 125.212  0.00  0.00    +0.092 C 
ATOM      3  C   LIG A   1      -8.960  -3.244 126.631  0.00  0.00    +0.028 C 
ATOM      4  N   LIG A   1      -9.318  -1.849 124.700  0.00  0.00    -0.307 NA
ATOM      5  H   LIG A   1      -9.131  -1.044 125.296  0.00  0.00    +0.123 HD
ATOM      6  C   LIG A   1      -9.036  -1.500 123.297  0.00  0.00    +0.054 C 
ATOM      7  C   LIG A   1      -7.544  -1.408 122.911  0.00  0.00    +0.022 C 
ATOM      8  C   LIG A   1      -6.693  -2.486 123.572  0.00  0.00    +0.048 C 
ENDROOT
BRANCH   1   9
ATOM      9  O   LIG A   1      -6.709  -1.255 125.663  0.00  0.00    -0.457 OA
BRANCH   9  10
ATOM     10  C   LIG A   1      -5.619  -1.092 126.453  0.00  0.00    +0.332 C 
ATOM     11  O   LIG A   1      -5.202  -1.874 127.297  0.00  0.00    -0.246 OA
BRANCH  10  13
ATOM     12  C   LIG A   1      -5.297   1.219 127.300  0.00  0.00    +0.015 C 
ATOM     13  C   LIG A   1      -5.101   0.294 126.349  0.00  0.00    +0.092 C 
BRANCH  12  17
ATOM     14  C   LIG A   1      -3.011   4.843 127.668  0.00  0.00    +0.159 A 
ATOM     15  C   LIG A   1      -2.620   3.843 126.779  0.00  0.00    +0.050 A 
ATOM     16  C   LIG A   1      -3.392   2.692 126.637  0.00  0.00    +0.012 A 
ATOM     17  C   LIG A   1      -4.590   2.521 127.354  0.00  0.00    -0.021 A 
ATOM     18  C   LIG A   1      -4.934   3.503 128.310  0.00  0.00    +0.057 A 
ATOM     19  C   LIG A   1      -4.131   4.660 128.497  0.00  0.00    +0.162 A 
BRANCH  19  20
ATOM     20  O   LIG A   1      -4.433   5.400 129.622  0.00  0.00    -0.491 OA
ATOM     21  C   LIG A   1      -4.125   4.821 130.893  0.00  0.00    +0.277 C 
ENDBRANCH  19  20
BRANCH  14  22
ATOM     22  O   LIG A   1      -2.179   5.925 127.800  0.00  0.00    -0.503 OA
ATOM     23  H   LIG A   1      -1.513   5.925 127.092  0.00  0.00    +0.292 HD
ENDBRANCH  14  22
ENDBRANCH  12  17
ENDBRANCH  10  13
ENDBRANCH   9  10
ENDBRANCH   1   9
BRANCH   6  24
ATOM     24  C   LIG A   1      -9.740  -0.182 122.977  0.00  0.00    +0.019 C 
BRANCH  24  25
ATOM     25  C   LIG A   1      -8.779   0.978 123.060  0.00  0.00    +0.002 C 
BRANCH  25  26
ATOM     26  C   LIG A   1      -9.196   1.953 124.090  0.00  0.00    +0.000 C 
BRANCH  26  27
ATOM     27  C   LIG A   1      -8.635   1.726 125.461  0.00  0.00    -0.000 C 
BRANCH  27  28
ATOM     28  C   LIG A   1      -8.080   3.015 126.051  0.00  0.00    -0.000 C 
BRANCH  28  29
ATOM     29  C   LIG A   1      -7.746   4.206 125.155  0.00  0.00    -0.000 C 
BRANCH  29  30
ATOM     30  C   LIG A   1      -6.288   4.667 124.933  0.00  0.00    +0.000 C 
BRANCH  30  31
ATOM     31  C   LIG A   1      -5.512   4.233 123.690  0.00  0.00    +0.000 C 
BRANCH  31  32
ATOM     32  C   LIG A   1      -6.281   3.587 122.521  0.00  0.00    +0.007 C 
BRANCH  32  33
ATOM     33  C   LIG A   1      -5.840   3.946 121.094  0.00  0.00    +0.074 C 
BRANCH  33  34
ATOM     34  C   LIG A   1      -7.076   4.033 120.189  0.00  0.00    +0.130 C 
ATOM     35  C   LIG A   1      -8.452   3.801 120.771  0.00  0.00    +0.086 C 
ATOM     36  O   LIG A   1      -6.998   4.377 119.062  0.00  0.00    -0.298 OA
ENDBRANCH  33  34
ENDBRANCH  32  33
ENDBRANCH  31  32
ENDBRANCH  30  31
ENDBRANCH  29  30
ENDBRANCH  28  29
ENDBRANCH  27  28
ENDBRANCH  26  27
ENDBRANCH  25  26
ENDBRANCH  24  25
ENDBRANCH   6  24
TORSDOF 17
ENDMDL
MODEL 3
REMARK VINA RESULT:      -6.7      2.410      7.607
REMARK  Name = NuBBE_211
REMARK  20 active torsions:
REMARK  status: ('A' for Active; 'I' for Inactive)
REMARK    1  A    between atoms: O_1  and  C_2
REMARK    2  A    between atoms: C_5  and  C_6
REMARK    3  A    between atoms: C_7  and  C_8
REMARK    4  A    between atoms: C_8  and  O_9
REMARK    5  A    between atoms: O_9  and  C_10
REMARK    6  A    between atoms: C_12  and  C_14
REMARK    7  A    between atoms: C_17  and  C_19
REMARK    8  A    between atoms: C_19  and  C_20
REMARK    9  A    between atoms: C_20  and  C_21
REMARK   10  A    between atoms: C_21  and  C_22
REMARK   11  A    between atoms: C_22  and  C_23
REMARK   12  A    between atoms: C_23  and  C_24
REMARK   13  A    between atoms: C_24  and  C_25
REMARK   14  A    between atoms: C_25  and  C_26
REMARK   15  A    between atoms: C_26  and  C_27
REMARK   16  A    between atoms: C_27  and  C_28
REMARK   17  A    between atoms: C_28  and  C_29
REMARK   18  A    between atoms: C_29  and  C_30
REMARK   19  A    between atoms: C_36  and  O_37
REMARK   20  A    between atoms: O_37  and  C_38
REMARK                            x       y       z     vdW  Elec       q    Type
REMARK                         _______ _______ _______ _____ _____    ______ ____
ROOT
ATOM      1  C   LIG A   1      -7.353  -2.278 123.412  0.00  0.00    +0.193 C 
ATOM      2  C   LIG A   1      -8.866  -2.047 123.146  0.00  0.00    +0.092 C 
ATOM      3  C   LIG A   1      -9.729  -3.309 123.180  0.00  0.00    +0.028 C 
ATOM      4  N   LIG A   1      -9.420  -1.120 124.136  0.00  0.00    -0.307 NA
ATOM      5  H   LIG A   1      -9.311  -1.573 125.041  0.00  0.00    +0.123 HD
ATOM      6  C   LIG A   1      -8.746   0.190 124.156  0.00  0.00    +0.054 C 
ATOM      7  C   LIG A   1      -7.204   0.156 124.090  0.00  0.00    +0.022 C 
ATOM      8  C   LIG A   1      -6.675  -0.914 123.143  0.00  0.00    +0.048 C 
ENDROOT
BRANCH   1   9
ATOM      9  O   LIG A   1      -7.107  -2.634 124.799  0.00  0.00    -0.457 OA
BRANCH   9  10
ATOM     10  C   LIG A   1      -5.828  -2.704 125.245  0.00  0.00    +0.332 C 
ATOM     11  O   LIG A   1      -4.881  -3.227 124.675  0.00  0.00    -0.246 OA
BRANCH  10  13
ATOM     12  C   LIG A   1      -6.775  -2.365 127.515  0.00  0.00    +0.015 C 
ATOM     13  C   LIG A   1      -5.745  -2.270 126.662  0.00  0.00    +0.092 C 
BRANCH  12  17
ATOM     14  C   LIG A   1      -6.783  -1.775 131.776  0.00  0.00    +0.159 A 
ATOM     15  C   LIG A   1      -7.201  -2.984 131.225  0.00  0.00    +0.050 A 
ATOM     16  C   LIG A   1      -7.154  -3.180 129.846  0.00  0.00    +0.012 A 
ATOM     17  C   LIG A   1      -6.659  -2.186 128.983  0.00  0.00    -0.021 A 
ATOM     18  C   LIG A   1      -6.313  -0.935 129.544  0.00  0.00    +0.057 A 
ATOM     19  C   LIG A   1      -6.401  -0.709 130.943  0.00  0.00    +0.162 A 
BRANCH  19  20
ATOM     20  O   LIG A   1      -6.283   0.613 131.325  0.00  0.00    -0.491 OA
ATOM     21  C   LIG A   1      -7.412   1.463 131.110  0.00  0.00    +0.277 C 
ENDBRANCH  19  20
BRANCH  14  22
ATOM     22  O   LIG A   1      -6.906  -1.628 133.133  0.00  0.00    -0.503 OA
ATOM     23  H   LIG A   1      -6.175  -2.079 133.587  0.00  0.00    +0.292 HD
ENDBRANCH  14  22
ENDBRANCH  12  17
ENDBRANCH  10  13
ENDBRANCH   9  10
ENDBRANCH   1   9
BRANCH   6  24
ATOM     24  C   LIG A   1      -9.198   0.946 125.405  0.00  0.00    +0.019 C 
BRANCH  24  25
ATOM     25  C   LIG A   1      -8.392   0.530 126.610  0.00  0.00    +0.002 C 
BRANCH  25  26
ATOM     26  C   LIG A   1      -7.913   1.703 127.371  0.00  0.00    +0.000 C 
BRANCH  26  27
ATOM     27  C   LIG A   1      -6.465   2.043 127.196  0.00  0.00    -0.000 C 
BRANCH  27  28
ATOM     28  C   LIG A   1      -6.291   3.328 126.399  0.00  0.00    -0.000 C 
BRANCH  28  29
ATOM     29  C   LIG A   1      -5.642   3.308 125.015  0.00  0.00    -0.000 C 
BRANCH  29  30
ATOM     30  C   LIG A   1      -6.354   3.905 123.780  0.00  0.00    +0.000 C 
BRANCH  30  31
ATOM     31  C   LIG A   1      -6.413   3.132 122.463  0.00  0.00    +0.000 C 
BRANCH  31  32
ATOM     32  C   LIG A   1      -5.474   3.547 121.314  0.00  0.00    +0.007 C 
BRANCH  32  33
ATOM     33  C   LIG A   1      -6.121   4.049 120.014  0.00  0.00    +0.074 C 
BRANCH  33  34
ATOM     34  C   LIG A   1      -5.487   5.390 119.618  0.00  0.00    +0.130 C 
ATOM     35  C   LIG A   1      -5.872   6.046 118.311  0.00  0.00    +0.086 C 
ATOM     36  O   LIG A   1      -4.778   5.984 120.352  0.00  0.00    -0.298 OA
ENDBRANCH  33  34
ENDBRANCH  32  33
ENDBRANCH  31  32
ENDBRANCH  30  31
ENDBRANCH  29  30
ENDBRANCH  28  29
ENDBRANCH  27  28
ENDBRANCH  26  27
ENDBRANCH  25  26
ENDBRANCH  24  25
ENDBRANCH   6  24
TORSDOF 17
ENDMDL
MODEL 4
REMARK VINA RESULT:      -6.7      2.209      4.204
REMARK  Name = NuBBE_211
REMARK  20 active torsions:
REMARK  status: ('A' for Active; 'I' for Inactive)
REMARK    1  A    between atoms: O_1  and  C_2
REMARK    2  A    between atoms: C_5  and  C_6
REMARK    3  A    between atoms: C_7  and  C_8
REMARK    4  A    between atoms: C_8  and  O_9
REMARK    5  A    between atoms: O_9  and  C_10
REMARK    6  A    between atoms: C_12  and  C_14
REMARK    7  A    between atoms: C_17  and  C_19
REMARK    8  A    between atoms: C_19  and  C_20
REMARK    9  A    between atoms: C_20  and  C_21
REMARK   10  A    between atoms: C_21  and  C_22
REMARK   11  A    between atoms: C_22  and  C_23
REMARK   12  A    between atoms: C_23  and  C_24
REMARK   13  A    between atoms: C_24  and  C_25
REMARK   14  A    between atoms: C_25  and  C_26
REMARK   15  A    between atoms: C_26  and  C_27
REMARK   16  A    between atoms: C_27  and  C_28
REMARK   17  A    between atoms: C_28  and  C_29
REMARK   18  A    between atoms: C_29  and  C_30
REMARK   19  A    between atoms: C_36  and  O_37
REMARK   20  A    between atoms: O_37  and  C_38
REMARK                            x       y       z     vdW  Elec       q    Type
REMARK                         _______ _______ _______ _____ _____    ______ ____
ROOT
ATOM      1  C   LIG A   1      -8.950   2.016 125.111  0.00  0.00    +0.193 C 
ATOM      2  C   LIG A   1      -9.493   1.399 123.792  0.00  0.00    +0.092 C 
ATOM      3  C   LIG A   1      -9.418   2.315 122.570  0.00  0.00    +0.028 C 
ATOM      4  N   LIG A   1      -8.755   0.177 123.462  0.00  0.00    -0.307 NA
ATOM      5  H   LIG A   1      -7.788   0.461 123.318  0.00  0.00    +0.123 HD
ATOM      6  C   LIG A   1      -8.816  -0.850 124.517  0.00  0.00    +0.054 C 
ATOM      7  C   LIG A   1      -8.621  -0.345 125.963  0.00  0.00    +0.022 C 
ATOM      8  C   LIG A   1      -9.301   0.996 126.219  0.00  0.00    +0.048 C 
ENDROOT
BRANCH   1   9
ATOM      9  O   LIG A   1      -7.505   2.158 125.074  0.00  0.00    -0.457 OA
BRANCH   9  10
ATOM     10  C   LIG A   1      -6.955   3.375 125.310  0.00  0.00    +0.332 C 
ATOM     11  O   LIG A   1      -6.908   3.963 126.382  0.00  0.00    -0.246 OA
BRANCH  10  13
ATOM     12  C   LIG A   1      -6.008   3.421 123.015  0.00  0.00    +0.015 C 
ATOM     13  C   LIG A   1      -6.613   4.050 124.033  0.00  0.00    +0.092 C 
BRANCH  12  17
ATOM     14  C   LIG A   1      -5.781   5.339 119.173  0.00  0.00    +0.159 A 
ATOM     15  C   LIG A   1      -4.811   5.579 120.145  0.00  0.00    +0.050 A 
ATOM     16  C   LIG A   1      -4.871   4.919 121.371  0.00  0.00    +0.012 A 
ATOM     17  C   LIG A   1      -5.881   3.980 121.648  0.00  0.00    -0.021 A 
ATOM     18  C   LIG A   1      -6.903   3.805 120.687  0.00  0.00    +0.057 A 
ATOM     19  C   LIG A   1      -6.878   4.506 119.452  0.00  0.00    +0.162 A 
BRANCH  19  20
ATOM     20  O   LIG A   1      -8.049   4.442 118.725  0.00  0.00    -0.491 OA
ATOM     21  C   LIG A   1      -9.256   4.167 119.442  0.00  0.00    +0.277 C 
ENDBRANCH  19  20
BRANCH  14  22
ATOM     22  O   LIG A   1      -5.694   6.061 118.010  0.00  0.00    -0.503 OA
ATOM     23  H   LIG A   1      -6.575   6.171 117.617  0.00  0.00    +0.292 HD
ENDBRANCH  14  22
ENDBRANCH  12  17
ENDBRANCH  10  13
ENDBRANCH   9  10
ENDBRANCH   1   9
BRANCH   6  24
ATOM     24  C   LIG A   1      -7.783  -1.930 124.199  0.00  0.00    +0.019 C 
BRANCH  24  25
ATOM     25  C   LIG A   1      -8.449  -3.178 123.676  0.00  0.00    +0.002 C 
BRANCH  25  26
ATOM     26  C   LIG A   1      -8.829  -4.089 124.776  0.00  0.00    +0.000 C 
BRANCH  26  27
ATOM     27  C   LIG A   1      -8.109  -3.876 126.072  0.00  0.00    -0.000 C 
BRANCH  27  28
ATOM     28  C   LIG A   1      -9.086  -3.733 127.231  0.00  0.00    -0.000 C 
BRANCH  28  29
ATOM     29  C   LIG A   1      -8.590  -3.721 128.676  0.00  0.00    -0.000 C 
BRANCH  29  30
ATOM     30  C   LIG A   1      -7.604  -2.644 129.183  0.00  0.00    +0.000 C 
BRANCH  30  31
ATOM     31  C   LIG A   1      -6.783  -2.872 130.452  0.00  0.00    +0.000 C 
BRANCH  31  32
ATOM     32  C   LIG A   1      -6.108  -4.241 130.664  0.00  0.00    +0.007 C 
BRANCH  32  33
ATOM     33  C   LIG A   1      -4.695  -4.250 131.268  0.00  0.00    +0.074 C 
BRANCH  33  34
ATOM     34  C   LIG A   1      -3.785  -3.333 130.440  0.00  0.00    +0.130 C 
ATOM     35  C   LIG A   1      -3.386  -3.735 129.037  0.00  0.00    +0.086 C 
ATOM     36  O   LIG A   1      -3.462  -2.264 130.825  0.00  0.00    -0.298 OA
ENDBRANCH  33  34
ENDBRANCH  32  33
ENDBRANCH  31  32
ENDBRANCH  30  31
ENDBRANCH  29  30
ENDBRANCH  28  29
ENDBRANCH  27  28
ENDBRANCH  26  27
ENDBRANCH  25  26
ENDBRANCH  24  25
ENDBRANCH   6  24
TORSDOF 17
ENDMDL
MODEL 5
REMARK VINA RESULT:      -6.7      2.541      4.070
REMARK  Name = NuBBE_211
REMARK  20 active torsions:
REMARK  status: ('A' for Active; 'I' for Inactive)
REMARK    1  A    between atoms: O_1  and  C_2
REMARK    2  A    between atoms: C_5  and  C_6
REMARK    3  A    between atoms: C_7  and  C_8
REMARK    4  A    between atoms: C_8  and  O_9
REMARK    5  A    between atoms: O_9  and  C_10
REMARK    6  A    between atoms: C_12  and  C_14
REMARK    7  A    between atoms: C_17  and  C_19
REMARK    8  A    between atoms: C_19  and  C_20
REMARK    9  A    between atoms: C_20  and  C_21
REMARK   10  A    between atoms: C_21  and  C_22
REMARK   11  A    between atoms: C_22  and  C_23
REMARK   12  A    between atoms: C_23  and  C_24
REMARK   13  A    between atoms: C_24  and  C_25
REMARK   14  A    between atoms: C_25  and  C_26
REMARK   15  A    between atoms: C_26  and  C_27
REMARK   16  A    between atoms: C_27  and  C_28
REMARK   17  A    between atoms: C_28  and  C_29
REMARK   18  A    between atoms: C_29  and  C_30
REMARK   19  A    between atoms: C_36  and  O_37
REMARK   20  A    between atoms: O_37  and  C_38
REMARK                            x       y       z     vdW  Elec       q    Type
REMARK                         _______ _______ _______ _____ _____    ______ ____
ROOT
ATOM      1  C   LIG A   1      -8.325  -1.270 123.629  0.00  0.00    +0.193 C 
ATOM      2  C   LIG A   1      -7.159  -1.474 124.635  0.00  0.00    +0.092 C 
ATOM      3  C   LIG A   1      -6.344  -0.218 124.944  0.00  0.00    +0.028 C 
ATOM      4  N   LIG A   1      -7.672  -1.981 125.911  0.00  0.00    -0.307 NA
ATOM      5  H   LIG A   1      -8.295  -1.260 126.271  0.00  0.00    +0.123 HD
ATOM      6  C   LIG A   1      -8.408  -3.251 125.786  0.00  0.00    +0.054 C 
ATOM      7  C   LIG A   1      -9.398  -3.344 124.606  0.00  0.00    +0.022 C 
ATOM      8  C   LIG A   1      -8.869  -2.688 123.335  0.00  0.00    +0.048 C 
ENDROOT
BRANCH   1   9
ATOM      9  O   LIG A   1      -9.402  -0.490 124.215  0.00  0.00    -0.457 OA
BRANCH   9  10
ATOM     10  C   LIG A   1      -9.886   0.579 123.537  0.00  0.00    +0.332 C 
ATOM     11  O   LIG A   1     -11.063   0.841 123.326  0.00  0.00    -0.246 OA
BRANCH  10  13
ATOM     12  C   LIG A   1      -8.434   2.556 123.157  0.00  0.00    +0.015 C 
ATOM     13  C   LIG A   1      -8.789   1.301 122.847  0.00  0.00    +0.092 C 
BRANCH  12  17
ATOM     14  C   LIG A   1      -4.992   4.772 121.837  0.00  0.00    +0.159 A 
ATOM     15  C   LIG A   1      -5.201   4.524 123.192  0.00  0.00    +0.050 A 
ATOM     16  C   LIG A   1      -6.296   3.768 123.605  0.00  0.00    +0.012 A 
ATOM     17  C   LIG A   1      -7.195   3.214 122.676  0.00  0.00    -0.021 A 
ATOM     18  C   LIG A   1      -7.020   3.538 121.312  0.00  0.00    +0.057 A 
ATOM     19  C   LIG A   1      -5.932   4.346 120.883  0.00  0.00    +0.162 A 
BRANCH  19  20
ATOM     20  O   LIG A   1      -6.021   4.794 119.580  0.00  0.00    -0.491 OA
ATOM     21  C   LIG A   1      -7.225   4.503 118.864  0.00  0.00    +0.277 C 
ENDBRANCH  19  20
BRANCH  14  22
ATOM     22  O   LIG A   1      -3.926   5.567 121.502  0.00  0.00    -0.503 OA
ATOM     23  H   LIG A   1      -4.142   6.501 121.658  0.00  0.00    +0.292 HD
ENDBRANCH  14  22
ENDBRANCH  12  17
ENDBRANCH  10  13
ENDBRANCH   9  10
ENDBRANCH   1   9
BRANCH   6  24
ATOM     24  C   LIG A   1      -9.139  -3.516 127.101  0.00  0.00    +0.019 C 
BRANCH  24  25
ATOM     25  C   LIG A   1      -8.182  -3.988 128.167  0.00  0.00    +0.002 C 
BRANCH  25  26
ATOM     26  C   LIG A   1      -8.361  -3.235 129.427  0.00  0.00    +0.000 C 
BRANCH  26  27
ATOM     27  C   LIG A   1      -7.099  -2.804 130.109  0.00  0.00    -0.000 C 
BRANCH  27  28
ATOM     28  C   LIG A   1      -5.946  -3.744 129.785  0.00  0.00    -0.000 C 
BRANCH  28  29
ATOM     29  C   LIG A   1      -5.685  -4.985 130.638  0.00  0.00    -0.000 C 
BRANCH  29  30
ATOM     30  C   LIG A   1      -4.799  -4.925 131.903  0.00  0.00    +0.000 C 
BRANCH  30  31
ATOM     31  C   LIG A   1      -5.333  -5.402 133.253  0.00  0.00    +0.000 C 
BRANCH  31  32
ATOM     32  C   LIG A   1      -6.143  -4.419 134.121  0.00  0.00    +0.007 C 
BRANCH  32  33
ATOM     33  C   LIG A   1      -5.555  -3.017 134.344  0.00  0.00    +0.074 C 
BRANCH  33  34
ATOM     34  C   LIG A   1      -6.690  -1.983 134.321  0.00  0.00    +0.130 C 
ATOM     35  C   LIG A   1      -7.946  -2.264 133.527  0.00  0.00    +0.086 C 
ATOM     36  O   LIG A   1      -6.659  -1.010 134.989  0.00  0.00    -0.298 OA
ENDBRANCH  33  34
ENDBRANCH  32  33
ENDBRANCH  31  32
ENDBRANCH  30  31
ENDBRANCH  29  30
ENDBRANCH  28  29
ENDBRANCH  27  28
ENDBRANCH  26  27
ENDBRANCH  25  26
ENDBRANCH  24  25
ENDBRANCH   6  24
TORSDOF 17
ENDMDL
MODEL 6
REMARK VINA RESULT:      -6.5      5.198      7.861
REMARK  Name = NuBBE_211
REMARK  20 active torsions:
REMARK  status: ('A' for Active; 'I' for Inactive)
REMARK    1  A    between atoms: O_1  and  C_2
REMARK    2  A    between atoms: C_5  and  C_6
REMARK    3  A    between atoms: C_7  and  C_8
REMARK    4  A    between atoms: C_8  and  O_9
REMARK    5  A    between atoms: O_9  and  C_10
REMARK    6  A    between atoms: C_12  and  C_14
REMARK    7  A    between atoms: C_17  and  C_19
REMARK    8  A    between atoms: C_19  and  C_20
REMARK    9  A    between atoms: C_20  and  C_21
REMARK   10  A    between atoms: C_21  and  C_22
REMARK   11  A    between atoms: C_22  and  C_23
REMARK   12  A    between atoms: C_23  and  C_24
REMARK   13  A    between atoms: C_24  and  C_25
REMARK   14  A    between atoms: C_25  and  C_26
REMARK   15  A    between atoms: C_26  and  C_27
REMARK   16  A    between atoms: C_27  and  C_28
REMARK   17  A    between atoms: C_28  and  C_29
REMARK   18  A    between atoms: C_29  and  C_30
REMARK   19  A    between atoms: C_36  and  O_37
REMARK   20  A    between atoms: O_37  and  C_38
REMARK                            x       y       z     vdW  Elec       q    Type
REMARK                         _______ _______ _______ _____ _____    ______ ____
ROOT
ATOM      1  C   LIG A   1      -7.682   3.123 130.148  0.00  0.00    +0.193 C 
ATOM      2  C   LIG A   1      -6.261   2.787 130.678  0.00  0.00    +0.092 C 
ATOM      3  C   LIG A   1      -5.845   3.544 131.939  0.00  0.00    +0.028 C 
ATOM      4  N   LIG A   1      -6.156   1.357 130.980  0.00  0.00    -0.307 NA
ATOM      5  H   LIG A   1      -6.834   1.173 131.717  0.00  0.00    +0.123 HD
ATOM      6  C   LIG A   1      -6.439   0.489 129.823  0.00  0.00    +0.054 C 
ATOM      7  C   LIG A   1      -7.661   0.884 128.966  0.00  0.00    +0.022 C 
ATOM      8  C   LIG A   1      -7.799   2.392 128.790  0.00  0.00    +0.048 C 
ENDROOT
BRANCH   1   9
ATOM      9  O   LIG A   1      -8.714   2.599 131.028  0.00  0.00    -0.457 OA
BRANCH   9  10
ATOM     10  C   LIG A   1      -9.299   3.430 131.925  0.00  0.00    +0.332 C 
ATOM     11  O   LIG A   1      -9.340   3.285 133.140  0.00  0.00    -0.246 OA
BRANCH  10  13
ATOM     12  C   LIG A   1     -10.335   5.677 131.731  0.00  0.00    +0.015 C 
ATOM     13  C   LIG A   1     -10.123   4.451 131.233  0.00  0.00    +0.092 C 
BRANCH  12  17
ATOM     14  C   LIG A   1     -12.256   8.688 129.335  0.00  0.00    +0.159 A 
ATOM     15  C   LIG A   1     -12.885   8.173 130.466  0.00  0.00    +0.050 A 
ATOM     16  C   LIG A   1     -12.235   7.229 131.259  0.00  0.00    +0.012 A 
ATOM     17  C   LIG A   1     -10.930   6.797 130.962  0.00  0.00    -0.021 A 
ATOM     18  C   LIG A   1     -10.333   7.267 129.770  0.00  0.00    +0.057 A 
ATOM     19  C   LIG A   1     -11.004   8.195 128.929  0.00  0.00    +0.162 A 
BRANCH  19  20
ATOM     20  O   LIG A   1     -10.430   8.370 127.686  0.00  0.00    -0.491 OA
ATOM     21  C   LIG A   1     -10.884   7.524 126.626  0.00  0.00    +0.277 C 
ENDBRANCH  19  20
BRANCH  14  22
ATOM     22  O   LIG A   1     -12.971   9.573 128.569  0.00  0.00    -0.503 OA
ATOM     23  H   LIG A   1     -13.525   9.093 127.931  0.00  0.00    +0.292 HD
ENDBRANCH  14  22
ENDBRANCH  12  17
ENDBRANCH  10  13
ENDBRANCH   9  10
ENDBRANCH   1   9
BRANCH   6  24
ATOM     24  C   LIG A   1      -6.595  -0.946 130.323  0.00  0.00    +0.019 C 
BRANCH  24  25
ATOM     25  C   LIG A   1      -5.750  -1.896 129.512  0.00  0.00    +0.002 C 
BRANCH  25  26
ATOM     26  C   LIG A   1      -6.552  -2.594 128.486  0.00  0.00    +0.000 C 
BRANCH  26  27
ATOM     27  C   LIG A   1      -7.518  -3.616 129.002  0.00  0.00    -0.000 C 
BRANCH  27  28
ATOM     28  C   LIG A   1      -8.763  -3.692 128.130  0.00  0.00    -0.000 C 
BRANCH  28  29
ATOM     29  C   LIG A   1      -8.661  -3.573 126.610  0.00  0.00    -0.000 C 
BRANCH  29  30
ATOM     30  C   LIG A   1      -9.287  -2.384 125.848  0.00  0.00    +0.000 C 
BRANCH  30  31
ATOM     31  C   LIG A   1      -8.645  -0.998 125.898  0.00  0.00    +0.000 C 
BRANCH  31  32
ATOM     32  C   LIG A   1      -7.664  -0.593 124.780  0.00  0.00    +0.007 C 
BRANCH  32  33
ATOM     33  C   LIG A   1      -6.223  -1.117 124.875  0.00  0.00    +0.074 C 
BRANCH  33  34
ATOM     34  C   LIG A   1      -5.963  -2.093 123.719  0.00  0.00    +0.130 C 
ATOM     35  C   LIG A   1      -5.469  -3.492 124.014  0.00  0.00    +0.086 C 
ATOM     36  O   LIG A   1      -6.233  -1.821 122.602  0.00  0.00    -0.298 OA
ENDBRANCH  33  34
ENDBRANCH  32  33
ENDBRANCH  31  32
ENDBRANCH  30  31
ENDBRANCH  29  30
ENDBRANCH  28  29
ENDBRANCH  27  28
ENDBRANCH  26  27
ENDBRANCH  25  26
ENDBRANCH  24  25
ENDBRANCH   6  24
TORSDOF 17
ENDMDL
MODEL 7
REMARK VINA RESULT:      -6.5      2.975      7.038
REMARK  Name = NuBBE_211
REMARK  20 active torsions:
REMARK  status: ('A' for Active; 'I' for Inactive)
REMARK    1  A    between atoms: O_1  and  C_2
REMARK    2  A    between atoms: C_5  and  C_6
REMARK    3  A    between atoms: C_7  and  C_8
REMARK    4  A    between atoms: C_8  and  O_9
REMARK    5  A    between atoms: O_9  and  C_10
REMARK    6  A    between atoms: C_12  and  C_14
REMARK    7  A    between atoms: C_17  and  C_19
REMARK    8  A    between atoms: C_19  and  C_20
REMARK    9  A    between atoms: C_20  and  C_21
REMARK   10  A    between atoms: C_21  and  C_22
REMARK   11  A    between atoms: C_22  and  C_23
REMARK   12  A    between atoms: C_23  and  C_24
REMARK   13  A    between atoms: C_24  and  C_25
REMARK   14  A    between atoms: C_25  and  C_26
REMARK   15  A    between atoms: C_26  and  C_27
REMARK   16  A    between atoms: C_27  and  C_28
REMARK   17  A    between atoms: C_28  and  C_29
REMARK   18  A    between atoms: C_29  and  C_30
REMARK   19  A    between atoms: C_36  and  O_37
REMARK   20  A    between atoms: O_37  and  C_38
REMARK                            x       y       z     vdW  Elec       q    Type
REMARK                         _______ _______ _______ _____ _____    ______ ____
ROOT
ATOM      1  C   LIG A   1      -8.367   3.147 123.926  0.00  0.00    +0.193 C 
ATOM      2  C   LIG A   1      -7.579   2.367 122.838  0.00  0.00    +0.092 C 
ATOM      3  C   LIG A   1      -6.621   3.214 122.001  0.00  0.00    +0.028 C 
ATOM      4  N   LIG A   1      -6.786   1.299 123.453  0.00  0.00    -0.307 NA
ATOM      5  H   LIG A   1      -6.123   1.760 124.072  0.00  0.00    +0.123 HD
ATOM      6  C   LIG A   1      -7.593   0.336 124.223  0.00  0.00    +0.054 C 
ATOM      7  C   LIG A   1      -8.680   0.945 125.136  0.00  0.00    +0.022 C 
ATOM      8  C   LIG A   1      -9.388   2.136 124.500  0.00  0.00    +0.048 C 
ENDROOT
BRANCH   1   9
ATOM      9  O   LIG A   1      -7.497   3.569 125.011  0.00  0.00    -0.457 OA
BRANCH   9  10
ATOM     10  C   LIG A   1      -8.027   4.258 126.052  0.00  0.00    +0.332 C 
ATOM     11  O   LIG A   1      -8.619   5.328 125.996  0.00  0.00    -0.246 OA
BRANCH  10  13
ATOM     12  C   LIG A   1      -8.429   3.445 128.363  0.00  0.00    +0.015 C 
ATOM     13  C   LIG A   1      -7.589   3.674 127.343  0.00  0.00    +0.092 C 
BRANCH  12  17
ATOM     14  C   LIG A   1      -7.781   1.085 131.899  0.00  0.00    +0.159 A 
ATOM     15  C   LIG A   1      -8.148   0.480 130.699  0.00  0.00    +0.050 A 
ATOM     16  C   LIG A   1      -8.313   1.250 129.548  0.00  0.00    +0.012 A 
ATOM     17  C   LIG A   1      -8.087   2.638 129.559  0.00  0.00    -0.021 A 
ATOM     18  C   LIG A   1      -7.794   3.252 130.797  0.00  0.00    +0.057 A 
ATOM     19  C   LIG A   1      -7.667   2.483 131.986  0.00  0.00    +0.162 A 
BRANCH  19  20
ATOM     20  O   LIG A   1      -7.636   3.221 133.152  0.00  0.00    -0.491 OA
ATOM     21  C   LIG A   1      -8.890   3.561 133.751  0.00  0.00    +0.277 C 
ENDBRANCH  19  20
BRANCH  14  22
ATOM     22  O   LIG A   1      -7.688   0.279 133.004  0.00  0.00    -0.503 OA
ATOM     23  H   LIG A   1      -7.867  -0.645 132.762  0.00  0.00    +0.292 HD
ENDBRANCH  14  22
ENDBRANCH  12  17
ENDBRANCH  10  13
ENDBRANCH   9  10
ENDBRANCH   1   9
BRANCH   6  24
ATOM     24  C   LIG A   1      -6.647  -0.534 125.049  0.00  0.00    +0.019 C 
BRANCH  24  25
ATOM     25  C   LIG A   1      -6.787  -0.238 126.521  0.00  0.00    +0.002 C 
BRANCH  25  26
ATOM     26  C   LIG A   1      -5.467  -0.115 127.176  0.00  0.00    +0.000 C 
BRANCH  26  27
ATOM     27  C   LIG A   1      -5.371  -0.698 128.553  0.00  0.00    -0.000 C 
BRANCH  27  28
ATOM     28  C   LIG A   1      -4.988  -2.170 128.506  0.00  0.00    -0.000 C 
BRANCH  28  29
ATOM     29  C   LIG A   1      -5.882  -3.232 129.145  0.00  0.00    -0.000 C 
BRANCH  29  30
ATOM     30  C   LIG A   1      -7.317  -2.904 129.615  0.00  0.00    +0.000 C 
BRANCH  30  31
ATOM     31  C   LIG A   1      -8.470  -2.836 128.614  0.00  0.00    +0.000 C 
BRANCH  31  32
ATOM     32  C   LIG A   1      -8.274  -3.443 127.211  0.00  0.00    +0.007 C 
BRANCH  32  33
ATOM     33  C   LIG A   1      -9.265  -3.029 126.112  0.00  0.00    +0.074 C 
BRANCH  33  34
ATOM     34  C   LIG A   1      -8.740  -3.507 124.752  0.00  0.00    +0.130 C 
ATOM     35  C   LIG A   1      -9.392  -3.014 123.479  0.00  0.00    +0.086 C 
ATOM     36  O   LIG A   1      -7.771  -4.176 124.658  0.00  0.00    -0.298 OA
ENDBRANCH  33  34
ENDBRANCH  32  33
ENDBRANCH  31  32
ENDBRANCH  30  31
ENDBRANCH  29  30
ENDBRANCH  28  29
ENDBRANCH  27  28
ENDBRANCH  26  27
ENDBRANCH  25  26
ENDBRANCH  24  25
ENDBRANCH   6  24
TORSDOF 17
ENDMDL
MODEL 8
REMARK VINA RESULT:      -6.5      3.739      7.954
REMARK  Name = NuBBE_211
REMARK  20 active torsions:
REMARK  status: ('A' for Active; 'I' for Inactive)
REMARK    1  A    between atoms: O_1  and  C_2
REMARK    2  A    between atoms: C_5  and  C_6
REMARK    3  A    between atoms: C_7  and  C_8
REMARK    4  A    between atoms: C_8  and  O_9
REMARK    5  A    between atoms: O_9  and  C_10
REMARK    6  A    between atoms: C_12  and  C_14
REMARK    7  A    between atoms: C_17  and  C_19
REMARK    8  A    between atoms: C_19  and  C_20
REMARK    9  A    between atoms: C_20  and  C_21
REMARK   10  A    between atoms: C_21  and  C_22
REMARK   11  A    between atoms: C_22  and  C_23
REMARK   12  A    between atoms: C_23  and  C_24
REMARK   13  A    between atoms: C_24  and  C_25
REMARK   14  A    between atoms: C_25  and  C_26
REMARK   15  A    between atoms: C_26  and  C_27
REMARK   16  A    between atoms: C_27  and  C_28
REMARK   17  A    between atoms: C_28  and  C_29
REMARK   18  A    between atoms: C_29  and  C_30
REMARK   19  A    between atoms: C_36  and  O_37
REMARK   20  A    between atoms: O_37  and  C_38
REMARK                            x       y       z     vdW  Elec       q    Type
REMARK                         _______ _______ _______ _____ _____    ______ ____
ROOT
ATOM      1  C   LIG A   1      -7.204  -2.879 129.517  0.00  0.00    +0.193 C 
ATOM      2  C   LIG A   1      -7.509  -3.335 128.064  0.00  0.00    +0.092 C 
ATOM      3  C   LIG A   1      -8.967  -3.711 127.797  0.00  0.00    +0.028 C 
ATOM      4  N   LIG A   1      -7.156  -2.276 127.115  0.00  0.00    -0.307 NA
ATOM      5  H   LIG A   1      -7.752  -1.482 127.343  0.00  0.00    +0.123 HD
ATOM      6  C   LIG A   1      -5.742  -1.869 127.188  0.00  0.00    +0.054 C 
ATOM      7  C   LIG A   1      -5.165  -1.686 128.608  0.00  0.00    +0.022 C 
ATOM      8  C   LIG A   1      -5.665  -2.738 129.591  0.00  0.00    +0.048 C 
ENDROOT
BRANCH   1   9
ATOM      9  O   LIG A   1      -7.786  -1.577 129.799  0.00  0.00    -0.457 OA
BRANCH   9  10
ATOM     10  C   LIG A   1      -7.835  -1.140 131.081  0.00  0.00    +0.332 C 
ATOM     11  O   LIG A   1      -7.922  -1.829 132.088  0.00  0.00    -0.246 OA
BRANCH  10  13
ATOM     12  C   LIG A   1      -9.086   0.918 131.684  0.00  0.00    +0.015 C 
ATOM     13  C   LIG A   1      -8.017   0.332 131.124  0.00  0.00    +0.092 C 
BRANCH  12  17
ATOM     14  C   LIG A   1      -9.679   5.062 132.672  0.00  0.00    +0.159 A 
ATOM     15  C   LIG A   1      -9.209   4.164 133.628  0.00  0.00    +0.050 A 
ATOM     16  C   LIG A   1      -8.980   2.832 133.285  0.00  0.00    +0.012 A 
ATOM     17  C   LIG A   1      -9.184   2.369 131.973  0.00  0.00    -0.021 A 
ATOM     18  C   LIG A   1      -9.735   3.268 131.033  0.00  0.00    +0.057 A 
ATOM     19  C   LIG A   1     -10.016   4.616 131.383  0.00  0.00    +0.162 A 
BRANCH  19  20
ATOM     20  O   LIG A   1     -10.781   5.307 130.463  0.00  0.00    -0.491 OA
ATOM     21  C   LIG A   1     -10.093   6.151 129.536  0.00  0.00    +0.277 C 
ENDBRANCH  19  20
BRANCH  14  22
ATOM     22  O   LIG A   1      -9.935   6.343 133.088  0.00  0.00    -0.503 OA
ATOM     23  H   LIG A   1      -9.856   6.960 132.343  0.00  0.00    +0.292 HD
ENDBRANCH  14  22
ENDBRANCH  12  17
ENDBRANCH  10  13
ENDBRANCH   9  10
ENDBRANCH   1   9
BRANCH   6  24
ATOM     24  C   LIG A   1      -5.569  -0.580 126.386  0.00  0.00    +0.019 C 
BRANCH  24  25
ATOM     25  C   LIG A   1      -6.885   0.141 126.231  0.00  0.00    +0.002 C 
BRANCH  25  26
ATOM     26  C   LIG A   1      -6.687   1.538 125.787  0.00  0.00    +0.000 C 
BRANCH  26  27
ATOM     27  C   LIG A   1      -7.211   1.863 124.422  0.00  0.00    -0.000 C 
BRANCH  27  28
ATOM     28  C   LIG A   1      -8.657   2.334 124.482  0.00  0.00    -0.000 C 
BRANCH  28  29
ATOM     29  C   LIG A   1      -9.808   1.359 124.241  0.00  0.00    -0.000 C 
BRANCH  29  30
ATOM     30  C   LIG A   1     -10.100   0.784 122.836  0.00  0.00    +0.000 C 
BRANCH  30  31
ATOM     31  C   LIG A   1      -9.719  -0.654 122.486  0.00  0.00    +0.000 C 
BRANCH  31  32
ATOM     32  C   LIG A   1      -8.743  -1.410 123.409  0.00  0.00    +0.007 C 
BRANCH  32  33
ATOM     33  C   LIG A   1      -7.293  -1.575 122.927  0.00  0.00    +0.074 C 
BRANCH  33  34
ATOM     34  C   LIG A   1      -6.659  -2.780 123.634  0.00  0.00    +0.130 C 
ATOM     35  C   LIG A   1      -5.170  -3.021 123.520  0.00  0.00    +0.086 C 
ATOM     36  O   LIG A   1      -7.282  -3.478 124.354  0.00  0.00    -0.298 OA
ENDBRANCH  33  34
ENDBRANCH  32  33
ENDBRANCH  31  32
ENDBRANCH  30  31
ENDBRANCH  29  30
ENDBRANCH  28  29
ENDBRANCH  27  28
ENDBRANCH  26  27
ENDBRANCH  25  26
ENDBRANCH  24  25
ENDBRANCH   6  24
TORSDOF 17
ENDMDL
MODEL 9
REMARK VINA RESULT:      -6.5      6.222      9.433
REMARK  Name = NuBBE_211
REMARK  20 active torsions:
REMARK  status: ('A' for Active; 'I' for Inactive)
REMARK    1  A    between atoms: O_1  and  C_2
REMARK    2  A    between atoms: C_5  and  C_6
REMARK    3  A    between atoms: C_7  and  C_8
REMARK    4  A    between atoms: C_8  and  O_9
REMARK    5  A    between atoms: O_9  and  C_10
REMARK    6  A    between atoms: C_12  and  C_14
REMARK    7  A    between atoms: C_17  and  C_19
REMARK    8  A    between atoms: C_19  and  C_20
REMARK    9  A    between atoms: C_20  and  C_21
REMARK   10  A    between atoms: C_21  and  C_22
REMARK   11  A    between atoms: C_22  and  C_23
REMARK   12  A    between atoms: C_23  and  C_24
REMARK   13  A    between atoms: C_24  and  C_25
REMARK   14  A    between atoms: C_25  and  C_26
REMARK   15  A    between atoms: C_26  and  C_27
REMARK   16  A    between atoms: C_27  and  C_28
REMARK   17  A    between atoms: C_28  and  C_29
REMARK   18  A    between atoms: C_29  and  C_30
REMARK   19  A    between atoms: C_36  and  O_37
REMARK   20  A    between atoms: O_37  and  C_38
REMARK                            x       y       z     vdW  Elec       q    Type
REMARK                         _______ _______ _______ _____ _____    ______ ____
ROOT
ATOM      1  C   LIG A   1      -7.842   2.903 132.848  0.00  0.00    +0.193 C 
ATOM      2  C   LIG A   1      -6.378   2.637 132.401  0.00  0.00    +0.092 C 
ATOM      3  C   LIG A   1      -6.227   1.673 131.224  0.00  0.00    +0.028 C 
ATOM      4  N   LIG A   1      -5.729   3.893 132.016  0.00  0.00    -0.307 NA
ATOM      5  H   LIG A   1      -6.255   4.252 131.222  0.00  0.00    +0.123 HD
ATOM      6  C   LIG A   1      -5.711   4.899 133.092  0.00  0.00    +0.054 C 
ATOM      7  C   LIG A   1      -7.027   5.065 133.883  0.00  0.00    +0.022 C 
ATOM      8  C   LIG A   1      -7.731   3.739 134.145  0.00  0.00    +0.048 C 
ENDROOT
BRANCH   1   9
ATOM      9  O   LIG A   1      -8.562   3.696 131.866  0.00  0.00    -0.457 OA
BRANCH   9  10
ATOM     10  C   LIG A   1      -9.769   3.264 131.425  0.00  0.00    +0.332 C 
ATOM     11  O   LIG A   1     -10.115   2.102 131.260  0.00  0.00    -0.246 OA
BRANCH  10  13
ATOM     12  C   LIG A   1     -10.396   5.663 131.328  0.00  0.00    +0.015 C 
ATOM     13  C   LIG A   1     -10.578   4.400 130.919  0.00  0.00    +0.092 C 
BRANCH  12  17
ATOM     14  C   LIG A   1     -12.371   8.878 129.263  0.00  0.00    +0.159 A 
ATOM     15  C   LIG A   1     -12.909   8.350 130.434  0.00  0.00    +0.050 A 
ATOM     16  C   LIG A   1     -12.238   7.337 131.119  0.00  0.00    +0.012 A 
ATOM     17  C   LIG A   1     -10.999   6.847 130.669  0.00  0.00    -0.021 A 
ATOM     18  C   LIG A   1     -10.502   7.333 129.439  0.00  0.00    +0.057 A 
ATOM     19  C   LIG A   1     -11.200   8.333 128.709  0.00  0.00    +0.162 A 
BRANCH  19  20
ATOM     20  O   LIG A   1     -10.748   8.529 127.419  0.00  0.00    -0.491 OA
ATOM     21  C   LIG A   1     -10.731   7.396 126.547  0.00  0.00    +0.277 C 
ENDBRANCH  19  20
BRANCH  14  22
ATOM     22  O   LIG A   1     -13.107   9.833 128.610  0.00  0.00    -0.503 OA
ATOM     23  H   LIG A   1     -13.973   9.474 128.355  0.00  0.00    +0.292 HD
ENDBRANCH  14  22
ENDBRANCH  12  17
ENDBRANCH  10  13
ENDBRANCH   9  10
ENDBRANCH   1   9
BRANCH   6  24
ATOM     24  C   LIG A   1      -5.292   6.240 132.491  0.00  0.00    +0.019 C 
BRANCH  24  25
ATOM     25  C   LIG A   1      -5.683   6.327 131.037  0.00  0.00    +0.002 C 
BRANCH  25  26
ATOM     26  C   LIG A   1      -5.209   7.586 130.424  0.00  0.00    +0.000 C 
BRANCH  26  27
ATOM     27  C   LIG A   1      -3.755   7.624 130.064  0.00  0.00    -0.000 C 
BRANCH  27  28
ATOM     28  C   LIG A   1      -3.518   7.080 128.662  0.00  0.00    -0.000 C 
BRANCH  28  29
ATOM     29  C   LIG A   1      -2.734   5.786 128.447  0.00  0.00    -0.000 C 
BRANCH  29  30
ATOM     30  C   LIG A   1      -3.016   4.521 129.289  0.00  0.00    +0.000 C 
BRANCH  30  31
ATOM     31  C   LIG A   1      -3.988   3.452 128.791  0.00  0.00    +0.000 C 
BRANCH  31  32
ATOM     32  C   LIG A   1      -5.309   3.897 128.135  0.00  0.00    +0.007 C 
BRANCH  32  33
ATOM     33  C   LIG A   1      -6.287   2.798 127.690  0.00  0.00    +0.074 C 
BRANCH  33  34
ATOM     34  C   LIG A   1      -7.710   3.185 128.114  0.00  0.00    +0.130 C 
ATOM     35  C   LIG A   1      -8.032   4.627 128.439  0.00  0.00    +0.086 C 
ATOM     36  O   LIG A   1      -8.598   2.406 128.099  0.00  0.00    -0.298 OA
ENDBRANCH  33  34
ENDBRANCH  32  33
ENDBRANCH  31  32
ENDBRANCH  30  31
ENDBRANCH  29  30
ENDBRANCH  28  29
ENDBRANCH  27  28
ENDBRANCH  26  27
ENDBRANCH  25  26
ENDBRANCH  24  25
ENDBRANCH   6  24
TORSDOF 17
ENDMDL
