MODEL 1
REMARK VINA RESULT:      -7.0      0.000      0.000
REMARK  Name = NuBBE_1893
REMARK  7 active torsions:
REMARK  status: ('A' for Active; 'I' for Inactive)
REMARK    1  A    between atoms: C_1  and  O_2
REMARK    2  A    between atoms: O_2  and  C_3
REMARK    3  A    between atoms: C_4  and  C_5
REMARK    4  A    between atoms: C_10  and  O_11
REMARK    5  A    between atoms: O_11  and  C_12
REMARK    6  A    between atoms: C_13  and  O_14
REMARK    7  A    between atoms: O_14  and  C_15
REMARK                            x       y       z     vdW  Elec       q    Type
REMARK                         _______ _______ _______ _____ _____    ______ ____
ROOT
ATOM      1  C   LIG A   1      -7.308   2.103 124.752  0.00  0.00    +0.068 A 
ATOM      2  C   LIG A   1      -7.454   2.847 125.855  0.00  0.00    +0.208 A 
ATOM      3  O   LIG A   1      -7.455   2.389 127.154  0.00  0.00    -0.462 OA
ATOM      4  C   LIG A   1      -7.456   1.029 127.350  0.00  0.00    +0.142 A 
ATOM      5  C   LIG A   1      -7.635   0.567 128.655  0.00  0.00    +0.096 A 
ATOM      6  C   LIG A   1      -7.689  -0.811 128.911  0.00  0.00    +0.165 A 
ATOM      7  C   LIG A   1      -7.564  -1.720 127.840  0.00  0.00    +0.162 A 
ATOM      8  C   LIG A   1      -7.338  -1.249 126.543  0.00  0.00    +0.064 A 
ATOM      9  C   LIG A   1      -7.298   0.127 126.303  0.00  0.00    +0.068 A 
ATOM     10  C   LIG A   1      -7.097   0.642 124.936  0.00  0.00    +0.200 A 
ATOM     11  O   LIG A   1      -6.776  -0.106 124.020  0.00  0.00    -0.286 OA
ENDROOT
BRANCH   1  13
ATOM     12  C   LIG A   1      -8.524   2.714 122.618  0.00  0.00    +0.132 A 
ATOM     13  C   LIG A   1      -7.336   2.706 123.406  0.00  0.00    +0.034 A 
ATOM     14  C   LIG A   1      -6.155   3.279 122.901  0.00  0.00    +0.062 A 
ATOM     15  C   LIG A   1      -6.187   3.837 121.641  0.00  0.00    +0.167 A 
ATOM     16  C   LIG A   1      -7.332   3.837 120.883  0.00  0.00    +0.170 A 
ATOM     17  O   LIG A   1      -7.158   4.431 119.672  0.00  0.00    -0.453 OA
ATOM     18  C   LIG A   1      -5.770   4.814 119.756  0.00  0.00    +0.466 C 
ATOM     19  O   LIG A   1      -5.148   4.436 121.003  0.00  0.00    -0.453 OA
ATOM     20  C   LIG A   1      -8.509   3.286 121.338  0.00  0.00    +0.095 A 
BRANCH  12  22
ATOM     21  C   LIG A   1     -10.039   0.875 122.671  0.00  0.00    +0.277 C 
ATOM     22  O   LIG A   1      -9.640   2.145 123.184  0.00  0.00    -0.494 OA
ENDBRANCH  12  22
ENDBRANCH   1  13
BRANCH   6  23
ATOM     23  O   LIG A   1      -7.875  -1.366 130.153  0.00  0.00    -0.491 OA
ATOM     24  C   LIG A   1      -8.229  -0.500 131.223  0.00  0.00    +0.277 C 
ENDBRANCH   6  23
BRANCH   7  25
ATOM     25  O   LIG A   1      -7.632  -3.058 128.146  0.00  0.00    -0.491 OA
ATOM     26  C   LIG A   1      -8.788  -3.744 127.670  0.00  0.00    +0.277 C 
ENDBRANCH   7  25
TORSDOF 4
ENDMDL
MODEL 2
REMARK VINA RESULT:      -6.9      7.007     10.724
REMARK  Name = NuBBE_1893
REMARK  7 active torsions:
REMARK  status: ('A' for Active; 'I' for Inactive)
REMARK    1  A    between atoms: C_1  and  O_2
REMARK    2  A    between atoms: O_2  and  C_3
REMARK    3  A    between atoms: C_4  and  C_5
REMARK    4  A    between atoms: C_10  and  O_11
REMARK    5  A    between atoms: O_11  and  C_12
REMARK    6  A    between atoms: C_13  and  O_14
REMARK    7  A    between atoms: O_14  and  C_15
REMARK                            x       y       z     vdW  Elec       q    Type
REMARK                         _______ _______ _______ _____ _____    ______ ____
ROOT
ATOM      1  C   LIG A   1      -9.123   5.232 132.021  0.00  0.00    +0.068 A 
ATOM      2  C   LIG A   1     -10.051   5.749 132.835  0.00  0.00    +0.208 A 
ATOM      3  O   LIG A   1     -11.134   6.511 132.457  0.00  0.00    -0.462 OA
ATOM      4  C   LIG A   1     -11.203   6.912 131.145  0.00  0.00    +0.142 A 
ATOM      5  C   LIG A   1     -12.202   7.826 130.803  0.00  0.00    +0.096 A 
ATOM      6  C   LIG A   1     -12.294   8.306 129.488  0.00  0.00    +0.165 A 
ATOM      7  C   LIG A   1     -11.370   7.858 128.521  0.00  0.00    +0.162 A 
ATOM      8  C   LIG A   1     -10.404   6.907 128.861  0.00  0.00    +0.064 A 
ATOM      9  C   LIG A   1     -10.317   6.448 130.177  0.00  0.00    +0.068 A 
ATOM     10  C   LIG A   1      -9.282   5.472 130.563  0.00  0.00    +0.200 A 
ATOM     11  O   LIG A   1      -8.602   4.905 129.716  0.00  0.00    -0.286 OA
ENDROOT
BRANCH   1  13
ATOM     12  C   LIG A   1      -6.698   5.006 132.710  0.00  0.00    +0.132 A 
ATOM     13  C   LIG A   1      -7.994   4.438 132.545  0.00  0.00    +0.034 A 
ATOM     14  C   LIG A   1      -8.219   3.091 132.883  0.00  0.00    +0.062 A 
ATOM     15  C   LIG A   1      -7.159   2.354 133.368  0.00  0.00    +0.167 A 
ATOM     16  C   LIG A   1      -5.910   2.903 133.518  0.00  0.00    +0.170 A 
ATOM     17  O   LIG A   1      -5.004   2.015 134.007  0.00  0.00    -0.453 OA
ATOM     18  C   LIG A   1      -5.829   0.841 134.154  0.00  0.00    +0.466 C 
ATOM     19  O   LIG A   1      -7.197   1.050 133.746  0.00  0.00    -0.453 OA
ATOM     20  C   LIG A   1      -5.647   4.217 133.200  0.00  0.00    +0.095 A 
BRANCH  12  22
ATOM     21  C   LIG A   1      -5.574   6.636 131.383  0.00  0.00    +0.277 C 
ATOM     22  O   LIG A   1      -6.559   6.331 132.370  0.00  0.00    -0.494 OA
ENDBRANCH  12  22
ENDBRANCH   1  13
BRANCH   6  23
ATOM     23  O   LIG A   1     -13.228   9.215 129.054  0.00  0.00    -0.491 OA
ATOM     24  C   LIG A   1     -13.302  10.465 129.726  0.00  0.00    +0.277 C 
ENDBRANCH   6  23
BRANCH   7  25
ATOM     25  O   LIG A   1     -11.503   8.366 127.250  0.00  0.00    -0.491 OA
ATOM     26  C   LIG A   1     -10.920   7.587 126.208  0.00  0.00    +0.277 C 
ENDBRANCH   7  25
TORSDOF 4
ENDMDL
MODEL 3
REMARK VINA RESULT:      -6.8      5.532      7.342
REMARK  Name = NuBBE_1893
REMARK  7 active torsions:
REMARK  status: ('A' for Active; 'I' for Inactive)
REMARK    1  A    between atoms: C_1  and  O_2
REMARK    2  A    between atoms: O_2  and  C_3
REMARK    3  A    between atoms: C_4  and  C_5
REMARK    4  A    between atoms: C_10  and  O_11
REMARK    5  A    between atoms: O_11  and  C_12
REMARK    6  A    between atoms: C_13  and  O_14
REMARK    7  A    between atoms: O_14  and  C_15
REMARK                            x       y       z     vdW  Elec       q    Type
REMARK                         _______ _______ _______ _____ _____    ______ ____
ROOT
ATOM      1  C   LIG A   1      -9.412   3.925 130.757  0.00  0.00    +0.068 A 
ATOM      2  C   LIG A   1      -9.389   3.593 132.053  0.00  0.00    +0.208 A 
ATOM      3  O   LIG A   1      -8.896   2.422 132.586  0.00  0.00    -0.462 OA
ATOM      4  C   LIG A   1      -8.525   1.430 131.711  0.00  0.00    +0.142 A 
ATOM      5  C   LIG A   1      -8.193   0.186 132.252  0.00  0.00    +0.096 A 
ATOM      6  C   LIG A   1      -7.849  -0.878 131.406  0.00  0.00    +0.165 A 
ATOM      7  C   LIG A   1      -7.844  -0.678 130.009  0.00  0.00    +0.162 A 
ATOM      8  C   LIG A   1      -8.131   0.583 129.480  0.00  0.00    +0.064 A 
ATOM      9  C   LIG A   1      -8.483   1.630 130.335  0.00  0.00    +0.068 A 
ATOM     10  C   LIG A   1      -8.824   2.957 129.792  0.00  0.00    +0.200 A 
ATOM     11  O   LIG A   1      -8.629   3.227 128.613  0.00  0.00    -0.286 OA
ENDROOT
BRANCH   1  13
ATOM     12  C   LIG A   1      -9.150   6.331 130.016  0.00  0.00    +0.132 A 
ATOM     13  C   LIG A   1      -9.980   5.208 130.299  0.00  0.00    +0.034 A 
ATOM     14  C   LIG A   1     -11.375   5.309 130.147  0.00  0.00    +0.062 A 
ATOM     15  C   LIG A   1     -11.899   6.512 129.724  0.00  0.00    +0.167 A 
ATOM     16  C   LIG A   1     -11.096   7.593 129.458  0.00  0.00    +0.170 A 
ATOM     17  O   LIG A   1     -11.802   8.684 129.056  0.00  0.00    -0.453 OA
ATOM     18  C   LIG A   1     -13.146   8.162 129.092  0.00  0.00    +0.466 C 
ATOM     19  O   LIG A   1     -13.214   6.785 129.518  0.00  0.00    -0.453 OA
ATOM     20  C   LIG A   1      -9.727   7.537 129.594  0.00  0.00    +0.095 A 
BRANCH  12  22
ATOM     21  C   LIG A   1      -7.192   6.814 131.286  0.00  0.00    +0.277 C 
ATOM     22  O   LIG A   1      -7.796   6.150 130.176  0.00  0.00    -0.494 OA
ENDBRANCH  12  22
ENDBRANCH   1  13
BRANCH   6  23
ATOM     23  O   LIG A   1      -7.521  -2.140 131.834  0.00  0.00    -0.491 OA
ATOM     24  C   LIG A   1      -7.806  -2.478 133.186  0.00  0.00    +0.277 C 
ENDBRANCH   6  23
BRANCH   7  25
ATOM     25  O   LIG A   1      -7.506  -1.757 129.227  0.00  0.00    -0.491 OA
ATOM     26  C   LIG A   1      -7.661  -1.574 127.821  0.00  0.00    +0.277 C 
ENDBRANCH   7  25
TORSDOF 4
ENDMDL
MODEL 4
REMARK VINA RESULT:      -6.8      3.303      9.343
REMARK  Name = NuBBE_1893
REMARK  7 active torsions:
REMARK  status: ('A' for Active; 'I' for Inactive)
REMARK    1  A    between atoms: C_1  and  O_2
REMARK    2  A    between atoms: O_2  and  C_3
REMARK    3  A    between atoms: C_4  and  C_5
REMARK    4  A    between atoms: C_10  and  O_11
REMARK    5  A    between atoms: O_11  and  C_12
REMARK    6  A    between atoms: C_13  and  O_14
REMARK    7  A    between atoms: O_14  and  C_15
REMARK                            x       y       z     vdW  Elec       q    Type
REMARK                         _______ _______ _______ _____ _____    ______ ____
ROOT
ATOM      1  C   LIG A   1      -6.994  -2.106 129.447  0.00  0.00    +0.068 A 
ATOM      2  C   LIG A   1      -6.645  -0.818 129.345  0.00  0.00    +0.208 A 
ATOM      3  O   LIG A   1      -7.022   0.053 128.346  0.00  0.00    -0.462 OA
ATOM      4  C   LIG A   1      -7.695  -0.468 127.268  0.00  0.00    +0.142 A 
ATOM      5  C   LIG A   1      -7.921   0.378 126.180  0.00  0.00    +0.096 A 
ATOM      6  C   LIG A   1      -8.564  -0.110 125.033  0.00  0.00    +0.165 A 
ATOM      7  C   LIG A   1      -8.977  -1.458 124.991  0.00  0.00    +0.162 A 
ATOM      8  C   LIG A   1      -8.790  -2.284 126.103  0.00  0.00    +0.064 A 
ATOM      9  C   LIG A   1      -8.138  -1.787 127.233  0.00  0.00    +0.068 A 
ATOM     10  C   LIG A   1      -7.899  -2.654 128.401  0.00  0.00    +0.200 A 
ATOM     11  O   LIG A   1      -8.424  -3.758 128.486  0.00  0.00    -0.286 OA
ENDROOT
BRANCH   1  13
ATOM     12  C   LIG A   1      -5.330  -3.730 130.447  0.00  0.00    +0.132 A 
ATOM     13  C   LIG A   1      -6.516  -2.949 130.560  0.00  0.00    +0.034 A 
ATOM     14  C   LIG A   1      -7.261  -2.971 131.753  0.00  0.00    +0.062 A 
ATOM     15  C   LIG A   1      -6.811  -3.764 132.788  0.00  0.00    +0.167 A 
ATOM     16  C   LIG A   1      -5.672  -4.520 132.672  0.00  0.00    +0.170 A 
ATOM     17  O   LIG A   1      -5.399  -5.232 133.798  0.00  0.00    -0.453 OA
ATOM     18  C   LIG A   1      -6.497  -4.831 134.643  0.00  0.00    +0.466 C 
ATOM     19  O   LIG A   1      -7.398  -3.901 134.006  0.00  0.00    -0.453 OA
ATOM     20  C   LIG A   1      -4.913  -4.528 131.523  0.00  0.00    +0.095 A 
BRANCH  12  22
ATOM     21  C   LIG A   1      -3.228  -3.564 129.336  0.00  0.00    +0.277 C 
ATOM     22  O   LIG A   1      -4.650  -3.647 129.254  0.00  0.00    -0.494 OA
ENDBRANCH  12  22
ENDBRANCH   1  13
BRANCH   6  23
ATOM     23  O   LIG A   1      -8.820   0.634 123.907  0.00  0.00    -0.491 OA
ATOM     24  C   LIG A   1      -9.804   1.656 123.995  0.00  0.00    +0.277 C 
ENDBRANCH   6  23
BRANCH   7  25
ATOM     25  O   LIG A   1      -9.596  -1.884 123.840  0.00  0.00    -0.491 OA
ATOM     26  C   LIG A   1      -9.349  -3.239 123.470  0.00  0.00    +0.277 C 
ENDBRANCH   7  25
TORSDOF 4
ENDMDL
MODEL 5
REMARK VINA RESULT:      -6.8      2.862      9.193
REMARK  Name = NuBBE_1893
REMARK  7 active torsions:
REMARK  status: ('A' for Active; 'I' for Inactive)
REMARK    1  A    between atoms: C_1  and  O_2
REMARK    2  A    between atoms: O_2  and  C_3
REMARK    3  A    between atoms: C_4  and  C_5
REMARK    4  A    between atoms: C_10  and  O_11
REMARK    5  A    between atoms: O_11  and  C_12
REMARK    6  A    between atoms: C_13  and  O_14
REMARK    7  A    between atoms: O_14  and  C_15
REMARK                            x       y       z     vdW  Elec       q    Type
REMARK                         _______ _______ _______ _____ _____    ______ ____
ROOT
ATOM      1  C   LIG A   1      -7.466  -3.021 128.589  0.00  0.00    +0.068 A 
ATOM      2  C   LIG A   1      -8.580  -3.611 128.139  0.00  0.00    +0.208 A 
ATOM      3  O   LIG A   1      -9.078  -3.542 126.856  0.00  0.00    -0.462 OA
ATOM      4  C   LIG A   1      -8.471  -2.672 125.984  0.00  0.00    +0.142 A 
ATOM      5  C   LIG A   1      -9.083  -2.473 124.744  0.00  0.00    +0.096 A 
ATOM      6  C   LIG A   1      -8.534  -1.563 123.828  0.00  0.00    +0.165 A 
ATOM      7  C   LIG A   1      -7.364  -0.854 124.173  0.00  0.00    +0.162 A 
ATOM      8  C   LIG A   1      -6.733  -1.095 125.396  0.00  0.00    +0.064 A 
ATOM      9  C   LIG A   1      -7.298  -1.995 126.302  0.00  0.00    +0.068 A 
ATOM     10  C   LIG A   1      -6.666  -2.235 127.613  0.00  0.00    +0.200 A 
ATOM     11  O   LIG A   1      -5.547  -1.803 127.863  0.00  0.00    -0.286 OA
ENDROOT
BRANCH   1  13
ATOM     12  C   LIG A   1      -7.432  -2.215 130.988  0.00  0.00    +0.132 A 
ATOM     13  C   LIG A   1      -7.036  -3.156 129.994  0.00  0.00    +0.034 A 
ATOM     14  C   LIG A   1      -6.215  -4.244 130.344  0.00  0.00    +0.062 A 
ATOM     15  C   LIG A   1      -5.814  -4.362 131.658  0.00  0.00    +0.167 A 
ATOM     16  C   LIG A   1      -6.192  -3.449 132.611  0.00  0.00    +0.170 A 
ATOM     17  O   LIG A   1      -5.693  -3.739 133.842  0.00  0.00    -0.453 OA
ATOM     18  C   LIG A   1      -4.959  -4.948 133.556  0.00  0.00    +0.466 C 
ATOM     19  O   LIG A   1      -5.030  -5.346 132.171  0.00  0.00    -0.453 OA
ATOM     20  C   LIG A   1      -6.995  -2.370 132.312  0.00  0.00    +0.095 A 
BRANCH  12  22
ATOM     21  C   LIG A   1      -8.611  -0.224 131.560  0.00  0.00    +0.277 C 
ATOM     22  O   LIG A   1      -8.245  -1.186 130.572  0.00  0.00    -0.494 OA
ENDBRANCH  12  22
ENDBRANCH   1  13
BRANCH   6  23
ATOM     23  O   LIG A   1      -9.064  -1.285 122.593  0.00  0.00    -0.491 OA
ATOM     24  C   LIG A   1     -10.104  -0.318 122.518  0.00  0.00    +0.277 C 
ENDBRANCH   6  23
BRANCH   7  25
ATOM     25  O   LIG A   1      -6.873   0.030 123.241  0.00  0.00    -0.491 OA
ATOM     26  C   LIG A   1      -7.005   1.411 123.569  0.00  0.00    +0.277 C 
ENDBRANCH   7  25
TORSDOF 4
ENDMDL
MODEL 6
REMARK VINA RESULT:      -6.8      3.551      5.535
REMARK  Name = NuBBE_1893
REMARK  7 active torsions:
REMARK  status: ('A' for Active; 'I' for Inactive)
REMARK    1  A    between atoms: C_1  and  O_2
REMARK    2  A    between atoms: O_2  and  C_3
REMARK    3  A    between atoms: C_4  and  C_5
REMARK    4  A    between atoms: C_10  and  O_11
REMARK    5  A    between atoms: O_11  and  C_12
REMARK    6  A    between atoms: C_13  and  O_14
REMARK    7  A    between atoms: O_14  and  C_15
REMARK                            x       y       z     vdW  Elec       q    Type
REMARK                         _______ _______ _______ _____ _____    ______ ____
ROOT
ATOM      1  C   LIG A   1      -7.677  -2.246 127.097  0.00  0.00    +0.068 A 
ATOM      2  C   LIG A   1      -8.340  -3.200 127.760  0.00  0.00    +0.208 A 
ATOM      3  O   LIG A   1      -7.981  -3.753 128.970  0.00  0.00    -0.462 OA
ATOM      4  C   LIG A   1      -6.755  -3.410 129.487  0.00  0.00    +0.142 A 
ATOM      5  C   LIG A   1      -6.319  -4.102 130.620  0.00  0.00    +0.096 A 
ATOM      6  C   LIG A   1      -5.057  -3.827 131.167  0.00  0.00    +0.165 A 
ATOM      7  C   LIG A   1      -4.237  -2.851 130.562  0.00  0.00    +0.162 A 
ATOM      8  C   LIG A   1      -4.702  -2.131 129.459  0.00  0.00    +0.064 A 
ATOM      9  C   LIG A   1      -5.956  -2.423 128.918  0.00  0.00    +0.068 A 
ATOM     10  C   LIG A   1      -6.448  -1.700 127.731  0.00  0.00    +0.200 A 
ATOM     11  O   LIG A   1      -5.863  -0.710 127.309  0.00  0.00    -0.286 OA
ENDROOT
BRANCH   1  13
ATOM     12  C   LIG A   1      -7.780  -2.366 124.571  0.00  0.00    +0.132 A 
ATOM     13  C   LIG A   1      -8.153  -1.739 125.795  0.00  0.00    +0.034 A 
ATOM     14  C   LIG A   1      -8.991  -0.609 125.779  0.00  0.00    +0.062 A 
ATOM     15  C   LIG A   1      -9.428  -0.139 124.559  0.00  0.00    +0.167 A 
ATOM     16  C   LIG A   1      -9.061  -0.742 123.382  0.00  0.00    +0.170 A 
ATOM     17  O   LIG A   1      -9.594  -0.128 122.291  0.00  0.00    -0.453 OA
ATOM     18  C   LIG A   1     -10.346   0.930 122.918  0.00  0.00    +0.466 C 
ATOM     19  O   LIG A   1     -10.242   0.930 124.358  0.00  0.00    -0.453 OA
ATOM     20  C   LIG A   1      -8.244  -1.849 123.352  0.00  0.00    +0.095 A 
BRANCH  12  22
ATOM     21  C   LIG A   1      -5.654  -3.348 124.129  0.00  0.00    +0.277 C 
ATOM     22  O   LIG A   1      -6.969  -3.472 124.668  0.00  0.00    -0.494 OA
ENDBRANCH  12  22
ENDBRANCH   1  13
BRANCH   6  23
ATOM     23  O   LIG A   1      -4.530  -4.458 132.266  0.00  0.00    -0.491 OA
ATOM     24  C   LIG A   1      -5.421  -5.169 133.116  0.00  0.00    +0.277 C 
ENDBRANCH   6  23
BRANCH   7  25
ATOM     25  O   LIG A   1      -3.008  -2.627 131.136  0.00  0.00    -0.491 OA
ATOM     26  C   LIG A   1      -2.950  -1.556 132.076  0.00  0.00    +0.277 C 
ENDBRANCH   7  25
TORSDOF 4
ENDMDL
MODEL 7
REMARK VINA RESULT:      -6.7      5.517      7.773
REMARK  Name = NuBBE_1893
REMARK  7 active torsions:
REMARK  status: ('A' for Active; 'I' for Inactive)
REMARK    1  A    between atoms: C_1  and  O_2
REMARK    2  A    between atoms: O_2  and  C_3
REMARK    3  A    between atoms: C_4  and  C_5
REMARK    4  A    between atoms: C_10  and  O_11
REMARK    5  A    between atoms: O_11  and  C_12
REMARK    6  A    between atoms: C_13  and  O_14
REMARK    7  A    between atoms: O_14  and  C_15
REMARK                            x       y       z     vdW  Elec       q    Type
REMARK                         _______ _______ _______ _____ _____    ______ ____
ROOT
ATOM      1  C   LIG A   1      -9.118   2.048 131.118  0.00  0.00    +0.068 A 
ATOM      2  C   LIG A   1      -9.613   1.038 131.843  0.00  0.00    +0.208 A 
ATOM      3  O   LIG A   1      -9.152  -0.260 131.855  0.00  0.00    -0.462 OA
ATOM      4  C   LIG A   1      -8.190  -0.602 130.935  0.00  0.00    +0.142 A 
ATOM      5  C   LIG A   1      -7.852  -1.953 130.831  0.00  0.00    +0.096 A 
ATOM      6  C   LIG A   1      -6.909  -2.369 129.879  0.00  0.00    +0.165 A 
ATOM      7  C   LIG A   1      -6.312  -1.413 129.032  0.00  0.00    +0.162 A 
ATOM      8  C   LIG A   1      -6.622  -0.058 129.176  0.00  0.00    +0.064 A 
ATOM      9  C   LIG A   1      -7.571   0.340 130.120  0.00  0.00    +0.068 A 
ATOM     10  C   LIG A   1      -7.937   1.761 130.261  0.00  0.00    +0.200 A 
ATOM     11  O   LIG A   1      -7.294   2.638 129.697  0.00  0.00    -0.286 OA
ENDROOT
BRANCH   1  13
ATOM     12  C   LIG A   1      -9.273   4.359 132.139  0.00  0.00    +0.132 A 
ATOM     13  C   LIG A   1      -9.706   3.400 131.178  0.00  0.00    +0.034 A 
ATOM     14  C   LIG A   1     -10.718   3.735 130.260  0.00  0.00    +0.062 A 
ATOM     15  C   LIG A   1     -11.266   4.998 130.324  0.00  0.00    +0.167 A 
ATOM     16  C   LIG A   1     -10.850   5.916 131.256  0.00  0.00    +0.170 A 
ATOM     17  O   LIG A   1     -11.513   7.099 131.157  0.00  0.00    -0.453 OA
ATOM     18  C   LIG A   1     -12.392   6.824 130.048  0.00  0.00    +0.466 C 
ATOM     19  O   LIG A   1     -12.242   5.490 129.517  0.00  0.00    -0.453 OA
ATOM     20  C   LIG A   1      -9.863   5.631 132.173  0.00  0.00    +0.095 A 
BRANCH  12  22
ATOM     21  C   LIG A   1      -8.529   4.113 134.390  0.00  0.00    +0.277 C 
ATOM     22  O   LIG A   1      -8.272   3.962 132.995  0.00  0.00    -0.494 OA
ENDBRANCH  12  22
ENDBRANCH   1  13
BRANCH   6  23
ATOM     23  O   LIG A   1      -6.518  -3.671 129.686  0.00  0.00    -0.491 OA
ATOM     24  C   LIG A   1      -5.771  -4.301 130.719  0.00  0.00    +0.277 C 
ENDBRANCH   6  23
BRANCH   7  25
ATOM     25  O   LIG A   1      -5.400  -1.877 128.113  0.00  0.00    -0.491 OA
ATOM     26  C   LIG A   1      -5.757  -1.700 126.744  0.00  0.00    +0.277 C 
ENDBRANCH   7  25
TORSDOF 4
ENDMDL
MODEL 8
REMARK VINA RESULT:      -6.6      3.528      5.633
REMARK  Name = NuBBE_1893
REMARK  7 active torsions:
REMARK  status: ('A' for Active; 'I' for Inactive)
REMARK    1  A    between atoms: C_1  and  O_2
REMARK    2  A    between atoms: O_2  and  C_3
REMARK    3  A    between atoms: C_4  and  C_5
REMARK    4  A    between atoms: C_10  and  O_11
REMARK    5  A    between atoms: O_11  and  C_12
REMARK    6  A    between atoms: C_13  and  O_14
REMARK    7  A    between atoms: O_14  and  C_15
REMARK                            x       y       z     vdW  Elec       q    Type
REMARK                         _______ _______ _______ _____ _____    ______ ____
ROOT
ATOM      1  C   LIG A   1      -6.771  -2.015 127.409  0.00  0.00    +0.068 A 
ATOM      2  C   LIG A   1      -5.436  -1.922 127.391  0.00  0.00    +0.208 A 
ATOM      3  O   LIG A   1      -4.573  -2.381 128.363  0.00  0.00    -0.462 OA
ATOM      4  C   LIG A   1      -5.121  -2.846 129.533  0.00  0.00    +0.142 A 
ATOM      5  C   LIG A   1      -4.246  -3.144 130.579  0.00  0.00    +0.096 A 
ATOM      6  C   LIG A   1      -4.750  -3.581 131.813  0.00  0.00    +0.165 A 
ATOM      7  C   LIG A   1      -6.144  -3.712 131.985  0.00  0.00    +0.162 A 
ATOM      8  C   LIG A   1      -7.009  -3.457 130.917  0.00  0.00    +0.064 A 
ATOM      9  C   LIG A   1      -6.493  -3.012 129.698  0.00  0.00    +0.068 A 
ATOM     10  C   LIG A   1      -7.393  -2.703 128.572  0.00  0.00    +0.200 A 
ATOM     11  O   LIG A   1      -8.580  -3.003 128.611  0.00  0.00    -0.286 OA
ENDROOT
BRANCH   1  13
ATOM     12  C   LIG A   1      -7.770  -2.184 125.090  0.00  0.00    +0.132 A 
ATOM     13  C   LIG A   1      -7.596  -1.473 126.313  0.00  0.00    +0.034 A 
ATOM     14  C   LIG A   1      -8.216  -0.223 126.492  0.00  0.00    +0.062 A 
ATOM     15  C   LIG A   1      -8.982   0.279 125.462  0.00  0.00    +0.167 A 
ATOM     16  C   LIG A   1      -9.142  -0.407 124.283  0.00  0.00    +0.170 A 
ATOM     17  O   LIG A   1      -9.930   0.256 123.395  0.00  0.00    -0.453 OA
ATOM     18  C   LIG A   1     -10.256   1.438 124.153  0.00  0.00    +0.466 C 
ATOM     19  O   LIG A   1      -9.654   1.460 125.465  0.00  0.00    -0.453 OA
ATOM     20  C   LIG A   1      -8.553  -1.632 124.066  0.00  0.00    +0.095 A 
BRANCH  12  22
ATOM     21  C   LIG A   1      -6.053  -3.490 124.076  0.00  0.00    +0.277 C 
ATOM     22  O   LIG A   1      -7.142  -3.404 124.994  0.00  0.00    -0.494 OA
ENDBRANCH  12  22
ENDBRANCH   1  13
BRANCH   6  23
ATOM     23  O   LIG A   1      -3.978  -3.886 132.907  0.00  0.00    -0.491 OA
ATOM     24  C   LIG A   1      -3.202  -2.844 133.484  0.00  0.00    +0.277 C 
ENDBRANCH   6  23
BRANCH   7  25
ATOM     25  O   LIG A   1      -6.584  -4.137 133.216  0.00  0.00    -0.491 OA
ATOM     26  C   LIG A   1      -7.651  -3.383 133.786  0.00  0.00    +0.277 C 
ENDBRANCH   7  25
TORSDOF 4
ENDMDL
MODEL 9
REMARK VINA RESULT:      -6.6      2.491      3.928
REMARK  Name = NuBBE_1893
REMARK  7 active torsions:
REMARK  status: ('A' for Active; 'I' for Inactive)
REMARK    1  A    between atoms: C_1  and  O_2
REMARK    2  A    between atoms: O_2  and  C_3
REMARK    3  A    between atoms: C_4  and  C_5
REMARK    4  A    between atoms: C_10  and  O_11
REMARK    5  A    between atoms: O_11  and  C_12
REMARK    6  A    between atoms: C_13  and  O_14
REMARK    7  A    between atoms: O_14  and  C_15
REMARK                            x       y       z     vdW  Elec       q    Type
REMARK                         _______ _______ _______ _____ _____    ______ ____
ROOT
ATOM      1  C   LIG A   1      -7.363   2.986 125.443  0.00  0.00    +0.068 A 
ATOM      2  C   LIG A   1      -6.895   1.852 125.976  0.00  0.00    +0.208 A 
ATOM      3  O   LIG A   1      -6.929   1.501 127.308  0.00  0.00    -0.462 OA
ATOM      4  C   LIG A   1      -7.345   2.454 128.206  0.00  0.00    +0.142 A 
ATOM      5  C   LIG A   1      -7.213   2.157 129.565  0.00  0.00    +0.096 A 
ATOM      6  C   LIG A   1      -7.578   3.108 130.529  0.00  0.00    +0.165 A 
ATOM      7  C   LIG A   1      -8.077   4.360 130.113  0.00  0.00    +0.162 A 
ATOM      8  C   LIG A   1      -8.250   4.629 128.753  0.00  0.00    +0.064 A 
ATOM      9  C   LIG A   1      -7.870   3.677 127.804  0.00  0.00    +0.068 A 
ATOM     10  C   LIG A   1      -8.012   3.958 126.363  0.00  0.00    +0.200 A 
ATOM     11  O   LIG A   1      -8.630   4.939 125.969  0.00  0.00    -0.286 OA
ENDROOT
BRANCH   1  13
ATOM     12  C   LIG A   1      -8.305   2.909 123.095  0.00  0.00    +0.132 A 
ATOM     13  C   LIG A   1      -7.258   3.259 123.997  0.00  0.00    +0.034 A 
ATOM     14  C   LIG A   1      -6.091   3.878 123.512  0.00  0.00    +0.062 A 
ATOM     15  C   LIG A   1      -5.999   4.126 122.159  0.00  0.00    +0.167 A 
ATOM     16  C   LIG A   1      -7.006   3.780 121.293  0.00  0.00    +0.170 A 
ATOM     17  O   LIG A   1      -6.723   4.106 120.003  0.00  0.00    -0.453 OA
ATOM     18  C   LIG A   1      -5.420   4.704 120.157  0.00  0.00    +0.466 C 
ATOM     19  O   LIG A   1      -4.953   4.717 121.522  0.00  0.00    -0.453 OA
ATOM     20  C   LIG A   1      -8.165   3.174 121.725  0.00  0.00    +0.095 A 
BRANCH  12  22
ATOM     21  C   LIG A   1      -9.730   1.001 123.195  0.00  0.00    +0.277 C 
ATOM     22  O   LIG A   1      -9.418   2.319 123.645  0.00  0.00    -0.494 OA
ENDBRANCH  12  22
ENDBRANCH   1  13
BRANCH   6  23
ATOM     23  O   LIG A   1      -7.475   2.922 131.885  0.00  0.00    -0.491 OA
ATOM     24  C   LIG A   1      -8.442   2.095 132.519  0.00  0.00    +0.277 C 
ENDBRANCH   6  23
BRANCH   7  25
ATOM     25  O   LIG A   1      -8.413   5.257 131.100  0.00  0.00    -0.491 OA
ATOM     26  C   LIG A   1      -8.646   6.595 130.667  0.00  0.00    +0.277 C 
ENDBRANCH   7  25
TORSDOF 4
ENDMDL
