MODEL 1
REMARK VINA RESULT:      -7.1      0.000      0.000
REMARK  Name = NuBBE_2455
REMARK  17 active torsions:
REMARK  status: ('A' for Active; 'I' for Inactive)
REMARK    1  A    between atoms: C_1  and  O_2
REMARK    2  A    between atoms: O_2  and  C_3
REMARK    3  A    between atoms: C_5  and  C_6
REMARK    4  A    between atoms: C_6  and  C_7
REMARK    5  A    between atoms: C_9  and  C_11
REMARK    6  A    between atoms: C_11  and  O_12
REMARK    7  A    between atoms: O_12  and  C_13
REMARK    8  A    between atoms: C_13  and  C_14
REMARK    9  A    between atoms: C_16  and  C_18
REMARK   10  A    between atoms: C_21  and  O_22
REMARK   11  A    between atoms: O_22  and  C_23
REMARK   12  A    between atoms: C_23  and  C_24
REMARK   13  A    between atoms: C_26  and  O_27
REMARK   14  A    between atoms: O_27  and  C_28
REMARK   15  A    between atoms: C_34  and  O_35
REMARK   16  A    between atoms: O_35  and  C_36
REMARK   17  A    between atoms: C_36  and  C_37
REMARK                            x       y       z     vdW  Elec       q    Type
REMARK                         _______ _______ _______ _____ _____    ______ ____
ROOT
ATOM      1  C   LIG A   1      -7.216  -2.599 127.789  0.00  0.00    +0.028 C 
ATOM      2  C   LIG A   1      -6.793  -1.177 127.379  0.00  0.00    +0.066 C 
ATOM      3  C   LIG A   1      -8.087  -0.611 126.785  0.00  0.00    +0.155 C 
ATOM      4  O   LIG A   1      -8.810  -1.768 126.286  0.00  0.00    -0.371 OA
ATOM      5  C   LIG A   1      -8.020  -2.939 126.544  0.00  0.00    +0.165 C 
ENDROOT
BRANCH   3   6
ATOM      6  C   LIG A   1      -7.915   0.397 125.668  0.00  0.00    -0.015 A 
ATOM      7  C   LIG A   1      -7.221   0.046 124.499  0.00  0.00    +0.010 A 
ATOM      8  C   LIG A   1      -7.015   0.980 123.479  0.00  0.00    +0.050 A 
ATOM      9  C   LIG A   1      -7.497   2.284 123.615  0.00  0.00    +0.173 A 
ATOM     10  C   LIG A   1      -8.219   2.644 124.755  0.00  0.00    +0.163 A 
ATOM     11  C   LIG A   1      -8.405   1.712 125.780  0.00  0.00    +0.055 A 
BRANCH  10  12
ATOM     12  O   LIG A   1      -8.711   3.903 124.978  0.00  0.00    -0.491 OA
ATOM     13  C   LIG A   1      -7.975   4.602 125.979  0.00  0.00    +0.277 C 
ENDBRANCH  10  12
BRANCH   9  14
ATOM     14  O   LIG A   1      -7.397   3.210 122.555  0.00  0.00    -0.422 OA
BRANCH  14  15
ATOM     15  C   LIG A   1      -6.188   3.840 122.267  0.00  0.00    +0.309 C 
ATOM     16  C   LIG A   1      -5.730   3.394 120.907  0.00  0.00    +0.136 C 
ATOM     17  O   LIG A   1      -5.576   4.607 122.983  0.00  0.00    -0.251 OA
ENDBRANCH  14  15
ENDBRANCH   9  14
ENDBRANCH   3   6
BRANCH   1  18
ATOM     18  C   LIG A   1      -8.091  -2.689 129.072  0.00  0.00    +0.041 C 
BRANCH  18  21
ATOM     19  C   LIG A   1      -6.761  -3.188 132.582  0.00  0.00    +0.163 A 
ATOM     20  C   LIG A   1      -7.576  -2.841 131.508  0.00  0.00    +0.053 A 
ATOM     21  C   LIG A   1      -7.331  -3.318 130.221  0.00  0.00    -0.043 A 
ATOM     22  C   LIG A   1      -6.344  -4.297 130.046  0.00  0.00    +0.007 A 
ATOM     23  C   LIG A   1      -5.522  -4.670 131.118  0.00  0.00    +0.050 A 
ATOM     24  C   LIG A   1      -5.690  -4.063 132.372  0.00  0.00    +0.173 A 
BRANCH  19  26
ATOM     25  C   LIG A   1      -8.228  -3.403 134.377  0.00  0.00    +0.277 C 
ATOM     26  O   LIG A   1      -7.065  -2.766 133.846  0.00  0.00    -0.491 OA
ENDBRANCH  19  26
BRANCH  24  27
ATOM     27  O   LIG A   1      -4.819  -4.463 133.413  0.00  0.00    -0.422 OA
BRANCH  27  28
ATOM     28  C   LIG A   1      -3.475  -4.059 133.501  0.00  0.00    +0.309 C 
ATOM     29  C   LIG A   1      -3.431  -2.752 134.231  0.00  0.00    +0.136 C 
ATOM     30  O   LIG A   1      -2.483  -4.667 133.124  0.00  0.00    -0.251 OA
ENDBRANCH  27  28
ENDBRANCH  24  27
ENDBRANCH  18  21
ENDBRANCH   1  18
BRANCH   2  31
ATOM     31  C   LIG A   1      -6.109  -0.341 128.451  0.00  0.00    +0.238 C 
BRANCH  31  32
ATOM     32  O   LIG A   1      -4.929  -1.064 128.870  0.00  0.00    -0.464 OA
BRANCH  32  33
ATOM     33  C   LIG A   1      -4.446  -0.740 130.099  0.00  0.00    +0.304 C 
ATOM     34  C   LIG A   1      -3.386  -1.738 130.496  0.00  0.00    +0.136 C 
ATOM     35  O   LIG A   1      -4.723   0.260 130.732  0.00  0.00    -0.251 OA
ENDBRANCH  32  33
ENDBRANCH  31  32
ENDBRANCH   2  31
TORSDOF 12
ENDMDL
MODEL 2
REMARK VINA RESULT:      -7.1      5.134      8.067
REMARK  Name = NuBBE_2455
REMARK  17 active torsions:
REMARK  status: ('A' for Active; 'I' for Inactive)
REMARK    1  A    between atoms: C_1  and  O_2
REMARK    2  A    between atoms: O_2  and  C_3
REMARK    3  A    between atoms: C_5  and  C_6
REMARK    4  A    between atoms: C_6  and  C_7
REMARK    5  A    between atoms: C_9  and  C_11
REMARK    6  A    between atoms: C_11  and  O_12
REMARK    7  A    between atoms: O_12  and  C_13
REMARK    8  A    between atoms: C_13  and  C_14
REMARK    9  A    between atoms: C_16  and  C_18
REMARK   10  A    between atoms: C_21  and  O_22
REMARK   11  A    between atoms: O_22  and  C_23
REMARK   12  A    between atoms: C_23  and  C_24
REMARK   13  A    between atoms: C_26  and  O_27
REMARK   14  A    between atoms: O_27  and  C_28
REMARK   15  A    between atoms: C_34  and  O_35
REMARK   16  A    between atoms: O_35  and  C_36
REMARK   17  A    between atoms: C_36  and  C_37
REMARK                            x       y       z     vdW  Elec       q    Type
REMARK                         _______ _______ _______ _____ _____    ______ ____
ROOT
ATOM      1  C   LIG A   1      -4.290   3.984 126.100  0.00  0.00    +0.028 C 
ATOM      2  C   LIG A   1      -5.208   3.343 125.042  0.00  0.00    +0.066 C 
ATOM      3  C   LIG A   1      -6.047   2.376 125.882  0.00  0.00    +0.155 C 
ATOM      4  O   LIG A   1      -5.202   2.028 127.012  0.00  0.00    -0.371 OA
ATOM      5  C   LIG A   1      -3.951   2.717 126.868  0.00  0.00    +0.165 C 
ENDROOT
BRANCH   3   6
ATOM      6  C   LIG A   1      -6.496   1.111 125.180  0.00  0.00    -0.015 A 
ATOM      7  C   LIG A   1      -5.728  -0.060 125.271  0.00  0.00    +0.010 A 
ATOM      8  C   LIG A   1      -6.108  -1.221 124.590  0.00  0.00    +0.050 A 
ATOM      9  C   LIG A   1      -7.262  -1.227 123.803  0.00  0.00    +0.173 A 
ATOM     10  C   LIG A   1      -8.058  -0.082 123.727  0.00  0.00    +0.163 A 
ATOM     11  C   LIG A   1      -7.663   1.081 124.394  0.00  0.00    +0.055 A 
BRANCH  10  12
ATOM     12  O   LIG A   1      -9.194   0.005 122.967  0.00  0.00    -0.491 OA
ATOM     13  C   LIG A   1      -9.813   1.285 123.066  0.00  0.00    +0.277 C 
ENDBRANCH  10  12
BRANCH   9  14
ATOM     14  O   LIG A   1      -7.722  -2.415 123.199  0.00  0.00    -0.422 OA
BRANCH  14  15
ATOM     15  C   LIG A   1      -8.752  -3.157 123.773  0.00  0.00    +0.309 C 
ATOM     16  C   LIG A   1      -8.181  -3.978 124.895  0.00  0.00    +0.136 C 
ATOM     17  O   LIG A   1      -9.918  -3.173 123.433  0.00  0.00    -0.251 OA
ENDBRANCH  14  15
ENDBRANCH   9  14
ENDBRANCH   3   6
BRANCH   1  18
ATOM     18  C   LIG A   1      -4.969   5.040 127.017  0.00  0.00    +0.041 C 
BRANCH  18  21
ATOM     19  C   LIG A   1      -4.008   5.855 130.588  0.00  0.00    +0.163 A 
ATOM     20  C   LIG A   1      -4.655   5.326 129.475  0.00  0.00    +0.053 A 
ATOM     21  C   LIG A   1      -4.093   5.394 128.201  0.00  0.00    -0.043 A 
ATOM     22  C   LIG A   1      -2.777   5.857 128.074  0.00  0.00    +0.007 A 
ATOM     23  C   LIG A   1      -2.103   6.382 129.184  0.00  0.00    +0.050 A 
ATOM     24  C   LIG A   1      -2.747   6.441 130.429  0.00  0.00    +0.173 A 
BRANCH  19  26
ATOM     25  C   LIG A   1      -4.405   4.385 132.349  0.00  0.00    +0.277 C 
ATOM     26  O   LIG A   1      -4.546   5.711 131.835  0.00  0.00    -0.491 OA
ENDBRANCH  19  26
BRANCH  24  27
ATOM     27  O   LIG A   1      -2.027   7.000 131.511  0.00  0.00    -0.422 OA
BRANCH  27  28
ATOM     28  C   LIG A   1      -1.053   6.296 132.243  0.00  0.00    +0.309 C 
ATOM     29  C   LIG A   1      -0.112   7.295 132.844  0.00  0.00    +0.136 C 
ATOM     30  O   LIG A   1      -0.988   5.090 132.437  0.00  0.00    -0.251 OA
ENDBRANCH  27  28
ENDBRANCH  24  27
ENDBRANCH  18  21
ENDBRANCH   1  18
BRANCH   2  31
ATOM     31  C   LIG A   1      -5.968   4.303 124.139  0.00  0.00    +0.238 C 
BRANCH  31  32
ATOM     32  O   LIG A   1      -5.256   4.366 122.882  0.00  0.00    -0.464 OA
BRANCH  32  33
ATOM     33  C   LIG A   1      -5.940   3.922 121.794  0.00  0.00    +0.304 C 
ATOM     34  C   LIG A   1      -5.286   4.454 120.544  0.00  0.00    +0.136 C 
ATOM     35  O   LIG A   1      -6.857   3.123 121.807  0.00  0.00    -0.251 OA
ENDBRANCH  32  33
ENDBRANCH  31  32
ENDBRANCH   2  31
TORSDOF 12
ENDMDL
MODEL 3
REMARK VINA RESULT:      -6.8      4.275      7.446
REMARK  Name = NuBBE_2455
REMARK  17 active torsions:
REMARK  status: ('A' for Active; 'I' for Inactive)
REMARK    1  A    between atoms: C_1  and  O_2
REMARK    2  A    between atoms: O_2  and  C_3
REMARK    3  A    between atoms: C_5  and  C_6
REMARK    4  A    between atoms: C_6  and  C_7
REMARK    5  A    between atoms: C_9  and  C_11
REMARK    6  A    between atoms: C_11  and  O_12
REMARK    7  A    between atoms: O_12  and  C_13
REMARK    8  A    between atoms: C_13  and  C_14
REMARK    9  A    between atoms: C_16  and  C_18
REMARK   10  A    between atoms: C_21  and  O_22
REMARK   11  A    between atoms: O_22  and  C_23
REMARK   12  A    between atoms: C_23  and  C_24
REMARK   13  A    between atoms: C_26  and  O_27
REMARK   14  A    between atoms: O_27  and  C_28
REMARK   15  A    between atoms: C_34  and  O_35
REMARK   16  A    between atoms: O_35  and  C_36
REMARK   17  A    between atoms: C_36  and  C_37
REMARK                            x       y       z     vdW  Elec       q    Type
REMARK                         _______ _______ _______ _____ _____    ______ ____
ROOT
ATOM      1  C   LIG A   1      -7.992   0.535 129.268  0.00  0.00    +0.028 C 
ATOM      2  C   LIG A   1      -8.666   1.803 128.712  0.00  0.00    +0.066 C 
ATOM      3  C   LIG A   1      -8.024   2.910 129.554  0.00  0.00    +0.155 C 
ATOM      4  O   LIG A   1      -7.670   2.271 130.810  0.00  0.00    -0.371 OA
ATOM      5  C   LIG A   1      -8.072   0.894 130.743  0.00  0.00    +0.165 C 
ENDROOT
BRANCH   3   6
ATOM      6  C   LIG A   1      -8.894   4.118 129.830  0.00  0.00    -0.015 A 
ATOM      7  C   LIG A   1      -9.729   4.147 130.958  0.00  0.00    +0.010 A 
ATOM      8  C   LIG A   1     -10.571   5.236 131.199  0.00  0.00    +0.050 A 
ATOM      9  C   LIG A   1     -10.594   6.315 130.312  0.00  0.00    +0.173 A 
ATOM     10  C   LIG A   1      -9.747   6.321 129.203  0.00  0.00    +0.163 A 
ATOM     11  C   LIG A   1      -8.922   5.221 128.955  0.00  0.00    +0.055 A 
BRANCH  10  12
ATOM     12  O   LIG A   1      -9.717   7.328 128.274  0.00  0.00    -0.491 OA
ATOM     13  C   LIG A   1     -10.515   7.031 127.130  0.00  0.00    +0.277 C 
ENDBRANCH  10  12
BRANCH   9  14
ATOM     14  O   LIG A   1     -11.352   7.471 130.594  0.00  0.00    -0.422 OA
BRANCH  14  15
ATOM     15  C   LIG A   1     -12.738   7.403 130.726  0.00  0.00    +0.309 C 
ATOM     16  C   LIG A   1     -13.343   7.314 129.353  0.00  0.00    +0.136 C 
ATOM     17  O   LIG A   1     -13.375   7.429 131.760  0.00  0.00    -0.251 OA
ENDBRANCH  14  15
ENDBRANCH   9  14
ENDBRANCH   3   6
BRANCH   1  18
ATOM     18  C   LIG A   1      -6.521   0.313 128.817  0.00  0.00    +0.041 C 
BRANCH  18  21
ATOM     19  C   LIG A   1      -7.275  -2.546 126.451  0.00  0.00    +0.163 A 
ATOM     20  C   LIG A   1      -7.405  -1.556 127.421  0.00  0.00    +0.053 A 
ATOM     21  C   LIG A   1      -6.444  -0.559 127.580  0.00  0.00    -0.043 A 
ATOM     22  C   LIG A   1      -5.415  -0.462 126.633  0.00  0.00    +0.007 A 
ATOM     23  C   LIG A   1      -5.275  -1.441 125.641  0.00  0.00    +0.050 A 
ATOM     24  C   LIG A   1      -6.169  -2.522 125.594  0.00  0.00    +0.173 A 
BRANCH  19  26
ATOM     25  C   LIG A   1      -8.915  -3.834 127.486  0.00  0.00    +0.277 C 
ATOM     26  O   LIG A   1      -8.265  -3.469 126.267  0.00  0.00    -0.491 OA
ENDBRANCH  19  26
BRANCH  24  27
ATOM     27  O   LIG A   1      -5.969  -3.492 124.584  0.00  0.00    -0.422 OA
BRANCH  27  28
ATOM     28  C   LIG A   1      -5.190  -3.267 123.433  0.00  0.00    +0.309 C 
ATOM     29  C   LIG A   1      -4.018  -4.199 123.477  0.00  0.00    +0.136 C 
ATOM     30  O   LIG A   1      -5.427  -2.507 122.506  0.00  0.00    -0.251 OA
ENDBRANCH  27  28
ENDBRANCH  24  27
ENDBRANCH  18  21
ENDBRANCH   1  18
BRANCH   2  31
ATOM     31  C   LIG A   1      -8.625   1.981 127.201  0.00  0.00    +0.238 C 
BRANCH  31  32
ATOM     32  O   LIG A   1      -9.677   1.159 126.644  0.00  0.00    -0.464 OA
BRANCH  32  33
ATOM     33  C   LIG A   1      -9.378   0.535 125.473  0.00  0.00    +0.304 C 
ATOM     34  C   LIG A   1      -8.236   1.256 124.801  0.00  0.00    +0.136 C 
ATOM     35  O   LIG A   1      -9.861  -0.509 125.080  0.00  0.00    -0.251 OA
ENDBRANCH  32  33
ENDBRANCH  31  32
ENDBRANCH   2  31
TORSDOF 12
ENDMDL
MODEL 4
REMARK VINA RESULT:      -6.8      5.345      9.127
REMARK  Name = NuBBE_2455
REMARK  17 active torsions:
REMARK  status: ('A' for Active; 'I' for Inactive)
REMARK    1  A    between atoms: C_1  and  O_2
REMARK    2  A    between atoms: O_2  and  C_3
REMARK    3  A    between atoms: C_5  and  C_6
REMARK    4  A    between atoms: C_6  and  C_7
REMARK    5  A    between atoms: C_9  and  C_11
REMARK    6  A    between atoms: C_11  and  O_12
REMARK    7  A    between atoms: O_12  and  C_13
REMARK    8  A    between atoms: C_13  and  C_14
REMARK    9  A    between atoms: C_16  and  C_18
REMARK   10  A    between atoms: C_21  and  O_22
REMARK   11  A    between atoms: O_22  and  C_23
REMARK   12  A    between atoms: C_23  and  C_24
REMARK   13  A    between atoms: C_26  and  O_27
REMARK   14  A    between atoms: O_27  and  C_28
REMARK   15  A    between atoms: C_34  and  O_35
REMARK   16  A    between atoms: O_35  and  C_36
REMARK   17  A    between atoms: C_36  and  C_37
REMARK                            x       y       z     vdW  Elec       q    Type
REMARK                         _______ _______ _______ _____ _____    ______ ____
ROOT
ATOM      1  C   LIG A   1      -3.843   2.962 127.167  0.00  0.00    +0.028 C 
ATOM      2  C   LIG A   1      -4.331   3.627 128.468  0.00  0.00    +0.066 C 
ATOM      3  C   LIG A   1      -3.926   5.089 128.257  0.00  0.00    +0.155 C 
ATOM      4  O   LIG A   1      -2.775   5.038 127.372  0.00  0.00    -0.371 OA
ATOM      5  C   LIG A   1      -2.496   3.661 127.075  0.00  0.00    +0.165 C 
ENDROOT
BRANCH   3   6
ATOM      6  C   LIG A   1      -3.565   5.860 129.510  0.00  0.00    -0.015 A 
ATOM      7  C   LIG A   1      -4.049   7.164 129.703  0.00  0.00    +0.010 A 
ATOM      8  C   LIG A   1      -3.686   7.903 130.832  0.00  0.00    +0.050 A 
ATOM      9  C   LIG A   1      -2.828   7.351 131.787  0.00  0.00    +0.173 A 
ATOM     10  C   LIG A   1      -2.363   6.044 131.630  0.00  0.00    +0.163 A 
ATOM     11  C   LIG A   1      -2.713   5.316 130.489  0.00  0.00    +0.055 A 
BRANCH  10  12
ATOM     12  O   LIG A   1      -1.506   5.431 132.506  0.00  0.00    -0.491 OA
ATOM     13  C   LIG A   1      -1.948   4.126 132.870  0.00  0.00    +0.277 C 
ENDBRANCH  10  12
BRANCH   9  14
ATOM     14  O   LIG A   1      -2.538   8.036 132.985  0.00  0.00    -0.422 OA
BRANCH  14  15
ATOM     15  C   LIG A   1      -1.751   9.186 132.980  0.00  0.00    +0.309 C 
ATOM     16  C   LIG A   1      -0.333   8.795 133.287  0.00  0.00    +0.136 C 
ATOM     17  O   LIG A   1      -2.125  10.325 132.783  0.00  0.00    -0.251 OA
ENDBRANCH  14  15
ENDBRANCH   9  14
ENDBRANCH   3   6
BRANCH   1  18
ATOM     18  C   LIG A   1      -4.715   3.241 125.910  0.00  0.00    +0.041 C 
BRANCH  18  21
ATOM     19  C   LIG A   1      -5.827  -0.371 125.667  0.00  0.00    +0.163 A 
ATOM     20  C   LIG A   1      -5.250   0.813 126.117  0.00  0.00    +0.053 A 
ATOM     21  C   LIG A   1      -5.574   2.046 125.552  0.00  0.00    -0.043 A 
ATOM     22  C   LIG A   1      -6.626   2.103 124.628  0.00  0.00    +0.007 A 
ATOM     23  C   LIG A   1      -7.230   0.924 124.172  0.00  0.00    +0.050 A 
ATOM     24  C   LIG A   1      -6.781  -0.319 124.644  0.00  0.00    +0.173 A 
BRANCH  19  26
ATOM     25  C   LIG A   1      -5.472  -1.435 127.706  0.00  0.00    +0.277 C 
ATOM     26  O   LIG A   1      -5.547  -1.556 126.285  0.00  0.00    -0.491 OA
ENDBRANCH  19  26
BRANCH  24  27
ATOM     27  O   LIG A   1      -7.412  -1.478 124.134  0.00  0.00    -0.422 OA
BRANCH  27  28
ATOM     28  C   LIG A   1      -8.728  -1.855 124.462  0.00  0.00    +0.309 C 
ATOM     29  C   LIG A   1      -9.169  -2.896 123.479  0.00  0.00    +0.136 C 
ATOM     30  O   LIG A   1      -9.402  -1.477 125.409  0.00  0.00    -0.251 OA
ENDBRANCH  27  28
ENDBRANCH  24  27
ENDBRANCH  18  21
ENDBRANCH   1  18
BRANCH   2  31
ATOM     31  C   LIG A   1      -5.780   3.367 128.856  0.00  0.00    +0.238 C 
BRANCH  31  32
ATOM     32  O   LIG A   1      -6.556   4.496 128.394  0.00  0.00    -0.464 OA
BRANCH  32  33
ATOM     33  C   LIG A   1      -7.721   4.191 127.761  0.00  0.00    +0.304 C 
ATOM     34  C   LIG A   1      -8.113   2.773 128.097  0.00  0.00    +0.136 C 
ATOM     35  O   LIG A   1      -8.410   4.965 127.127  0.00  0.00    -0.251 OA
ENDBRANCH  32  33
ENDBRANCH  31  32
ENDBRANCH   2  31
TORSDOF 12
ENDMDL
MODEL 5
REMARK VINA RESULT:      -6.8      3.945      8.256
REMARK  Name = NuBBE_2455
REMARK  17 active torsions:
REMARK  status: ('A' for Active; 'I' for Inactive)
REMARK    1  A    between atoms: C_1  and  O_2
REMARK    2  A    between atoms: O_2  and  C_3
REMARK    3  A    between atoms: C_5  and  C_6
REMARK    4  A    between atoms: C_6  and  C_7
REMARK    5  A    between atoms: C_9  and  C_11
REMARK    6  A    between atoms: C_11  and  O_12
REMARK    7  A    between atoms: O_12  and  C_13
REMARK    8  A    between atoms: C_13  and  C_14
REMARK    9  A    between atoms: C_16  and  C_18
REMARK   10  A    between atoms: C_21  and  O_22
REMARK   11  A    between atoms: O_22  and  C_23
REMARK   12  A    between atoms: C_23  and  C_24
REMARK   13  A    between atoms: C_26  and  O_27
REMARK   14  A    between atoms: O_27  and  C_28
REMARK   15  A    between atoms: C_34  and  O_35
REMARK   16  A    between atoms: O_35  and  C_36
REMARK   17  A    between atoms: C_36  and  C_37
REMARK                            x       y       z     vdW  Elec       q    Type
REMARK                         _______ _______ _______ _____ _____    ______ ____
ROOT
ATOM      1  C   LIG A   1      -7.517   1.688 130.038  0.00  0.00    +0.028 C 
ATOM      2  C   LIG A   1      -7.529   1.284 128.552  0.00  0.00    +0.066 C 
ATOM      3  C   LIG A   1      -7.965  -0.183 128.617  0.00  0.00    +0.155 C 
ATOM      4  O   LIG A   1      -7.516  -0.652 129.917  0.00  0.00    -0.371 OA
ATOM      5  C   LIG A   1      -6.854   0.433 130.583  0.00  0.00    +0.165 C 
ENDROOT
BRANCH   3   6
ATOM      6  C   LIG A   1      -7.409  -1.086 127.535  0.00  0.00    -0.015 A 
ATOM      7  C   LIG A   1      -6.066  -0.976 127.143  0.00  0.00    +0.010 A 
ATOM      8  C   LIG A   1      -5.552  -1.770 126.114  0.00  0.00    +0.050 A 
ATOM      9  C   LIG A   1      -6.376  -2.687 125.457  0.00  0.00    +0.173 A 
ATOM     10  C   LIG A   1      -7.707  -2.835 125.854  0.00  0.00    +0.163 A 
ATOM     11  C   LIG A   1      -8.220  -2.024 126.870  0.00  0.00    +0.055 A 
BRANCH  10  12
ATOM     12  O   LIG A   1      -8.589  -3.695 125.254  0.00  0.00    -0.491 OA
ATOM     13  C   LIG A   1      -9.241  -3.104 124.133  0.00  0.00    +0.277 C 
ENDBRANCH  10  12
BRANCH   9  14
ATOM     14  O   LIG A   1      -5.853  -3.574 124.494  0.00  0.00    -0.422 OA
BRANCH  14  15
ATOM     15  C   LIG A   1      -5.059  -3.108 123.448  0.00  0.00    +0.309 C 
ATOM     16  C   LIG A   1      -5.912  -2.267 122.540  0.00  0.00    +0.136 C 
ATOM     17  O   LIG A   1      -3.881  -3.342 123.266  0.00  0.00    -0.251 OA
ENDBRANCH  14  15
ENDBRANCH   9  14
ENDBRANCH   3   6
BRANCH   1  18
ATOM     18  C   LIG A   1      -8.916   1.914 130.677  0.00  0.00    +0.041 C 
BRANCH  18  21
ATOM     19  C   LIG A   1      -8.845   5.689 130.386  0.00  0.00    +0.163 A 
ATOM     20  C   LIG A   1      -8.471   4.349 130.363  0.00  0.00    +0.053 A 
ATOM     21  C   LIG A   1      -9.414   3.325 130.440  0.00  0.00    -0.043 A 
ATOM     22  C   LIG A   1     -10.774   3.660 130.370  0.00  0.00    +0.007 A 
ATOM     23  C   LIG A   1     -11.170   5.004 130.379  0.00  0.00    +0.050 A 
ATOM     24  C   LIG A   1     -10.203   6.018 130.455  0.00  0.00    +0.173 A 
BRANCH  19  26
ATOM     25  C   LIG A   1      -7.003   6.746 131.338  0.00  0.00    +0.277 C 
ATOM     26  O   LIG A   1      -7.908   6.672 130.236  0.00  0.00    -0.491 OA
ENDBRANCH  19  26
BRANCH  24  27
ATOM     27  O   LIG A   1     -10.662   7.356 130.482  0.00  0.00    -0.422 OA
BRANCH  27  28
ATOM     28  C   LIG A   1     -11.457   7.926 129.471  0.00  0.00    +0.309 C 
ATOM     29  C   LIG A   1     -10.561   8.290 128.326  0.00  0.00    +0.136 C 
ATOM     30  O   LIG A   1     -12.672   8.059 129.458  0.00  0.00    -0.251 OA
ENDBRANCH  27  28
ENDBRANCH  24  27
ENDBRANCH  18  21
ENDBRANCH   1  18
BRANCH   2  31
ATOM     31  C   LIG A   1      -8.313   2.190 127.613  0.00  0.00    +0.238 C 
BRANCH  31  32
ATOM     32  O   LIG A   1      -8.951   1.341 126.631  0.00  0.00    -0.464 OA
BRANCH  32  33
ATOM     33  C   LIG A   1      -8.853   1.758 125.340  0.00  0.00    +0.304 C 
ATOM     34  C   LIG A   1      -7.917   0.843 124.591  0.00  0.00    +0.136 C 
ATOM     35  O   LIG A   1      -9.505   2.647 124.828  0.00  0.00    -0.251 OA
ENDBRANCH  32  33
ENDBRANCH  31  32
ENDBRANCH   2  31
TORSDOF 12
ENDMDL
MODEL 6
REMARK VINA RESULT:      -6.7      4.260      8.140
REMARK  Name = NuBBE_2455
REMARK  17 active torsions:
REMARK  status: ('A' for Active; 'I' for Inactive)
REMARK    1  A    between atoms: C_1  and  O_2
REMARK    2  A    between atoms: O_2  and  C_3
REMARK    3  A    between atoms: C_5  and  C_6
REMARK    4  A    between atoms: C_6  and  C_7
REMARK    5  A    between atoms: C_9  and  C_11
REMARK    6  A    between atoms: C_11  and  O_12
REMARK    7  A    between atoms: O_12  and  C_13
REMARK    8  A    between atoms: C_13  and  C_14
REMARK    9  A    between atoms: C_16  and  C_18
REMARK   10  A    between atoms: C_21  and  O_22
REMARK   11  A    between atoms: O_22  and  C_23
REMARK   12  A    between atoms: C_23  and  C_24
REMARK   13  A    between atoms: C_26  and  O_27
REMARK   14  A    between atoms: O_27  and  C_28
REMARK   15  A    between atoms: C_34  and  O_35
REMARK   16  A    between atoms: O_35  and  C_36
REMARK   17  A    between atoms: C_36  and  C_37
REMARK                            x       y       z     vdW  Elec       q    Type
REMARK                         _______ _______ _______ _____ _____    ______ ____
ROOT
ATOM      1  C   LIG A   1      -4.465   3.568 126.313  0.00  0.00    +0.028 C 
ATOM      2  C   LIG A   1      -5.569   2.867 125.499  0.00  0.00    +0.066 C 
ATOM      3  C   LIG A   1      -6.565   2.457 126.588  0.00  0.00    +0.155 C 
ATOM      4  O   LIG A   1      -5.764   2.294 127.789  0.00  0.00    -0.371 OA
ATOM      5  C   LIG A   1      -4.395   2.572 127.459  0.00  0.00    +0.165 C 
ENDROOT
BRANCH   3   6
ATOM      6  C   LIG A   1      -7.343   1.185 126.324  0.00  0.00    -0.015 A 
ATOM      7  C   LIG A   1      -8.506   1.217 125.539  0.00  0.00    +0.010 A 
ATOM      8  C   LIG A   1      -9.259   0.058 125.326  0.00  0.00    +0.050 A 
ATOM      9  C   LIG A   1      -8.862  -1.152 125.899  0.00  0.00    +0.173 A 
ATOM     10  C   LIG A   1      -7.691  -1.212 126.656  0.00  0.00    +0.163 A 
ATOM     11  C   LIG A   1      -6.952  -0.047 126.883  0.00  0.00    +0.055 A 
BRANCH  10  12
ATOM     12  O   LIG A   1      -7.238  -2.350 127.269  0.00  0.00    -0.491 OA
ATOM     13  C   LIG A   1      -6.001  -2.144 127.947  0.00  0.00    +0.277 C 
ENDBRANCH  10  12
BRANCH   9  14
ATOM     14  O   LIG A   1      -9.544  -2.352 125.608  0.00  0.00    -0.422 OA
BRANCH  14  15
ATOM     15  C   LIG A   1      -9.331  -3.020 124.403  0.00  0.00    +0.309 C 
ATOM     16  C   LIG A   1      -8.257  -4.049 124.612  0.00  0.00    +0.136 C 
ATOM     17  O   LIG A   1      -9.891  -2.813 123.345  0.00  0.00    -0.251 OA
ENDBRANCH  14  15
ENDBRANCH   9  14
ENDBRANCH   3   6
BRANCH   1  18
ATOM     18  C   LIG A   1      -4.818   4.995 126.821  0.00  0.00    +0.041 C 
BRANCH  18  21
ATOM     19  C   LIG A   1      -4.058   5.982 130.397  0.00  0.00    +0.163 A 
ATOM     20  C   LIG A   1      -4.662   5.424 129.273  0.00  0.00    +0.053 A 
ATOM     21  C   LIG A   1      -4.006   5.366 128.044  0.00  0.00    -0.043 A 
ATOM     22  C   LIG A   1      -2.652   5.727 127.990  0.00  0.00    +0.007 A 
ATOM     23  C   LIG A   1      -2.023   6.278 129.114  0.00  0.00    +0.050 A 
ATOM     24  C   LIG A   1      -2.750   6.467 130.299  0.00  0.00    +0.173 A 
BRANCH  19  26
ATOM     25  C   LIG A   1      -4.615   4.688 132.251  0.00  0.00    +0.277 C 
ATOM     26  O   LIG A   1      -4.694   5.961 131.606  0.00  0.00    -0.491 OA
ENDBRANCH  19  26
BRANCH  24  27
ATOM     27  O   LIG A   1      -2.069   7.046 131.396  0.00  0.00    -0.422 OA
BRANCH  27  28
ATOM     28  C   LIG A   1      -1.126   6.355 132.179  0.00  0.00    +0.309 C 
ATOM     29  C   LIG A   1      -0.208   7.365 132.796  0.00  0.00    +0.136 C 
ATOM     30  O   LIG A   1      -1.070   5.154 132.399  0.00  0.00    -0.251 OA
ENDBRANCH  27  28
ENDBRANCH  24  27
ENDBRANCH  18  21
ENDBRANCH   1  18
BRANCH   2  31
ATOM     31  C   LIG A   1      -6.129   3.642 124.315  0.00  0.00    +0.238 C 
BRANCH  31  32
ATOM     32  O   LIG A   1      -6.348   2.693 123.247  0.00  0.00    -0.464 OA
BRANCH  32  33
ATOM     33  C   LIG A   1      -6.759   3.223 122.063  0.00  0.00    +0.304 C 
ATOM     34  C   LIG A   1      -5.566   3.413 121.161  0.00  0.00    +0.136 C 
ATOM     35  O   LIG A   1      -7.913   3.403 121.727  0.00  0.00    -0.251 OA
ENDBRANCH  32  33
ENDBRANCH  31  32
ENDBRANCH   2  31
TORSDOF 12
ENDMDL
MODEL 7
REMARK VINA RESULT:      -6.6      4.722      8.398
REMARK  Name = NuBBE_2455
REMARK  17 active torsions:
REMARK  status: ('A' for Active; 'I' for Inactive)
REMARK    1  A    between atoms: C_1  and  O_2
REMARK    2  A    between atoms: O_2  and  C_3
REMARK    3  A    between atoms: C_5  and  C_6
REMARK    4  A    between atoms: C_6  and  C_7
REMARK    5  A    between atoms: C_9  and  C_11
REMARK    6  A    between atoms: C_11  and  O_12
REMARK    7  A    between atoms: O_12  and  C_13
REMARK    8  A    between atoms: C_13  and  C_14
REMARK    9  A    between atoms: C_16  and  C_18
REMARK   10  A    between atoms: C_21  and  O_22
REMARK   11  A    between atoms: O_22  and  C_23
REMARK   12  A    between atoms: C_23  and  C_24
REMARK   13  A    between atoms: C_26  and  O_27
REMARK   14  A    between atoms: O_27  and  C_28
REMARK   15  A    between atoms: C_34  and  O_35
REMARK   16  A    between atoms: O_35  and  C_36
REMARK   17  A    between atoms: C_36  and  C_37
REMARK                            x       y       z     vdW  Elec       q    Type
REMARK                         _______ _______ _______ _____ _____    ______ ____
ROOT
ATOM      1  C   LIG A   1      -4.525   2.156 126.651  0.00  0.00    +0.028 C 
ATOM      2  C   LIG A   1      -4.785   2.909 127.969  0.00  0.00    +0.066 C 
ATOM      3  C   LIG A   1      -4.451   4.355 127.589  0.00  0.00    +0.155 C 
ATOM      4  O   LIG A   1      -3.475   4.247 126.518  0.00  0.00    -0.371 OA
ATOM      5  C   LIG A   1      -3.228   2.854 126.271  0.00  0.00    +0.165 C 
ENDROOT
BRANCH   3   6
ATOM      6  C   LIG A   1      -3.886   5.215 128.701  0.00  0.00    -0.015 A 
ATOM      7  C   LIG A   1      -2.525   5.558 128.708  0.00  0.00    +0.010 A 
ATOM      8  C   LIG A   1      -1.982   6.313 129.752  0.00  0.00    +0.050 A 
ATOM      9  C   LIG A   1      -2.793   6.734 130.809  0.00  0.00    +0.173 A 
ATOM     10  C   LIG A   1      -4.156   6.432 130.803  0.00  0.00    +0.163 A 
ATOM     11  C   LIG A   1      -4.689   5.660 129.767  0.00  0.00    +0.055 A 
BRANCH  10  12
ATOM     12  O   LIG A   1      -5.019   6.789 131.806  0.00  0.00    -0.491 OA
ATOM     13  C   LIG A   1      -6.381   6.739 131.389  0.00  0.00    +0.277 C 
ENDBRANCH  10  12
BRANCH   9  14
ATOM     14  O   LIG A   1      -2.291   7.588 131.814  0.00  0.00    -0.422 OA
BRANCH  14  15
ATOM     15  C   LIG A   1      -1.229   7.191 132.625  0.00  0.00    +0.309 C 
ATOM     16  C   LIG A   1      -1.640   5.958 133.379  0.00  0.00    +0.136 C 
ATOM     17  O   LIG A   1      -0.153   7.742 132.738  0.00  0.00    -0.251 OA
ENDBRANCH  14  15
ENDBRANCH   9  14
ENDBRANCH   3   6
BRANCH   1  18
ATOM     18  C   LIG A   1      -5.611   2.340 125.554  0.00  0.00    +0.041 C 
BRANCH  18  21
ATOM     19  C   LIG A   1      -8.612   0.122 124.909  0.00  0.00    +0.163 A 
ATOM     20  C   LIG A   1      -7.729   1.198 124.896  0.00  0.00    +0.053 A 
ATOM     21  C   LIG A   1      -6.418   1.074 125.352  0.00  0.00    -0.043 A 
ATOM     22  C   LIG A   1      -5.938  -0.204 125.672  0.00  0.00    +0.007 A 
ATOM     23  C   LIG A   1      -6.808  -1.303 125.678  0.00  0.00    +0.050 A 
ATOM     24  C   LIG A   1      -8.163  -1.124 125.360  0.00  0.00    +0.173 A 
BRANCH  19  26
ATOM     25  C   LIG A   1     -10.059   1.490 123.703  0.00  0.00    +0.277 C 
ATOM     26  O   LIG A   1      -9.869   0.251 124.389  0.00  0.00    -0.491 OA
ENDBRANCH  19  26
BRANCH  24  27
ATOM     27  O   LIG A   1      -8.999  -2.264 125.402  0.00  0.00    -0.422 OA
BRANCH  27  28
ATOM     28  C   LIG A   1      -8.797  -3.407 124.606  0.00  0.00    +0.309 C 
ATOM     29  C   LIG A   1      -9.454  -3.170 123.281  0.00  0.00    +0.136 C 
ATOM     30  O   LIG A   1      -8.151  -4.408 124.882  0.00  0.00    -0.251 OA
ENDBRANCH  27  28
ENDBRANCH  24  27
ENDBRANCH  18  21
ENDBRANCH   1  18
BRANCH   2  31
ATOM     31  C   LIG A   1      -6.136   2.669 128.627  0.00  0.00    +0.238 C 
BRANCH  31  32
ATOM     32  O   LIG A   1      -6.237   1.251 128.894  0.00  0.00    -0.464 OA
BRANCH  32  33
ATOM     33  C   LIG A   1      -7.499   0.746 128.923  0.00  0.00    +0.304 C 
ATOM     34  C   LIG A   1      -8.465   1.790 128.422  0.00  0.00    +0.136 C 
ATOM     35  O   LIG A   1      -7.800  -0.402 129.188  0.00  0.00    -0.251 OA
ENDBRANCH  32  33
ENDBRANCH  31  32
ENDBRANCH   2  31
TORSDOF 12
ENDMDL
MODEL 8
REMARK VINA RESULT:      -6.5      5.466      9.393
REMARK  Name = NuBBE_2455
REMARK  17 active torsions:
REMARK  status: ('A' for Active; 'I' for Inactive)
REMARK    1  A    between atoms: C_1  and  O_2
REMARK    2  A    between atoms: O_2  and  C_3
REMARK    3  A    between atoms: C_5  and  C_6
REMARK    4  A    between atoms: C_6  and  C_7
REMARK    5  A    between atoms: C_9  and  C_11
REMARK    6  A    between atoms: C_11  and  O_12
REMARK    7  A    between atoms: O_12  and  C_13
REMARK    8  A    between atoms: C_13  and  C_14
REMARK    9  A    between atoms: C_16  and  C_18
REMARK   10  A    between atoms: C_21  and  O_22
REMARK   11  A    between atoms: O_22  and  C_23
REMARK   12  A    between atoms: C_23  and  C_24
REMARK   13  A    between atoms: C_26  and  O_27
REMARK   14  A    between atoms: O_27  and  C_28
REMARK   15  A    between atoms: C_34  and  O_35
REMARK   16  A    between atoms: O_35  and  C_36
REMARK   17  A    between atoms: C_36  and  C_37
REMARK                            x       y       z     vdW  Elec       q    Type
REMARK                         _______ _______ _______ _____ _____    ______ ____
ROOT
ATOM      1  C   LIG A   1      -4.516   2.991 127.522  0.00  0.00    +0.028 C 
ATOM      2  C   LIG A   1      -5.000   3.921 128.650  0.00  0.00    +0.066 C 
ATOM      3  C   LIG A   1      -4.230   5.213 128.359  0.00  0.00    +0.155 C 
ATOM      4  O   LIG A   1      -3.017   4.785 127.683  0.00  0.00    -0.371 OA
ATOM      5  C   LIG A   1      -3.040   3.353 127.579  0.00  0.00    +0.165 C 
ENDROOT
BRANCH   3   6
ATOM      6  C   LIG A   1      -3.866   6.051 129.567  0.00  0.00    -0.015 A 
ATOM      7  C   LIG A   1      -4.006   7.447 129.529  0.00  0.00    +0.010 A 
ATOM      8  C   LIG A   1      -3.631   8.235 130.621  0.00  0.00    +0.050 A 
ATOM      9  C   LIG A   1      -3.104   7.638 131.769  0.00  0.00    +0.173 A 
ATOM     10  C   LIG A   1      -2.988   6.248 131.840  0.00  0.00    +0.163 A 
ATOM     11  C   LIG A   1      -3.347   5.467 130.738  0.00  0.00    +0.055 A 
BRANCH  10  12
ATOM     12  O   LIG A   1      -2.467   5.582 132.917  0.00  0.00    -0.491 OA
ATOM     13  C   LIG A   1      -1.127   5.152 132.690  0.00  0.00    +0.277 C 
ENDBRANCH  10  12
BRANCH   9  14
ATOM     14  O   LIG A   1      -2.823   8.402 132.921  0.00  0.00    -0.422 OA
BRANCH  14  15
ATOM     15  C   LIG A   1      -1.638   9.129 133.025  0.00  0.00    +0.309 C 
ATOM     16  C   LIG A   1      -1.978  10.593 133.042  0.00  0.00    +0.136 C 
ATOM     17  O   LIG A   1      -0.510   8.682 133.075  0.00  0.00    -0.251 OA
ENDBRANCH  14  15
ENDBRANCH   9  14
ENDBRANCH   3   6
BRANCH   1  18
ATOM     18  C   LIG A   1      -5.118   3.280 126.117  0.00  0.00    +0.041 C 
BRANCH  18  21
ATOM     19  C   LIG A   1      -7.396   1.074 124.048  0.00  0.00    +0.163 A 
ATOM     20  C   LIG A   1      -6.665   2.165 124.509  0.00  0.00    +0.053 A 
ATOM     21  C   LIG A   1      -5.676   2.024 125.482  0.00  0.00    -0.043 A 
ATOM     22  C   LIG A   1      -5.303   0.731 125.875  0.00  0.00    +0.007 A 
ATOM     23  C   LIG A   1      -6.019  -0.381 125.412  0.00  0.00    +0.050 A 
ATOM     24  C   LIG A   1      -7.110  -0.200 124.549  0.00  0.00    +0.173 A 
BRANCH  19  26
ATOM     25  C   LIG A   1      -9.602   1.601 123.522  0.00  0.00    +0.277 C 
ATOM     26  O   LIG A   1      -8.308   1.228 123.043  0.00  0.00    -0.491 OA
ENDBRANCH  19  26
BRANCH  24  27
ATOM     27  O   LIG A   1      -7.809  -1.357 124.129  0.00  0.00    -0.422 OA
BRANCH  27  28
ATOM     28  C   LIG A   1      -8.888  -1.914 124.839  0.00  0.00    +0.309 C 
ATOM     29  C   LIG A   1      -9.014  -3.352 124.436  0.00  0.00    +0.136 C 
ATOM     30  O   LIG A   1      -9.582  -1.377 125.690  0.00  0.00    -0.251 OA
ENDBRANCH  27  28
ENDBRANCH  24  27
ENDBRANCH  18  21
ENDBRANCH   1  18
BRANCH   2  31
ATOM     31  C   LIG A   1      -6.507   4.046 128.821  0.00  0.00    +0.238 C 
BRANCH  31  32
ATOM     32  O   LIG A   1      -6.754   4.402 130.200  0.00  0.00    -0.464 OA
BRANCH  32  33
ATOM     33  C   LIG A   1      -7.492   5.528 130.394  0.00  0.00    +0.304 C 
ATOM     34  C   LIG A   1      -6.947   6.281 131.583  0.00  0.00    +0.136 C 
ATOM     35  O   LIG A   1      -8.370   5.939 129.662  0.00  0.00    -0.251 OA
ENDBRANCH  32  33
ENDBRANCH  31  32
ENDBRANCH   2  31
TORSDOF 12
ENDMDL
MODEL 9
REMARK VINA RESULT:      -6.5      1.978      3.865
REMARK  Name = NuBBE_2455
REMARK  17 active torsions:
REMARK  status: ('A' for Active; 'I' for Inactive)
REMARK    1  A    between atoms: C_1  and  O_2
REMARK    2  A    between atoms: O_2  and  C_3
REMARK    3  A    between atoms: C_5  and  C_6
REMARK    4  A    between atoms: C_6  and  C_7
REMARK    5  A    between atoms: C_9  and  C_11
REMARK    6  A    between atoms: C_11  and  O_12
REMARK    7  A    between atoms: O_12  and  C_13
REMARK    8  A    between atoms: C_13  and  C_14
REMARK    9  A    between atoms: C_16  and  C_18
REMARK   10  A    between atoms: C_21  and  O_22
REMARK   11  A    between atoms: O_22  and  C_23
REMARK   12  A    between atoms: C_23  and  C_24
REMARK   13  A    between atoms: C_26  and  O_27
REMARK   14  A    between atoms: O_27  and  C_28
REMARK   15  A    between atoms: C_34  and  O_35
REMARK   16  A    between atoms: O_35  and  C_36
REMARK   17  A    between atoms: C_36  and  C_37
REMARK                            x       y       z     vdW  Elec       q    Type
REMARK                         _______ _______ _______ _____ _____    ______ ____
ROOT
ATOM      1  C   LIG A   1      -6.037  -0.182 127.845  0.00  0.00    +0.028 C 
ATOM      2  C   LIG A   1      -7.148   0.009 126.796  0.00  0.00    +0.066 C 
ATOM      3  C   LIG A   1      -6.347   0.290 125.521  0.00  0.00    +0.155 C 
ATOM      4  O   LIG A   1      -5.105   0.889 125.980  0.00  0.00    -0.371 OA
ATOM      5  C   LIG A   1      -5.149   0.974 127.413  0.00  0.00    +0.165 C 
ENDROOT
BRANCH   3   6
ATOM      6  C   LIG A   1      -7.008   1.210 124.515  0.00  0.00    -0.015 A 
ATOM      7  C   LIG A   1      -6.477   2.485 124.266  0.00  0.00    +0.010 A 
ATOM      8  C   LIG A   1      -7.104   3.361 123.374  0.00  0.00    +0.050 A 
ATOM      9  C   LIG A   1      -8.277   2.976 122.721  0.00  0.00    +0.173 A 
ATOM     10  C   LIG A   1      -8.802   1.700 122.929  0.00  0.00    +0.163 A 
ATOM     11  C   LIG A   1      -8.183   0.835 123.836  0.00  0.00    +0.055 A 
BRANCH  10  12
ATOM     12  O   LIG A   1      -9.956   1.247 122.344  0.00  0.00    -0.491 OA
ATOM     13  C   LIG A   1     -10.102  -0.166 122.461  0.00  0.00    +0.277 C 
ENDBRANCH  10  12
BRANCH   9  14
ATOM     14  O   LIG A   1      -8.863   3.799 121.736  0.00  0.00    -0.422 OA
BRANCH  14  15
ATOM     15  C   LIG A   1      -8.272   3.947 120.483  0.00  0.00    +0.309 C 
ATOM     16  C   LIG A   1      -9.358   4.166 119.467  0.00  0.00    +0.136 C 
ATOM     17  O   LIG A   1      -7.087   3.891 120.224  0.00  0.00    -0.251 OA
ENDBRANCH  14  15
ENDBRANCH   9  14
ENDBRANCH   3   6
BRANCH   1  18
ATOM     18  C   LIG A   1      -5.280  -1.538 127.771  0.00  0.00    +0.041 C 
BRANCH  18  21
ATOM     19  C   LIG A   1      -4.421  -3.210 131.059  0.00  0.00    +0.163 A 
ATOM     20  C   LIG A   1      -4.445  -2.321 129.988  0.00  0.00    +0.053 A 
ATOM     21  C   LIG A   1      -5.465  -2.348 129.037  0.00  0.00    -0.043 A 
ATOM     22  C   LIG A   1      -6.571  -3.179 129.266  0.00  0.00    +0.007 A 
ATOM     23  C   LIG A   1      -6.572  -4.071 130.346  0.00  0.00    +0.050 A 
ATOM     24  C   LIG A   1      -5.463  -4.132 131.204  0.00  0.00    +0.173 A 
BRANCH  19  26
ATOM     25  C   LIG A   1      -3.053  -1.767 132.269  0.00  0.00    +0.277 C 
ATOM     26  O   LIG A   1      -3.450  -3.116 132.015  0.00  0.00    -0.491 OA
ENDBRANCH  19  26
BRANCH  24  27
ATOM     27  O   LIG A   1      -5.510  -5.066 132.265  0.00  0.00    -0.422 OA
BRANCH  27  28
ATOM     28  C   LIG A   1      -5.974  -4.754 133.556  0.00  0.00    +0.309 C 
ATOM     29  C   LIG A   1      -5.196  -5.573 134.539  0.00  0.00    +0.136 C 
ATOM     30  O   LIG A   1      -6.812  -3.921 133.870  0.00  0.00    -0.251 OA
ENDBRANCH  27  28
ENDBRANCH  24  27
ENDBRANCH  18  21
ENDBRANCH   1  18
BRANCH   2  31
ATOM     31  C   LIG A   1      -8.197  -1.090 126.716  0.00  0.00    +0.238 C 
BRANCH  31  32
ATOM     32  O   LIG A   1      -7.782  -2.005 125.677  0.00  0.00    -0.464 OA
BRANCH  32  33
ATOM     33  C   LIG A   1      -8.787  -2.626 125.002  0.00  0.00    +0.304 C 
ATOM     34  C   LIG A   1      -8.260  -3.137 123.684  0.00  0.00    +0.136 C 
ATOM     35  O   LIG A   1      -9.901  -2.850 125.434  0.00  0.00    -0.251 OA
ENDBRANCH  32  33
ENDBRANCH  31  32
ENDBRANCH   2  31
TORSDOF 12
ENDMDL
