MODEL 1
REMARK VINA RESULT:      -8.0      0.000      0.000
REMARK  Name = NuBBE_2411
REMARK  6 active torsions:
REMARK  status: ('A' for Active; 'I' for Inactive)
REMARK    1  A    between atoms: C_2  and  C_3
REMARK    2  A    between atoms: C_2  and  C_7
REMARK    3  A    between atoms: C_3  and  O_5
REMARK    4  A    between atoms: O_5  and  C_6
REMARK    5  A    between atoms: C_26  and  C_28
REMARK    6  A    between atoms: C_28  and  C_29
REMARK                            x       y       z     vdW  Elec       q    Type
REMARK                         _______ _______ _______ _____ _____    ______ ____
ROOT
ATOM      1  C   LIG A   1      -6.622   1.911 123.522  0.00  0.00    +0.031 C 
ATOM      2  C   LIG A   1      -6.953   0.435 123.858  0.00  0.00    +0.029 C 
ATOM      3  C   LIG A   1      -7.014   0.061 125.363  0.00  0.00    +0.077 C 
ATOM      4  N   LIG A   1      -7.503   1.176 126.185  0.00  0.00    -0.298 NA
ATOM      5  C   LIG A   1      -8.964   1.172 126.139  0.00  0.00    +0.086 C 
ATOM      6  C   LIG A   1      -9.366  -0.226 125.681  0.00  0.00    +0.038 C 
ATOM      7  C   LIG A   1      -8.054  -1.035 125.690  0.00  0.00    +0.090 C 
ATOM      8  C   LIG A   1      -8.204  -2.235 124.706  0.00  0.00    +0.229 C 
ATOM      9  O   LIG A   1      -8.057  -2.264 123.509  0.00  0.00    -0.274 OA
ATOM     10  N   LIG A   1      -8.627  -3.317 125.479  0.00  0.00    -0.284 N 
ATOM     11  C   LIG A   1      -8.491  -3.058 126.837  0.00  0.00    +0.038 A 
ATOM     12  C   LIG A   1      -8.761  -3.924 127.876  0.00  0.00    +0.023 A 
ATOM     13  C   LIG A   1      -8.465  -3.481 129.165  0.00  0.00    +0.002 A 
ATOM     14  C   LIG A   1      -7.891  -2.213 129.371  0.00  0.00    +0.000 A 
ATOM     15  C   LIG A   1      -7.658  -1.340 128.301  0.00  0.00    +0.006 A 
ATOM     16  C   LIG A   1      -7.998  -1.767 127.025  0.00  0.00    -0.010 A 
ATOM     17  C   LIG A   1      -6.853   2.468 126.018  0.00  0.00    +0.088 C 
ATOM     18  C   LIG A   1      -5.992   2.613 124.748  0.00  0.00    +0.010 C 
ATOM     19  H   LIG A   1      -8.843  -4.215 125.077  0.00  0.00    +0.155 HD
ENDROOT
BRANCH   1  21
ATOM     20  C   LIG A   1      -9.074   2.658 123.227  0.00  0.00    +0.020 C 
ATOM     21  C   LIG A   1      -7.796   2.601 122.813  0.00  0.00    +0.033 C 
BRANCH  21  22
ATOM     22  C   LIG A   1      -7.440   3.327 121.545  0.00  0.00    +0.335 C 
ATOM     23  O   LIG A   1      -8.259   3.884 120.835  0.00  0.00    -0.245 OA
BRANCH  22  24
ATOM     24  O   LIG A   1      -6.113   3.215 121.290  0.00  0.00    -0.465 OA
ATOM     25  C   LIG A   1      -5.463   4.350 120.723  0.00  0.00    +0.280 C 
ENDBRANCH  22  24
ENDBRANCH  21  22
ENDBRANCH   1  21
BRANCH  18  26
ATOM     26  C   LIG A   1      -5.589   4.087 124.511  0.00  0.00    +0.002 C 
ATOM     27  C   LIG A   1      -6.508   5.098 125.187  0.00  0.00    +0.004 C 
ENDBRANCH  18  26
TORSDOF 4
ENDMDL
MODEL 2
REMARK VINA RESULT:      -7.8      8.032     10.535
REMARK  Name = NuBBE_2411
REMARK  6 active torsions:
REMARK  status: ('A' for Active; 'I' for Inactive)
REMARK    1  A    between atoms: C_2  and  C_3
REMARK    2  A    between atoms: C_2  and  C_7
REMARK    3  A    between atoms: C_3  and  O_5
REMARK    4  A    between atoms: O_5  and  C_6
REMARK    5  A    between atoms: C_26  and  C_28
REMARK    6  A    between atoms: C_28  and  C_29
REMARK                            x       y       z     vdW  Elec       q    Type
REMARK                         _______ _______ _______ _____ _____    ______ ____
ROOT
ATOM      1  C   LIG A   1      -8.045   5.916 132.953  0.00  0.00    +0.031 C 
ATOM      2  C   LIG A   1      -9.406   6.364 132.364  0.00  0.00    +0.029 C 
ATOM      3  C   LIG A   1      -9.448   6.631 130.836  0.00  0.00    +0.077 C 
ATOM      4  N   LIG A   1      -8.532   5.747 130.100  0.00  0.00    -0.298 NA
ATOM      5  C   LIG A   1      -9.207   4.469 129.882  0.00  0.00    +0.086 C 
ATOM      6  C   LIG A   1     -10.697   4.745 130.064  0.00  0.00    +0.038 C 
ATOM      7  C   LIG A   1     -10.802   6.277 130.180  0.00  0.00    +0.090 C 
ATOM      8  C   LIG A   1     -12.114   6.629 130.946  0.00  0.00    +0.229 C 
ATOM      9  O   LIG A   1     -12.319   6.659 132.134  0.00  0.00    -0.274 OA
ATOM     10  N   LIG A   1     -13.084   6.849 129.968  0.00  0.00    -0.284 N 
ATOM     11  C   LIG A   1     -12.518   6.972 128.706  0.00  0.00    +0.038 A 
ATOM     12  C   LIG A   1     -13.177   7.248 127.526  0.00  0.00    +0.023 A 
ATOM     13  C   LIG A   1     -12.393   7.415 126.384  0.00  0.00    +0.002 A 
ATOM     14  C   LIG A   1     -10.991   7.328 126.461  0.00  0.00    +0.000 A 
ATOM     15  C   LIG A   1     -10.349   7.014 127.666  0.00  0.00    +0.006 A 
ATOM     16  C   LIG A   1     -11.136   6.802 128.788  0.00  0.00    -0.010 A 
ATOM     17  C   LIG A   1      -7.152   5.681 130.557  0.00  0.00    +0.088 C 
ATOM     18  C   LIG A   1      -6.898   6.244 131.970  0.00  0.00    +0.010 C 
ATOM     19  H   LIG A   1     -14.044   7.053 130.197  0.00  0.00    +0.155 HD
ENDROOT
BRANCH   1  21
ATOM     20  C   LIG A   1      -8.827   3.458 133.036  0.00  0.00    +0.020 C 
ATOM     21  C   LIG A   1      -8.125   4.493 133.528  0.00  0.00    +0.033 C 
BRANCH  21  22
ATOM     22  C   LIG A   1      -7.276   4.247 134.746  0.00  0.00    +0.335 C 
ATOM     23  O   LIG A   1      -6.473   3.335 134.832  0.00  0.00    -0.245 OA
BRANCH  22  24
ATOM     24  O   LIG A   1      -7.580   5.134 135.724  0.00  0.00    -0.465 OA
ATOM     25  C   LIG A   1      -6.489   5.780 136.376  0.00  0.00    +0.280 C 
ENDBRANCH  22  24
ENDBRANCH  21  22
ENDBRANCH   1  21
BRANCH  18  26
ATOM     26  C   LIG A   1      -5.486   5.869 132.476  0.00  0.00    +0.002 C 
ATOM     27  C   LIG A   1      -4.376   6.765 131.936  0.00  0.00    +0.004 C 
ENDBRANCH  18  26
TORSDOF 4
ENDMDL
MODEL 3
REMARK VINA RESULT:      -7.5      8.238     10.162
REMARK  Name = NuBBE_2411
REMARK  6 active torsions:
REMARK  status: ('A' for Active; 'I' for Inactive)
REMARK    1  A    between atoms: C_2  and  C_3
REMARK    2  A    between atoms: C_2  and  C_7
REMARK    3  A    between atoms: C_3  and  O_5
REMARK    4  A    between atoms: O_5  and  C_6
REMARK    5  A    between atoms: C_26  and  C_28
REMARK    6  A    between atoms: C_28  and  C_29
REMARK                            x       y       z     vdW  Elec       q    Type
REMARK                         _______ _______ _______ _____ _____    ______ ____
ROOT
ATOM      1  C   LIG A   1      -4.276   5.765 132.174  0.00  0.00    +0.031 C 
ATOM      2  C   LIG A   1      -5.744   5.853 132.661  0.00  0.00    +0.029 C 
ATOM      3  C   LIG A   1      -6.767   6.477 131.675  0.00  0.00    +0.077 C 
ATOM      4  N   LIG A   1      -6.426   6.186 130.275  0.00  0.00    -0.298 NA
ATOM      5  C   LIG A   1      -6.938   4.857 129.945  0.00  0.00    +0.086 C 
ATOM      6  C   LIG A   1      -8.000   4.545 130.995  0.00  0.00    +0.038 C 
ATOM      7  C   LIG A   1      -8.182   5.861 131.775  0.00  0.00    +0.090 C 
ATOM      8  C   LIG A   1      -8.749   5.526 133.188  0.00  0.00    +0.229 C 
ATOM      9  O   LIG A   1      -8.162   5.174 134.182  0.00  0.00    -0.274 OA
ATOM     10  N   LIG A   1     -10.135   5.644 133.086  0.00  0.00    -0.284 N 
ATOM     11  C   LIG A   1     -10.508   6.278 131.907  0.00  0.00    +0.038 A 
ATOM     12  C   LIG A   1     -11.787   6.606 131.513  0.00  0.00    +0.023 A 
ATOM     13  C   LIG A   1     -11.921   7.324 130.324  0.00  0.00    +0.002 A 
ATOM     14  C   LIG A   1     -10.784   7.709 129.589  0.00  0.00    +0.000 A 
ATOM     15  C   LIG A   1      -9.498   7.335 129.997  0.00  0.00    +0.006 A 
ATOM     16  C   LIG A   1      -9.373   6.580 131.153  0.00  0.00    -0.010 A 
ATOM     17  C   LIG A   1      -5.069   6.484 129.840  0.00  0.00    +0.088 C 
ATOM     18  C   LIG A   1      -4.049   6.713 130.973  0.00  0.00    +0.010 C 
ATOM     19  H   LIG A   1     -10.752   5.437 133.855  0.00  0.00    +0.155 HD
ENDROOT
BRANCH   1  21
ATOM     20  C   LIG A   1      -4.258   3.389 131.167  0.00  0.00    +0.020 C 
ATOM     21  C   LIG A   1      -3.815   4.306 132.045  0.00  0.00    +0.033 C 
BRANCH  21  22
ATOM     22  C   LIG A   1      -2.710   3.899 132.982  0.00  0.00    +0.335 C 
ATOM     23  O   LIG A   1      -1.566   4.306 132.890  0.00  0.00    -0.245 OA
BRANCH  22  24
ATOM     24  O   LIG A   1      -3.161   2.987 133.879  0.00  0.00    -0.465 OA
ATOM     25  C   LIG A   1      -3.726   3.491 135.088  0.00  0.00    +0.280 C 
ENDBRANCH  22  24
ENDBRANCH  21  22
ENDBRANCH   1  21
BRANCH  18  26
ATOM     26  C   LIG A   1      -2.602   6.731 130.427  0.00  0.00    +0.002 C 
ATOM     27  C   LIG A   1      -2.507   6.567 128.914  0.00  0.00    +0.004 C 
ENDBRANCH  18  26
TORSDOF 4
ENDMDL
MODEL 4
REMARK VINA RESULT:      -7.4      3.636      5.623
REMARK  Name = NuBBE_2411
REMARK  6 active torsions:
REMARK  status: ('A' for Active; 'I' for Inactive)
REMARK    1  A    between atoms: C_2  and  C_3
REMARK    2  A    between atoms: C_2  and  C_7
REMARK    3  A    between atoms: C_3  and  O_5
REMARK    4  A    between atoms: O_5  and  C_6
REMARK    5  A    between atoms: C_26  and  C_28
REMARK    6  A    between atoms: C_28  and  C_29
REMARK                            x       y       z     vdW  Elec       q    Type
REMARK                         _______ _______ _______ _____ _____    ______ ____
ROOT
ATOM      1  C   LIG A   1      -4.882   4.360 126.737  0.00  0.00    +0.031 C 
ATOM      2  C   LIG A   1      -6.140   4.009 125.905  0.00  0.00    +0.029 C 
ATOM      3  C   LIG A   1      -6.151   2.621 125.210  0.00  0.00    +0.077 C 
ATOM      4  N   LIG A   1      -5.429   1.611 125.996  0.00  0.00    -0.298 NA
ATOM      5  C   LIG A   1      -6.337   1.092 127.018  0.00  0.00    +0.086 C 
ATOM      6  C   LIG A   1      -7.744   1.441 126.545  0.00  0.00    +0.038 C 
ATOM      7  C   LIG A   1      -7.556   1.984 125.116  0.00  0.00    +0.090 C 
ATOM      8  C   LIG A   1      -8.767   2.902 124.769  0.00  0.00    +0.229 C 
ATOM      9  O   LIG A   1      -8.947   4.064 125.043  0.00  0.00    -0.274 OA
ATOM     10  N   LIG A   1      -9.691   2.091 124.110  0.00  0.00    -0.284 N 
ATOM     11  C   LIG A   1      -9.129   0.878 123.736  0.00  0.00    +0.038 A 
ATOM     12  C   LIG A   1      -9.739  -0.133 123.023  0.00  0.00    +0.023 A 
ATOM     13  C   LIG A   1      -8.952  -1.233 122.680  0.00  0.00    +0.002 A 
ATOM     14  C   LIG A   1      -7.590  -1.276 123.033  0.00  0.00    +0.000 A 
ATOM     15  C   LIG A   1      -7.004  -0.251 123.786  0.00  0.00    +0.006 A 
ATOM     16  C   LIG A   1      -7.802   0.818 124.166  0.00  0.00    -0.010 A 
ATOM     17  C   LIG A   1      -4.080   1.939 126.434  0.00  0.00    +0.088 C 
ATOM     18  C   LIG A   1      -3.706   3.432 126.352  0.00  0.00    +0.010 C 
ATOM     19  H   LIG A   1     -10.592   2.431 123.814  0.00  0.00    +0.155 HD
ENDROOT
BRANCH   1  21
ATOM     20  C   LIG A   1      -6.034   3.743 128.962  0.00  0.00    +0.020 C 
ATOM     21  C   LIG A   1      -5.221   4.521 128.226  0.00  0.00    +0.033 C 
BRANCH  21  22
ATOM     22  C   LIG A   1      -4.516   5.652 128.925  0.00  0.00    +0.335 C 
ATOM     23  O   LIG A   1      -4.393   5.722 130.134  0.00  0.00    -0.245 OA
BRANCH  22  24
ATOM     24  O   LIG A   1      -4.107   6.582 128.027  0.00  0.00    -0.465 OA
ATOM     25  C   LIG A   1      -2.840   7.194 128.259  0.00  0.00    +0.280 C 
ENDBRANCH  22  24
ENDBRANCH  21  22
ENDBRANCH   1  21
BRANCH  18  26
ATOM     26  C   LIG A   1      -2.383   3.719 127.100  0.00  0.00    +0.002 C 
ATOM     27  C   LIG A   1      -1.224   2.825 126.676  0.00  0.00    +0.004 C 
ENDBRANCH  18  26
TORSDOF 4
ENDMDL
MODEL 5
REMARK VINA RESULT:      -7.4      2.115      2.684
REMARK  Name = NuBBE_2411
REMARK  6 active torsions:
REMARK  status: ('A' for Active; 'I' for Inactive)
REMARK    1  A    between atoms: C_2  and  C_3
REMARK    2  A    between atoms: C_2  and  C_7
REMARK    3  A    between atoms: C_3  and  O_5
REMARK    4  A    between atoms: O_5  and  C_6
REMARK    5  A    between atoms: C_26  and  C_28
REMARK    6  A    between atoms: C_28  and  C_29
REMARK                            x       y       z     vdW  Elec       q    Type
REMARK                         _______ _______ _______ _____ _____    ______ ____
ROOT
ATOM      1  C   LIG A   1      -5.292   2.585 125.883  0.00  0.00    +0.031 C 
ATOM      2  C   LIG A   1      -6.152   1.359 125.489  0.00  0.00    +0.029 C 
ATOM      3  C   LIG A   1      -6.306   0.245 126.558  0.00  0.00    +0.077 C 
ATOM      4  N   LIG A   1      -6.305   0.791 127.923  0.00  0.00    -0.298 NA
ATOM      5  C   LIG A   1      -7.657   1.255 128.230  0.00  0.00    +0.086 C 
ATOM      6  C   LIG A   1      -8.577   0.554 127.236  0.00  0.00    +0.038 C 
ATOM      7  C   LIG A   1      -7.676  -0.469 126.520  0.00  0.00    +0.090 C 
ATOM      8  C   LIG A   1      -8.305  -0.798 125.131  0.00  0.00    +0.229 C 
ATOM      9  O   LIG A   1      -8.216  -0.193 124.090  0.00  0.00    -0.274 OA
ATOM     10  N   LIG A   1      -9.086  -1.938 125.321  0.00  0.00    -0.284 N 
ATOM     11  C   LIG A   1      -8.820  -2.542 126.543  0.00  0.00    +0.038 A 
ATOM     12  C   LIG A   1      -9.369  -3.710 127.026  0.00  0.00    +0.023 A 
ATOM     13  C   LIG A   1      -8.887  -4.181 128.248  0.00  0.00    +0.002 A 
ATOM     14  C   LIG A   1      -7.865  -3.492 128.927  0.00  0.00    +0.000 A 
ATOM     15  C   LIG A   1      -7.348  -2.289 128.429  0.00  0.00    +0.006 A 
ATOM     16  C   LIG A   1      -7.864  -1.800 127.239  0.00  0.00    -0.010 A 
ATOM     17  C   LIG A   1      -5.216   1.685 128.287  0.00  0.00    +0.088 C 
ATOM     18  C   LIG A   1      -4.404   2.250 127.104  0.00  0.00    +0.010 C 
ATOM     19  H   LIG A   1      -9.642  -2.340 124.582  0.00  0.00    +0.155 HD
ENDROOT
BRANCH   1  21
ATOM     20  C   LIG A   1      -7.082   4.188 126.825  0.00  0.00    +0.020 C 
ATOM     21  C   LIG A   1      -6.133   3.870 125.928  0.00  0.00    +0.033 C 
BRANCH  21  22
ATOM     22  C   LIG A   1      -5.803   4.887 124.869  0.00  0.00    +0.335 C 
ATOM     23  O   LIG A   1      -6.106   6.064 124.951  0.00  0.00    -0.245 OA
BRANCH  22  24
ATOM     24  O   LIG A   1      -5.192   4.294 123.815  0.00  0.00    -0.465 OA
ATOM     25  C   LIG A   1      -6.011   3.950 122.699  0.00  0.00    +0.280 C 
ENDBRANCH  22  24
ENDBRANCH  21  22
ENDBRANCH   1  21
BRANCH  18  26
ATOM     26  C   LIG A   1      -3.474   3.397 127.562  0.00  0.00    +0.002 C 
ATOM     27  C   LIG A   1      -2.203   3.535 126.731  0.00  0.00    +0.004 C 
ENDBRANCH  18  26
TORSDOF 4
ENDMDL
MODEL 6
REMARK VINA RESULT:      -7.3      6.555      9.442
REMARK  Name = NuBBE_2411
REMARK  6 active torsions:
REMARK  status: ('A' for Active; 'I' for Inactive)
REMARK    1  A    between atoms: C_2  and  C_3
REMARK    2  A    between atoms: C_2  and  C_7
REMARK    3  A    between atoms: C_3  and  O_5
REMARK    4  A    between atoms: O_5  and  C_6
REMARK    5  A    between atoms: C_26  and  C_28
REMARK    6  A    between atoms: C_28  and  C_29
REMARK                            x       y       z     vdW  Elec       q    Type
REMARK                         _______ _______ _______ _____ _____    ______ ____
ROOT
ATOM      1  C   LIG A   1      -8.269   2.921 130.295  0.00  0.00    +0.031 C 
ATOM      2  C   LIG A   1      -8.988   4.051 129.516  0.00  0.00    +0.029 C 
ATOM      3  C   LIG A   1     -10.067   4.852 130.292  0.00  0.00    +0.077 C 
ATOM      4  N   LIG A   1      -9.738   4.976 131.719  0.00  0.00    -0.298 NA
ATOM      5  C   LIG A   1      -8.810   6.095 131.879  0.00  0.00    +0.086 C 
ATOM      6  C   LIG A   1      -8.955   6.943 130.619  0.00  0.00    +0.038 C 
ATOM      7  C   LIG A   1     -10.160   6.338 129.874  0.00  0.00    +0.090 C 
ATOM      8  C   LIG A   1     -10.037   6.693 128.360  0.00  0.00    +0.229 C 
ATOM      9  O   LIG A   1      -9.397   6.144 127.497  0.00  0.00    -0.274 OA
ATOM     10  N   LIG A   1     -10.780   7.859 128.176  0.00  0.00    -0.284 N 
ATOM     11  C   LIG A   1     -11.583   8.131 129.276  0.00  0.00    +0.038 A 
ATOM     12  C   LIG A   1     -12.482   9.169 129.408  0.00  0.00    +0.023 A 
ATOM     13  C   LIG A   1     -13.251   9.198 130.571  0.00  0.00    +0.002 A 
ATOM     14  C   LIG A   1     -13.119   8.188 131.542  0.00  0.00    +0.000 A 
ATOM     15  C   LIG A   1     -12.175   7.164 131.397  0.00  0.00    +0.006 A 
ATOM     16  C   LIG A   1     -11.379   7.165 130.262  0.00  0.00    -0.010 A 
ATOM     17  C   LIG A   1      -9.409   3.755 132.439  0.00  0.00    +0.088 C 
ATOM     18  C   LIG A   1      -9.079   2.536 131.554  0.00  0.00    +0.010 C 
ATOM     19  H   LIG A   1     -10.831   8.331 127.287  0.00  0.00    +0.155 HD
ENDROOT
BRANCH   1  21
ATOM     20  C   LIG A   1      -6.200   4.053 131.341  0.00  0.00    +0.020 C 
ATOM     21  C   LIG A   1      -6.770   3.217 130.457  0.00  0.00    +0.033 C 
BRANCH  21  22
ATOM     22  C   LIG A   1      -5.862   2.436 129.547  0.00  0.00    +0.335 C 
ATOM     23  O   LIG A   1      -5.160   2.950 128.695  0.00  0.00    -0.245 OA
BRANCH  22  24
ATOM     24  O   LIG A   1      -5.991   1.106 129.776  0.00  0.00    -0.465 OA
ATOM     25  C   LIG A   1      -5.050   0.506 130.663  0.00  0.00    +0.280 C 
ENDBRANCH  22  24
ENDBRANCH  21  22
ENDBRANCH   1  21
BRANCH  18  26
ATOM     26  C   LIG A   1      -8.467   1.387 132.390  0.00  0.00    +0.002 C 
ATOM     27  C   LIG A   1      -8.698   0.000 131.800  0.00  0.00    +0.004 C 
ENDBRANCH  18  26
TORSDOF 4
ENDMDL
MODEL 7
REMARK VINA RESULT:      -7.1      3.604      7.204
REMARK  Name = NuBBE_2411
REMARK  6 active torsions:
REMARK  status: ('A' for Active; 'I' for Inactive)
REMARK    1  A    between atoms: C_2  and  C_3
REMARK    2  A    between atoms: C_2  and  C_7
REMARK    3  A    between atoms: C_3  and  O_5
REMARK    4  A    between atoms: O_5  and  C_6
REMARK    5  A    between atoms: C_26  and  C_28
REMARK    6  A    between atoms: C_28  and  C_29
REMARK                            x       y       z     vdW  Elec       q    Type
REMARK                         _______ _______ _______ _____ _____    ______ ____
ROOT
ATOM      1  C   LIG A   1      -7.218  -2.813 129.219  0.00  0.00    +0.031 C 
ATOM      2  C   LIG A   1      -7.790  -2.970 127.789  0.00  0.00    +0.029 C 
ATOM      3  C   LIG A   1      -8.383  -1.694 127.133  0.00  0.00    +0.077 C 
ATOM      4  N   LIG A   1      -7.675  -0.479 127.562  0.00  0.00    -0.298 NA
ATOM      5  C   LIG A   1      -6.478  -0.332 126.735  0.00  0.00    +0.086 C 
ATOM      6  C   LIG A   1      -6.716  -1.189 125.496  0.00  0.00    +0.038 C 
ATOM      7  C   LIG A   1      -8.187  -1.633 125.601  0.00  0.00    +0.090 C 
ATOM      8  C   LIG A   1      -8.371  -2.943 124.776  0.00  0.00    +0.229 C 
ATOM      9  O   LIG A   1      -8.143  -4.085 125.095  0.00  0.00    -0.274 OA
ATOM     10  N   LIG A   1      -8.803  -2.545 123.510  0.00  0.00    -0.284 N 
ATOM     11  C   LIG A   1      -9.194  -1.212 123.501  0.00  0.00    +0.038 A 
ATOM     12  C   LIG A   1      -9.723  -0.512 122.437  0.00  0.00    +0.023 A 
ATOM     13  C   LIG A   1     -10.130   0.800 122.680  0.00  0.00    +0.002 A 
ATOM     14  C   LIG A   1     -10.021   1.356 123.968  0.00  0.00    +0.000 A 
ATOM     15  C   LIG A   1      -9.450   0.633 125.023  0.00  0.00    +0.006 A 
ATOM     16  C   LIG A   1      -9.003  -0.654 124.766  0.00  0.00    -0.010 A 
ATOM     17  C   LIG A   1      -7.504  -0.272 128.992  0.00  0.00    +0.088 C 
ATOM     18  C   LIG A   1      -7.746  -1.514 129.871  0.00  0.00    +0.010 C 
ATOM     19  H   LIG A   1      -8.957  -3.202 122.762  0.00  0.00    +0.155 HD
ENDROOT
BRANCH   1  21
ATOM     20  C   LIG A   1      -4.764  -2.498 128.485  0.00  0.00    +0.020 C 
ATOM     21  C   LIG A   1      -5.705  -3.078 129.250  0.00  0.00    +0.033 C 
BRANCH  21  22
ATOM     22  C   LIG A   1      -5.249  -4.063 130.292  0.00  0.00    +0.335 C 
ATOM     23  O   LIG A   1      -5.829  -5.107 130.529  0.00  0.00    -0.245 OA
BRANCH  22  24
ATOM     24  O   LIG A   1      -4.161  -3.590 130.948  0.00  0.00    -0.465 OA
ATOM     25  C   LIG A   1      -4.285  -3.402 132.356  0.00  0.00    +0.280 C 
ENDBRANCH  22  24
ENDBRANCH  21  22
ENDBRANCH   1  21
BRANCH  18  26
ATOM     26  C   LIG A   1      -7.263  -1.276 131.321  0.00  0.00    +0.002 C 
ATOM     27  C   LIG A   1      -8.291  -0.589 132.213  0.00  0.00    +0.004 C 
ENDBRANCH  18  26
TORSDOF 4
ENDMDL
MODEL 8
REMARK VINA RESULT:      -7.1      5.276      8.402
REMARK  Name = NuBBE_2411
REMARK  6 active torsions:
REMARK  status: ('A' for Active; 'I' for Inactive)
REMARK    1  A    between atoms: C_2  and  C_3
REMARK    2  A    between atoms: C_2  and  C_7
REMARK    3  A    between atoms: C_3  and  O_5
REMARK    4  A    between atoms: O_5  and  C_6
REMARK    5  A    between atoms: C_26  and  C_28
REMARK    6  A    between atoms: C_28  and  C_29
REMARK                            x       y       z     vdW  Elec       q    Type
REMARK                         _______ _______ _______ _____ _____    ______ ____
ROOT
ATOM      1  C   LIG A   1      -7.555  -1.843 130.441  0.00  0.00    +0.031 C 
ATOM      2  C   LIG A   1      -8.315  -0.758 131.244  0.00  0.00    +0.029 C 
ATOM      3  C   LIG A   1      -7.462   0.141 132.178  0.00  0.00    +0.077 C 
ATOM      4  N   LIG A   1      -6.115   0.371 131.636  0.00  0.00    -0.298 NA
ATOM      5  C   LIG A   1      -6.191   1.468 130.672  0.00  0.00    +0.086 C 
ATOM      6  C   LIG A   1      -7.484   2.213 130.985  0.00  0.00    +0.038 C 
ATOM      7  C   LIG A   1      -7.989   1.589 132.300  0.00  0.00    +0.090 C 
ATOM      8  C   LIG A   1      -9.530   1.813 132.397  0.00  0.00    +0.229 C 
ATOM      9  O   LIG A   1     -10.426   1.173 131.905  0.00  0.00    -0.274 OA
ATOM     10  N   LIG A   1      -9.704   2.985 133.135  0.00  0.00    -0.284 N 
ATOM     11  C   LIG A   1      -8.526   3.374 133.759  0.00  0.00    +0.038 A 
ATOM     12  C   LIG A   1      -8.354   4.449 134.605  0.00  0.00    +0.023 A 
ATOM     13  C   LIG A   1      -7.097   4.601 135.192  0.00  0.00    +0.002 A 
ATOM     14  C   LIG A   1      -6.072   3.671 134.938  0.00  0.00    +0.000 A 
ATOM     15  C   LIG A   1      -6.264   2.606 134.048  0.00  0.00    +0.006 A 
ATOM     16  C   LIG A   1      -7.500   2.487 133.430  0.00  0.00    -0.010 A 
ATOM     17  C   LIG A   1      -5.347  -0.796 131.230  0.00  0.00    +0.088 C 
ATOM     18  C   LIG A   1      -6.161  -2.094 131.061  0.00  0.00    +0.010 C 
ATOM     19  H   LIG A   1     -10.613   3.382 133.308  0.00  0.00    +0.155 HD
ENDROOT
BRANCH   1  21
ATOM     20  C   LIG A   1      -7.241  -0.484 128.269  0.00  0.00    +0.020 C 
ATOM     21  C   LIG A   1      -7.641  -1.585 128.929  0.00  0.00    +0.033 C 
BRANCH  21  22
ATOM     22  C   LIG A   1      -8.192  -2.725 128.116  0.00  0.00    +0.335 C 
ATOM     23  O   LIG A   1      -8.574  -3.774 128.603  0.00  0.00    -0.245 OA
BRANCH  22  24
ATOM     24  O   LIG A   1      -8.138  -2.434 126.793  0.00  0.00    -0.465 OA
ATOM     25  C   LIG A   1      -9.230  -2.874 125.988  0.00  0.00    +0.280 C 
ENDBRANCH  22  24
ENDBRANCH  21  22
ENDBRANCH   1  21
BRANCH  18  26
ATOM     26  C   LIG A   1      -5.327  -3.190 130.356  0.00  0.00    +0.002 C 
ATOM     27  C   LIG A   1      -5.795  -4.611 130.651  0.00  0.00    +0.004 C 
ENDBRANCH  18  26
TORSDOF 4
ENDMDL
MODEL 9
REMARK VINA RESULT:      -6.9      2.869      4.914
REMARK  Name = NuBBE_2411
REMARK  6 active torsions:
REMARK  status: ('A' for Active; 'I' for Inactive)
REMARK    1  A    between atoms: C_2  and  C_3
REMARK    2  A    between atoms: C_2  and  C_7
REMARK    3  A    between atoms: C_3  and  O_5
REMARK    4  A    between atoms: O_5  and  C_6
REMARK    5  A    between atoms: C_26  and  C_28
REMARK    6  A    between atoms: C_28  and  C_29
REMARK                            x       y       z     vdW  Elec       q    Type
REMARK                         _______ _______ _______ _____ _____    ______ ____
ROOT
ATOM      1  C   LIG A   1      -8.589  -0.537 125.801  0.00  0.00    +0.031 C 
ATOM      2  C   LIG A   1      -8.403  -0.533 127.339  0.00  0.00    +0.029 C 
ATOM      3  C   LIG A   1      -7.773  -1.805 127.967  0.00  0.00    +0.077 C 
ATOM      4  N   LIG A   1      -6.799  -2.436 127.064  0.00  0.00    -0.298 NA
ATOM      5  C   LIG A   1      -5.521  -1.744 127.216  0.00  0.00    +0.086 C 
ATOM      6  C   LIG A   1      -5.596  -1.011 128.552  0.00  0.00    +0.038 C 
ATOM      7  C   LIG A   1      -6.895  -1.518 129.206  0.00  0.00    +0.090 C 
ATOM      8  C   LIG A   1      -7.384  -0.450 130.232  0.00  0.00    +0.229 C 
ATOM      9  O   LIG A   1      -8.029   0.552 130.042  0.00  0.00    -0.274 OA
ATOM     10  N   LIG A   1      -6.863  -0.836 131.468  0.00  0.00    -0.284 N 
ATOM     11  C   LIG A   1      -6.364  -2.131 131.429  0.00  0.00    +0.038 A 
ATOM     12  C   LIG A   1      -5.829  -2.843 132.482  0.00  0.00    +0.023 A 
ATOM     13  C   LIG A   1      -5.469  -4.168 132.234  0.00  0.00    +0.002 A 
ATOM     14  C   LIG A   1      -5.676  -4.740 130.965  0.00  0.00    +0.000 A 
ATOM     15  C   LIG A   1      -6.190  -3.984 129.905  0.00  0.00    +0.006 A 
ATOM     16  C   LIG A   1      -6.502  -2.653 130.143  0.00  0.00    -0.010 A 
ATOM     17  C   LIG A   1      -7.229  -2.713 125.702  0.00  0.00    +0.088 C 
ATOM     18  C   LIG A   1      -8.509  -1.981 125.253  0.00  0.00    +0.010 C 
ATOM     19  H   LIG A   1      -6.995  -0.287 132.303  0.00  0.00    +0.155 HD
ENDROOT
BRANCH   1  21
ATOM     20  C   LIG A   1      -6.392   0.547 124.991  0.00  0.00    +0.020 C 
ATOM     21  C   LIG A   1      -7.729   0.544 125.129  0.00  0.00    +0.033 C 
BRANCH  21  22
ATOM     22  C   LIG A   1      -8.497   1.689 124.526  0.00  0.00    +0.335 C 
ATOM     23  O   LIG A   1      -9.215   2.431 125.172  0.00  0.00    -0.245 OA
BRANCH  22  24
ATOM     24  O   LIG A   1      -8.319   1.724 123.183  0.00  0.00    -0.465 OA
ATOM     25  C   LIG A   1      -8.245   3.011 122.572  0.00  0.00    +0.280 C 
ENDBRANCH  22  24
ENDBRANCH  21  22
ENDBRANCH   1  21
BRANCH  18  26
ATOM     26  C   LIG A   1      -8.718  -2.105 123.726  0.00  0.00    +0.002 C 
ATOM     27  C   LIG A   1      -9.613  -3.270 123.315  0.00  0.00    +0.004 C 
ENDBRANCH  18  26
TORSDOF 4
ENDMDL
