MODEL 1
REMARK VINA RESULT:      -7.6      0.000      0.000
REMARK  Name = NuBBE_1852
REMARK  7 active torsions:
REMARK  status: ('A' for Active; 'I' for Inactive)
REMARK    1  A    between atoms: C_2  and  C_3
REMARK    2  A    between atoms: C_3  and  C_4
REMARK    3  A    between atoms: C_7  and  C_9
REMARK    4  A    between atoms: C_10  and  C_12
REMARK    5  A    between atoms: C_23  and  O_24
REMARK    6  A    between atoms: O_24  and  C_25
REMARK    7  A    between atoms: C_26  and  O_27
REMARK                            x       y       z     vdW  Elec       q    Type
REMARK                         _______ _______ _______ _____ _____    ______ ____
ROOT
ATOM      1  C   LIG A   1      -6.595   3.301 122.660  0.00  0.00    +0.043 A 
ATOM      2  C   LIG A   1      -7.656   2.517 123.088  0.00  0.00    +0.132 A 
ATOM      3  C   LIG A   1      -8.178   2.597 124.377  0.00  0.00    +0.005 A 
ATOM      4  C   LIG A   1      -9.334   1.664 124.488  0.00  0.00    +0.065 C 
ATOM      5  C   LIG A   1      -9.521   0.975 125.829  0.00  0.00    +0.016 C 
ATOM      6  C   LIG A   1      -9.046   0.761 123.261  0.00  0.00    +0.211 C 
ATOM      7  O   LIG A   1      -8.272   1.557 122.315  0.00  0.00    -0.483 OA
ATOM      8  C   LIG A   1      -7.661   3.490 125.303  0.00  0.00    +0.057 A 
ATOM      9  C   LIG A   1      -6.598   4.305 124.912  0.00  0.00    +0.162 A 
ATOM     10  C   LIG A   1      -6.085   4.205 123.598  0.00  0.00    +0.166 A 
ENDROOT
BRANCH   6  11
ATOM     11  C   LIG A   1      -8.349  -0.571 123.524  0.00  0.00    -0.003 A 
ATOM     12  C   LIG A   1      -9.119  -1.761 123.578  0.00  0.00    +0.011 A 
ATOM     13  C   LIG A   1      -8.520  -3.005 123.809  0.00  0.00    +0.050 A 
ATOM     14  C   LIG A   1      -7.154  -3.039 123.975  0.00  0.00    +0.166 A 
ATOM     15  O   LIG A   1      -6.402  -4.151 124.193  0.00  0.00    -0.453 OA
ATOM     16  C   LIG A   1      -5.080  -3.576 124.254  0.00  0.00    +0.466 C 
ATOM     17  O   LIG A   1      -5.070  -2.141 124.112  0.00  0.00    -0.453 OA
ATOM     18  C   LIG A   1      -6.395  -1.896 123.929  0.00  0.00    +0.167 A 
ATOM     19  C   LIG A   1      -6.958  -0.656 123.713  0.00  0.00    +0.056 A 
ENDBRANCH   6  11
BRANCH   9  20
ATOM     20  O   LIG A   1      -5.971   5.236 125.705  0.00  0.00    -0.491 OA
ATOM     21  C   LIG A   1      -5.115   4.729 126.722  0.00  0.00    +0.277 C 
ENDBRANCH   9  20
BRANCH  10  22
ATOM     22  O   LIG A   1      -5.040   5.022 123.241  0.00  0.00    -0.503 OA
ATOM     23  H   LIG A   1      -5.459   5.812 122.849  0.00  0.00    +0.292 HD
ENDBRANCH  10  22
BRANCH   1  24
ATOM     24  C   LIG A   1      -6.025   3.167 121.273  0.00  0.00    +0.069 C 
BRANCH  24  26
ATOM     25  C   LIG A   1      -5.761   5.055 119.634  0.00  0.00    +0.004 C 
ATOM     26  C   LIG A   1      -6.540   4.210 120.317  0.00  0.00    -0.030 C 
ENDBRANCH  24  26
ENDBRANCH   1  24
TORSDOF 5
ENDMDL
MODEL 2
REMARK VINA RESULT:      -7.2      3.255      6.787
REMARK  Name = NuBBE_1852
REMARK  7 active torsions:
REMARK  status: ('A' for Active; 'I' for Inactive)
REMARK    1  A    between atoms: C_2  and  C_3
REMARK    2  A    between atoms: C_3  and  C_4
REMARK    3  A    between atoms: C_7  and  C_9
REMARK    4  A    between atoms: C_10  and  C_12
REMARK    5  A    between atoms: C_23  and  O_24
REMARK    6  A    between atoms: O_24  and  C_25
REMARK    7  A    between atoms: C_26  and  O_27
REMARK                            x       y       z     vdW  Elec       q    Type
REMARK                         _______ _______ _______ _____ _____    ______ ____
ROOT
ATOM      1  C   LIG A   1      -6.529  -1.763 124.305  0.00  0.00    +0.043 A 
ATOM      2  C   LIG A   1      -6.652  -1.312 125.612  0.00  0.00    +0.132 A 
ATOM      3  C   LIG A   1      -7.797  -0.676 126.083  0.00  0.00    +0.005 A 
ATOM      4  C   LIG A   1      -7.618  -0.371 127.530  0.00  0.00    +0.065 C 
ATOM      5  C   LIG A   1      -8.239   0.922 128.031  0.00  0.00    +0.016 C 
ATOM      6  C   LIG A   1      -6.077  -0.500 127.625  0.00  0.00    +0.211 C 
ATOM      7  O   LIG A   1      -5.656  -1.402 126.559  0.00  0.00    -0.483 OA
ATOM      8  C   LIG A   1      -8.893  -0.471 125.258  0.00  0.00    +0.057 A 
ATOM      9  C   LIG A   1      -8.816  -0.917 123.937  0.00  0.00    +0.162 A 
ATOM     10  C   LIG A   1      -7.642  -1.561 123.482  0.00  0.00    +0.166 A 
ENDROOT
BRANCH   6  11
ATOM     11  C   LIG A   1      -5.264   0.791 127.576  0.00  0.00    -0.003 A 
ATOM     12  C   LIG A   1      -4.945   1.365 126.319  0.00  0.00    +0.011 A 
ATOM     13  C   LIG A   1      -4.208   2.552 126.228  0.00  0.00    +0.050 A 
ATOM     14  C   LIG A   1      -3.805   3.150 127.401  0.00  0.00    +0.166 A 
ATOM     15  O   LIG A   1      -3.099   4.307 127.507  0.00  0.00    -0.453 OA
ATOM     16  C   LIG A   1      -3.007   4.436 128.942  0.00  0.00    +0.466 C 
ATOM     17  O   LIG A   1      -3.621   3.346 129.658  0.00  0.00    -0.453 OA
ATOM     18  C   LIG A   1      -4.103   2.604 128.625  0.00  0.00    +0.167 A 
ATOM     19  C   LIG A   1      -4.819   1.433 128.746  0.00  0.00    +0.056 A 
ENDBRANCH   6  11
BRANCH   9  20
ATOM     20  O   LIG A   1      -9.807  -0.792 122.993  0.00  0.00    -0.491 OA
ATOM     21  C   LIG A   1     -10.130   0.534 122.587  0.00  0.00    +0.277 C 
ENDBRANCH   9  20
BRANCH  10  22
ATOM     22  O   LIG A   1      -7.598  -1.991 122.178  0.00  0.00    -0.503 OA
ATOM     23  H   LIG A   1      -8.297  -2.669 122.111  0.00  0.00    +0.292 HD
ENDBRANCH  10  22
BRANCH   1  24
ATOM     24  C   LIG A   1      -5.265  -2.413 123.811  0.00  0.00    +0.069 C 
BRANCH  24  26
ATOM     25  C   LIG A   1      -4.275  -4.713 123.579  0.00  0.00    +0.004 C 
ATOM     26  C   LIG A   1      -5.247  -3.905 124.016  0.00  0.00    -0.030 C 
ENDBRANCH  24  26
ENDBRANCH   1  24
TORSDOF 5
ENDMDL
MODEL 3
REMARK VINA RESULT:      -7.0      2.314      6.255
REMARK  Name = NuBBE_1852
REMARK  7 active torsions:
REMARK  status: ('A' for Active; 'I' for Inactive)
REMARK    1  A    between atoms: C_2  and  C_3
REMARK    2  A    between atoms: C_3  and  C_4
REMARK    3  A    between atoms: C_7  and  C_9
REMARK    4  A    between atoms: C_10  and  C_12
REMARK    5  A    between atoms: C_23  and  O_24
REMARK    6  A    between atoms: O_24  and  C_25
REMARK    7  A    between atoms: C_26  and  O_27
REMARK                            x       y       z     vdW  Elec       q    Type
REMARK                         _______ _______ _______ _____ _____    ______ ____
ROOT
ATOM      1  C   LIG A   1      -7.939   0.908 126.893  0.00  0.00    +0.043 A 
ATOM      2  C   LIG A   1      -8.706   1.219 125.780  0.00  0.00    +0.132 A 
ATOM      3  C   LIG A   1      -9.189   0.250 124.905  0.00  0.00    +0.005 A 
ATOM      4  C   LIG A   1     -10.012   0.914 123.856  0.00  0.00    +0.065 C 
ATOM      5  C   LIG A   1      -9.945   0.313 122.462  0.00  0.00    +0.016 C 
ATOM      6  C   LIG A   1      -9.508   2.369 124.026  0.00  0.00    +0.211 C 
ATOM      7  O   LIG A   1      -9.034   2.502 125.399  0.00  0.00    -0.483 OA
ATOM      8  C   LIG A   1      -8.931  -1.096 125.116  0.00  0.00    +0.057 A 
ATOM      9  C   LIG A   1      -8.170  -1.455 126.230  0.00  0.00    +0.162 A 
ATOM     10  C   LIG A   1      -7.691  -0.452 127.104  0.00  0.00    +0.166 A 
ENDROOT
BRANCH   6  11
ATOM     11  C   LIG A   1      -8.439   2.856 123.050  0.00  0.00    -0.003 A 
ATOM     12  C   LIG A   1      -7.076   2.822 123.437  0.00  0.00    +0.011 A 
ATOM     13  C   LIG A   1      -6.063   3.252 122.571  0.00  0.00    +0.050 A 
ATOM     14  C   LIG A   1      -6.433   3.705 121.325  0.00  0.00    +0.166 A 
ATOM     15  O   LIG A   1      -5.592   4.146 120.351  0.00  0.00    -0.453 OA
ATOM     16  C   LIG A   1      -6.531   4.449 119.299  0.00  0.00    +0.466 C 
ATOM     17  O   LIG A   1      -7.905   4.222 119.671  0.00  0.00    -0.453 OA
ATOM     18  C   LIG A   1      -7.749   3.748 120.937  0.00  0.00    +0.167 A 
ATOM     19  C   LIG A   1      -8.769   3.340 121.770  0.00  0.00    +0.056 A 
ENDBRANCH   6  11
BRANCH   9  20
ATOM     20  O   LIG A   1      -7.823  -2.738 126.581  0.00  0.00    -0.491 OA
ATOM     21  C   LIG A   1      -8.881  -3.580 127.029  0.00  0.00    +0.277 C 
ENDBRANCH   9  20
BRANCH  10  22
ATOM     22  O   LIG A   1      -6.946  -0.837 128.193  0.00  0.00    -0.503 OA
ATOM     23  H   LIG A   1      -6.465  -1.634 127.901  0.00  0.00    +0.292 HD
ENDBRANCH  10  22
BRANCH   1  24
ATOM     24  C   LIG A   1      -7.398   1.979 127.803  0.00  0.00    +0.069 C 
BRANCH  24  26
ATOM     25  C   LIG A   1      -6.035   3.903 126.928  0.00  0.00    +0.004 C 
ATOM     26  C   LIG A   1      -6.137   2.617 127.281  0.00  0.00    -0.030 C 
ENDBRANCH  24  26
ENDBRANCH   1  24
TORSDOF 5
ENDMDL
MODEL 4
REMARK VINA RESULT:      -6.9      5.522      8.785
REMARK  Name = NuBBE_1852
REMARK  7 active torsions:
REMARK  status: ('A' for Active; 'I' for Inactive)
REMARK    1  A    between atoms: C_2  and  C_3
REMARK    2  A    between atoms: C_3  and  C_4
REMARK    3  A    between atoms: C_7  and  C_9
REMARK    4  A    between atoms: C_10  and  C_12
REMARK    5  A    between atoms: C_23  and  O_24
REMARK    6  A    between atoms: O_24  and  C_25
REMARK    7  A    between atoms: C_26  and  O_27
REMARK                            x       y       z     vdW  Elec       q    Type
REMARK                         _______ _______ _______ _____ _____    ______ ____
ROOT
ATOM      1  C   LIG A   1      -9.409   4.333 130.477  0.00  0.00    +0.043 A 
ATOM      2  C   LIG A   1      -8.140   4.751 130.847  0.00  0.00    +0.132 A 
ATOM      3  C   LIG A   1      -7.785   6.095 130.929  0.00  0.00    +0.005 A 
ATOM      4  C   LIG A   1      -6.375   6.194 131.401  0.00  0.00    +0.065 C 
ATOM      5  C   LIG A   1      -5.546   7.328 130.823  0.00  0.00    +0.016 C 
ATOM      6  C   LIG A   1      -5.908   4.748 131.099  0.00  0.00    +0.211 C 
ATOM      7  O   LIG A   1      -7.094   3.899 131.126  0.00  0.00    -0.483 OA
ATOM      8  C   LIG A   1      -8.704   7.096 130.653  0.00  0.00    +0.057 A 
ATOM      9  C   LIG A   1      -9.997   6.720 130.285  0.00  0.00    +0.162 A 
ATOM     10  C   LIG A   1     -10.334   5.349 130.208  0.00  0.00    +0.166 A 
ENDROOT
BRANCH   6  11
ATOM     11  C   LIG A   1      -5.128   4.522 129.806  0.00  0.00    -0.003 A 
ATOM     12  C   LIG A   1      -3.714   4.429 129.854  0.00  0.00    +0.011 A 
ATOM     13  C   LIG A   1      -2.960   4.215 128.694  0.00  0.00    +0.050 A 
ATOM     14  C   LIG A   1      -3.637   4.091 127.501  0.00  0.00    +0.166 A 
ATOM     15  O   LIG A   1      -3.076   3.868 126.283  0.00  0.00    -0.453 OA
ATOM     16  C   LIG A   1      -4.254   3.807 125.451  0.00  0.00    +0.466 C 
ATOM     17  O   LIG A   1      -5.481   4.031 126.173  0.00  0.00    -0.453 OA
ATOM     18  C   LIG A   1      -5.005   4.184 127.438  0.00  0.00    +0.167 A 
ATOM     19  C   LIG A   1      -5.773   4.403 128.562  0.00  0.00    +0.056 A 
ENDBRANCH   6  11
BRANCH   9  20
ATOM     20  O   LIG A   1     -11.023   7.582 129.977  0.00  0.00    -0.491 OA
ATOM     21  C   LIG A   1     -10.918   8.275 128.738  0.00  0.00    +0.277 C 
ENDBRANCH   9  20
BRANCH  10  22
ATOM     22  O   LIG A   1     -11.615   5.010 129.845  0.00  0.00    -0.503 OA
ATOM     23  H   LIG A   1     -11.908   5.727 129.251  0.00  0.00    +0.292 HD
ENDBRANCH  10  22
BRANCH   1  24
ATOM     24  C   LIG A   1      -9.756   2.873 130.358  0.00  0.00    +0.069 C 
BRANCH  24  26
ATOM     25  C   LIG A   1      -9.508   0.957 131.968  0.00  0.00    +0.004 C 
ATOM     26  C   LIG A   1      -9.931   2.196 131.692  0.00  0.00    -0.030 C 
ENDBRANCH  24  26
ENDBRANCH   1  24
TORSDOF 5
ENDMDL
MODEL 5
REMARK VINA RESULT:      -6.9      6.906     10.057
REMARK  Name = NuBBE_1852
REMARK  7 active torsions:
REMARK  status: ('A' for Active; 'I' for Inactive)
REMARK    1  A    between atoms: C_2  and  C_3
REMARK    2  A    between atoms: C_3  and  C_4
REMARK    3  A    between atoms: C_7  and  C_9
REMARK    4  A    between atoms: C_10  and  C_12
REMARK    5  A    between atoms: C_23  and  O_24
REMARK    6  A    between atoms: O_24  and  C_25
REMARK    7  A    between atoms: C_26  and  O_27
REMARK                            x       y       z     vdW  Elec       q    Type
REMARK                         _______ _______ _______ _____ _____    ______ ____
ROOT
ATOM      1  C   LIG A   1      -5.688   5.852 130.563  0.00  0.00    +0.043 A 
ATOM      2  C   LIG A   1      -6.831   5.457 131.242  0.00  0.00    +0.132 A 
ATOM      3  C   LIG A   1      -7.416   4.205 131.065  0.00  0.00    +0.005 A 
ATOM      4  C   LIG A   1      -8.589   4.088 131.976  0.00  0.00    +0.065 C 
ATOM      5  C   LIG A   1      -9.779   3.304 131.449  0.00  0.00    +0.016 C 
ATOM      6  C   LIG A   1      -8.812   5.588 132.292  0.00  0.00    +0.211 C 
ATOM      7  O   LIG A   1      -7.528   6.259 132.118  0.00  0.00    -0.483 OA
ATOM      8  C   LIG A   1      -6.866   3.275 130.196  0.00  0.00    +0.057 A 
ATOM      9  C   LIG A   1      -5.709   3.628 129.498  0.00  0.00    +0.162 A 
ATOM     10  C   LIG A   1      -5.134   4.905 129.695  0.00  0.00    +0.166 A 
ENDROOT
BRANCH   6  11
ATOM     11  C   LIG A   1      -9.897   6.315 131.502  0.00  0.00    -0.003 A 
ATOM     12  C   LIG A   1     -11.220   6.355 132.011  0.00  0.00    +0.011 A 
ATOM     13  C   LIG A   1     -12.245   7.017 131.323  0.00  0.00    +0.050 A 
ATOM     14  C   LIG A   1     -11.925   7.633 130.134  0.00  0.00    +0.166 A 
ATOM     15  O   LIG A   1     -12.781   8.331 129.340  0.00  0.00    -0.453 OA
ATOM     16  C   LIG A   1     -11.890   8.751 128.285  0.00  0.00    +0.466 C 
ATOM     17  O   LIG A   1     -10.540   8.269 128.447  0.00  0.00    -0.453 OA
ATOM     18  C   LIG A   1     -10.650   7.599 129.625  0.00  0.00    +0.167 A 
ATOM     19  C   LIG A   1      -9.624   6.949 130.276  0.00  0.00    +0.056 A 
ENDBRANCH   6  11
BRANCH   9  20
ATOM     20  O   LIG A   1      -5.042   2.828 128.602  0.00  0.00    -0.491 OA
ATOM     21  C   LIG A   1      -4.365   1.698 129.143  0.00  0.00    +0.277 C 
ENDBRANCH   9  20
BRANCH  10  22
ATOM     22  O   LIG A   1      -3.994   5.222 128.996  0.00  0.00    -0.503 OA
ATOM     23  H   LIG A   1      -3.263   5.086 129.629  0.00  0.00    +0.292 HD
ENDBRANCH  10  22
BRANCH   1  24
ATOM     24  C   LIG A   1      -5.097   7.225 130.744  0.00  0.00    +0.069 C 
BRANCH  24  26
ATOM     25  C   LIG A   1      -2.954   8.081 131.741  0.00  0.00    +0.004 C 
ATOM     26  C   LIG A   1      -4.017   7.271 131.792  0.00  0.00    -0.030 C 
ENDBRANCH  24  26
ENDBRANCH   1  24
TORSDOF 5
ENDMDL
MODEL 6
REMARK VINA RESULT:      -6.9      2.952      6.215
REMARK  Name = NuBBE_1852
REMARK  7 active torsions:
REMARK  status: ('A' for Active; 'I' for Inactive)
REMARK    1  A    between atoms: C_2  and  C_3
REMARK    2  A    between atoms: C_3  and  C_4
REMARK    3  A    between atoms: C_7  and  C_9
REMARK    4  A    between atoms: C_10  and  C_12
REMARK    5  A    between atoms: C_23  and  O_24
REMARK    6  A    between atoms: O_24  and  C_25
REMARK    7  A    between atoms: C_26  and  O_27
REMARK                            x       y       z     vdW  Elec       q    Type
REMARK                         _______ _______ _______ _____ _____    ______ ____
ROOT
ATOM      1  C   LIG A   1      -8.606   1.310 123.428  0.00  0.00    +0.043 A 
ATOM      2  C   LIG A   1      -7.481   1.103 124.212  0.00  0.00    +0.132 A 
ATOM      3  C   LIG A   1      -7.112  -0.156 124.681  0.00  0.00    +0.005 A 
ATOM      4  C   LIG A   1      -5.838  -0.032 125.442  0.00  0.00    +0.065 C 
ATOM      5  C   LIG A   1      -5.678  -0.943 126.648  0.00  0.00    +0.016 C 
ATOM      6  C   LIG A   1      -5.848   1.495 125.704  0.00  0.00    +0.211 C 
ATOM      7  O   LIG A   1      -6.642   2.106 124.644  0.00  0.00    -0.483 OA
ATOM      8  C   LIG A   1      -7.859  -1.282 124.370  0.00  0.00    +0.057 A 
ATOM      9  C   LIG A   1      -8.996  -1.121 123.576  0.00  0.00    +0.162 A 
ATOM     10  C   LIG A   1      -9.350   0.168 123.112  0.00  0.00    +0.166 A 
ENDROOT
BRANCH   6  11
ATOM     11  C   LIG A   1      -6.342   1.965 127.070  0.00  0.00    -0.003 A 
ATOM     12  C   LIG A   1      -5.399   2.284 128.079  0.00  0.00    +0.011 A 
ATOM     13  C   LIG A   1      -5.807   2.727 129.343  0.00  0.00    +0.050 A 
ATOM     14  C   LIG A   1      -7.159   2.848 129.575  0.00  0.00    +0.166 A 
ATOM     15  O   LIG A   1      -7.738   3.274 130.730  0.00  0.00    -0.453 OA
ATOM     16  C   LIG A   1      -9.134   3.219 130.369  0.00  0.00    +0.466 C 
ATOM     17  O   LIG A   1      -9.364   2.730 129.032  0.00  0.00    -0.453 OA
ATOM     18  C   LIG A   1      -8.085   2.539 128.609  0.00  0.00    +0.167 A 
ATOM     19  C   LIG A   1      -7.713   2.093 127.359  0.00  0.00    +0.056 A 
ENDBRANCH   6  11
BRANCH   9  20
ATOM     20  O   LIG A   1      -9.843  -2.128 123.179  0.00  0.00    -0.491 OA
ATOM     21  C   LIG A   1      -9.490  -3.447 123.582  0.00  0.00    +0.277 C 
ENDBRANCH   9  20
BRANCH  10  22
ATOM     22  O   LIG A   1     -10.472   0.294 122.330  0.00  0.00    -0.503 OA
ATOM     23  H   LIG A   1     -10.965  -0.539 122.457  0.00  0.00    +0.292 HD
ENDBRANCH  10  22
BRANCH   1  24
ATOM     24  C   LIG A   1      -9.004   2.686 122.966  0.00  0.00    +0.069 C 
BRANCH  24  26
ATOM     25  C   LIG A   1      -8.830   3.732 120.686  0.00  0.00    +0.004 C 
ATOM     26  C   LIG A   1      -8.257   3.138 121.739  0.00  0.00    -0.030 C 
ENDBRANCH  24  26
ENDBRANCH   1  24
TORSDOF 5
ENDMDL
MODEL 7
REMARK VINA RESULT:      -6.9      8.185     10.814
REMARK  Name = NuBBE_1852
REMARK  7 active torsions:
REMARK  status: ('A' for Active; 'I' for Inactive)
REMARK    1  A    between atoms: C_2  and  C_3
REMARK    2  A    between atoms: C_3  and  C_4
REMARK    3  A    between atoms: C_7  and  C_9
REMARK    4  A    between atoms: C_10  and  C_12
REMARK    5  A    between atoms: C_23  and  O_24
REMARK    6  A    between atoms: O_24  and  C_25
REMARK    7  A    between atoms: C_26  and  O_27
REMARK                            x       y       z     vdW  Elec       q    Type
REMARK                         _______ _______ _______ _____ _____    ______ ____
ROOT
ATOM      1  C   LIG A   1      -4.722   5.103 132.733  0.00  0.00    +0.043 A 
ATOM      2  C   LIG A   1      -6.004   4.887 133.218  0.00  0.00    +0.132 A 
ATOM      3  C   LIG A   1      -6.636   3.648 133.146  0.00  0.00    +0.005 A 
ATOM      4  C   LIG A   1      -7.971   3.749 133.799  0.00  0.00    +0.065 C 
ATOM      5  C   LIG A   1      -9.090   2.927 133.183  0.00  0.00    +0.016 C 
ATOM      6  C   LIG A   1      -8.137   5.290 133.794  0.00  0.00    +0.211 C 
ATOM      7  O   LIG A   1      -6.797   5.865 133.776  0.00  0.00    -0.483 OA
ATOM      8  C   LIG A   1      -5.998   2.551 132.587  0.00  0.00    +0.057 A 
ATOM      9  C   LIG A   1      -4.703   2.722 132.094  0.00  0.00    +0.162 A 
ATOM     10  C   LIG A   1      -4.082   3.989 132.179  0.00  0.00    +0.166 A 
ENDROOT
BRANCH   6  11
ATOM     11  C   LIG A   1      -8.987   5.897 132.681  0.00  0.00    -0.003 A 
ATOM     12  C   LIG A   1      -8.350   6.449 131.541  0.00  0.00    +0.011 A 
ATOM     13  C   LIG A   1      -9.091   7.009 130.493  0.00  0.00    +0.050 A 
ATOM     14  C   LIG A   1     -10.463   7.001 130.602  0.00  0.00    +0.166 A 
ATOM     15  O   LIG A   1     -11.341   7.485 129.683  0.00  0.00    -0.453 OA
ATOM     16  C   LIG A   1     -12.598   7.179 130.322  0.00  0.00    +0.466 C 
ATOM     17  O   LIG A   1     -12.449   6.559 131.615  0.00  0.00    -0.453 OA
ATOM     18  C   LIG A   1     -11.095   6.475 131.701  0.00  0.00    +0.167 A 
ATOM     19  C   LIG A   1     -10.392   5.925 132.752  0.00  0.00    +0.056 A 
ENDBRANCH   6  11
BRANCH   9  20
ATOM     20  O   LIG A   1      -3.935   1.743 131.510  0.00  0.00    -0.491 OA
ATOM     21  C   LIG A   1      -4.329   1.321 130.208  0.00  0.00    +0.277 C 
ENDBRANCH   9  20
BRANCH  10  22
ATOM     22  O   LIG A   1      -2.806   4.125 131.687  0.00  0.00    -0.503 OA
ATOM     23  H   LIG A   1      -2.882   4.778 130.965  0.00  0.00    +0.292 HD
ENDBRANCH  10  22
BRANCH   1  24
ATOM     24  C   LIG A   1      -4.076   6.462 132.789  0.00  0.00    +0.069 C 
BRANCH  24  26
ATOM     25  C   LIG A   1      -5.072   7.204 130.603  0.00  0.00    +0.004 C 
ATOM     26  C   LIG A   1      -4.041   7.156 131.454  0.00  0.00    -0.030 C 
ENDBRANCH  24  26
ENDBRANCH   1  24
TORSDOF 5
ENDMDL
MODEL 8
REMARK VINA RESULT:      -6.8      4.279      6.461
REMARK  Name = NuBBE_1852
REMARK  7 active torsions:
REMARK  status: ('A' for Active; 'I' for Inactive)
REMARK    1  A    between atoms: C_2  and  C_3
REMARK    2  A    between atoms: C_3  and  C_4
REMARK    3  A    between atoms: C_7  and  C_9
REMARK    4  A    between atoms: C_10  and  C_12
REMARK    5  A    between atoms: C_23  and  O_24
REMARK    6  A    between atoms: O_24  and  C_25
REMARK    7  A    between atoms: C_26  and  O_27
REMARK                            x       y       z     vdW  Elec       q    Type
REMARK                         _______ _______ _______ _____ _____    ______ ____
ROOT
ATOM      1  C   LIG A   1      -6.925  -2.087 124.679  0.00  0.00    +0.043 A 
ATOM      2  C   LIG A   1      -7.405  -2.074 125.981  0.00  0.00    +0.132 A 
ATOM      3  C   LIG A   1      -7.723  -0.896 126.652  0.00  0.00    +0.005 A 
ATOM      4  C   LIG A   1      -8.254  -1.238 128.001  0.00  0.00    +0.065 C 
ATOM      5  C   LIG A   1      -7.903  -0.283 129.129  0.00  0.00    +0.016 C 
ATOM      6  C   LIG A   1      -7.731  -2.692 128.115  0.00  0.00    +0.211 C 
ATOM      7  O   LIG A   1      -7.575  -3.199 126.756  0.00  0.00    -0.483 OA
ATOM      8  C   LIG A   1      -7.586   0.338 126.035  0.00  0.00    +0.057 A 
ATOM      9  C   LIG A   1      -7.115   0.371 124.722  0.00  0.00    +0.162 A 
ATOM     10  C   LIG A   1      -6.798  -0.839 124.061  0.00  0.00    +0.166 A 
ENDROOT
BRANCH   6  11
ATOM     11  C   LIG A   1      -6.447  -2.913 128.911  0.00  0.00    -0.003 A 
ATOM     12  C   LIG A   1      -5.201  -2.557 128.335  0.00  0.00    +0.011 A 
ATOM     13  C   LIG A   1      -4.000  -2.735 129.032  0.00  0.00    +0.050 A 
ATOM     14  C   LIG A   1      -4.068  -3.262 130.303  0.00  0.00    +0.166 A 
ATOM     15  O   LIG A   1      -3.013  -3.491 131.130  0.00  0.00    -0.453 OA
ATOM     16  C   LIG A   1      -3.691  -4.007 132.295  0.00  0.00    +0.466 C 
ATOM     17  O   LIG A   1      -5.119  -4.112 132.130  0.00  0.00    -0.453 OA
ATOM     18  C   LIG A   1      -5.265  -3.615 130.872  0.00  0.00    +0.167 A 
ATOM     19  C   LIG A   1      -6.463  -3.460 130.207  0.00  0.00    +0.056 A 
ENDBRANCH   6  11
BRANCH   9  20
ATOM     20  O   LIG A   1      -6.919   1.505 123.971  0.00  0.00    -0.491 OA
ATOM     21  C   LIG A   1      -8.086   2.111 123.423  0.00  0.00    +0.277 C 
ENDBRANCH   9  20
BRANCH  10  22
ATOM     22  O   LIG A   1      -6.339  -0.775 122.767  0.00  0.00    -0.503 OA
ATOM     23  H   LIG A   1      -5.873   0.081 122.706  0.00  0.00    +0.292 HD
ENDBRANCH  10  22
BRANCH   1  24
ATOM     24  C   LIG A   1      -6.552  -3.373 123.989  0.00  0.00    +0.069 C 
BRANCH  24  26
ATOM     25  C   LIG A   1      -4.512  -4.789 123.597  0.00  0.00    +0.004 C 
ATOM     26  C   LIG A   1      -5.071  -3.645 124.005  0.00  0.00    -0.030 C 
ENDBRANCH  24  26
ENDBRANCH   1  24
TORSDOF 5
ENDMDL
MODEL 9
REMARK VINA RESULT:      -6.8      6.876     10.001
REMARK  Name = NuBBE_1852
REMARK  7 active torsions:
REMARK  status: ('A' for Active; 'I' for Inactive)
REMARK    1  A    between atoms: C_2  and  C_3
REMARK    2  A    between atoms: C_3  and  C_4
REMARK    3  A    between atoms: C_7  and  C_9
REMARK    4  A    between atoms: C_10  and  C_12
REMARK    5  A    between atoms: C_23  and  O_24
REMARK    6  A    between atoms: O_24  and  C_25
REMARK    7  A    between atoms: C_26  and  O_27
REMARK                            x       y       z     vdW  Elec       q    Type
REMARK                         _______ _______ _______ _____ _____    ______ ____
ROOT
ATOM      1  C   LIG A   1      -4.646   6.586 130.028  0.00  0.00    +0.043 A 
ATOM      2  C   LIG A   1      -5.635   5.880 130.697  0.00  0.00    +0.132 A 
ATOM      3  C   LIG A   1      -6.050   4.610 130.304  0.00  0.00    +0.005 A 
ATOM      4  C   LIG A   1      -7.081   4.121 131.261  0.00  0.00    +0.065 C 
ATOM      5  C   LIG A   1      -8.198   3.272 130.677  0.00  0.00    +0.016 C 
ATOM      6  C   LIG A   1      -7.481   5.470 131.909  0.00  0.00    +0.211 C 
ATOM      7  O   LIG A   1      -6.336   6.365 131.779  0.00  0.00    -0.483 OA
ATOM      8  C   LIG A   1      -5.473   3.976 129.213  0.00  0.00    +0.057 A 
ATOM      9  C   LIG A   1      -4.468   4.646 128.516  0.00  0.00    +0.162 A 
ATOM     10  C   LIG A   1      -4.064   5.935 128.934  0.00  0.00    +0.166 A 
ENDROOT
BRANCH   6  11
ATOM     11  C   LIG A   1      -8.743   6.150 131.384  0.00  0.00    -0.003 A 
ATOM     12  C   LIG A   1      -8.661   6.986 130.242  0.00  0.00    +0.011 A 
ATOM     13  C   LIG A   1      -9.794   7.623 129.723  0.00  0.00    +0.050 A 
ATOM     14  C   LIG A   1     -10.998   7.406 130.355  0.00  0.00    +0.166 A 
ATOM     15  O   LIG A   1     -12.200   7.925 129.986  0.00  0.00    -0.453 OA
ATOM     16  C   LIG A   1     -13.065   7.335 130.979  0.00  0.00    +0.466 C 
ATOM     17  O   LIG A   1     -12.367   6.513 131.935  0.00  0.00    -0.453 OA
ATOM     18  C   LIG A   1     -11.094   6.602 131.464  0.00  0.00    +0.167 A 
ATOM     19  C   LIG A   1      -9.995   5.970 132.003  0.00  0.00    +0.056 A 
ENDBRANCH   6  11
BRANCH   9  20
ATOM     20  O   LIG A   1      -3.798   4.163 127.417  0.00  0.00    -0.491 OA
ATOM     21  C   LIG A   1      -2.863   3.115 127.655  0.00  0.00    +0.277 C 
ENDBRANCH   9  20
BRANCH  10  22
ATOM     22  O   LIG A   1      -3.070   6.569 128.229  0.00  0.00    -0.503 OA
ATOM     23  H   LIG A   1      -2.932   7.417 128.693  0.00  0.00    +0.292 HD
ENDBRANCH  10  22
BRANCH   1  24
ATOM     24  C   LIG A   1      -4.244   7.973 130.451  0.00  0.00    +0.069 C 
BRANCH  24  26
ATOM     25  C   LIG A   1      -3.096   7.746 132.677  0.00  0.00    +0.004 C 
ATOM     26  C   LIG A   1      -3.045   7.990 131.363  0.00  0.00    -0.030 C 
ENDBRANCH  24  26
ENDBRANCH   1  24
TORSDOF 5
ENDMDL
