MODEL 1
REMARK VINA RESULT:      -8.6      0.000      0.000
REMARK  Name = NuBBE_2164
REMARK  7 active torsions:
REMARK  status: ('A' for Active; 'I' for Inactive)
REMARK    1  A    between atoms: C_1  and  O_2
REMARK    2  A    between atoms: O_2  and  C_3
REMARK    3  A    between atoms: C_4  and  O_5
REMARK    4  A    between atoms: O_5  and  C_6
REMARK    5  A    between atoms: C_10  and  C_12
REMARK    6  A    between atoms: C_23  and  C_25
REMARK    7  A    between atoms: C_26  and  C_28
REMARK                            x       y       z     vdW  Elec       q    Type
REMARK                         _______ _______ _______ _____ _____    ______ ____
ROOT
ATOM      1  C   LIG A   1      -7.189  -0.990 123.463  0.00  0.00    +0.162 A 
ATOM      2  C   LIG A   1      -8.127  -1.267 124.473  0.00  0.00    +0.162 A 
ATOM      3  C   LIG A   1      -8.473  -0.258 125.375  0.00  0.00    +0.061 A 
ATOM      4  C   LIG A   1      -6.670   0.307 123.335  0.00  0.00    +0.054 A 
ATOM      5  C   LIG A   1      -7.049   1.339 124.210  0.00  0.00    -0.025 A 
ATOM      6  C   LIG A   1      -6.515   2.750 123.998  0.00  0.00    +0.053 C 
ATOM      7  C   LIG A   1      -7.917   1.021 125.255  0.00  0.00    +0.025 A 
ATOM      8  C   LIG A   1      -8.230   2.023 126.297  0.00  0.00    +0.167 C 
ATOM      9  C   LIG A   1      -7.250   3.179 126.415  0.00  0.00    +0.061 C 
ATOM     10  C   LIG A   1      -7.754   4.173 127.463  0.00  0.00    +0.016 C 
ATOM     11  C   LIG A   1      -7.061   3.802 125.016  0.00  0.00    +0.008 C 
ATOM     12  C   LIG A   1      -6.128   5.023 125.063  0.00  0.00    +0.009 C 
ATOM     13  O   LIG A   1      -9.185   1.855 127.041  0.00  0.00    -0.292 OA
ENDROOT
BRANCH   6  14
ATOM     14  C   LIG A   1      -6.771   3.231 122.563  0.00  0.00    -0.036 A 
ATOM     15  C   LIG A   1      -8.083   3.294 122.060  0.00  0.00    +0.053 A 
ATOM     16  C   LIG A   1      -8.264   3.732 120.763  0.00  0.00    +0.167 A 
ATOM     17  C   LIG A   1      -7.208   4.107 119.968  0.00  0.00    +0.166 A 
ATOM     18  O   LIG A   1      -7.604   4.503 118.729  0.00  0.00    -0.453 OA
ATOM     19  C   LIG A   1      -9.032   4.335 118.834  0.00  0.00    +0.466 C 
ATOM     20  O   LIG A   1      -9.460   3.847 120.124  0.00  0.00    -0.453 OA
ATOM     21  C   LIG A   1      -5.910   4.068 120.422  0.00  0.00    +0.050 A 
ATOM     22  C   LIG A   1      -5.692   3.627 121.731  0.00  0.00    +0.008 A 
ENDBRANCH   6  14
BRANCH   1  24
ATOM     23  C   LIG A   1      -5.602  -2.653 122.863  0.00  0.00    +0.277 C 
ATOM     24  O   LIG A   1      -6.855  -2.020 122.618  0.00  0.00    -0.491 OA
ENDBRANCH   1  24
BRANCH   2  25
ATOM     25  O   LIG A   1      -8.630  -2.544 124.525  0.00  0.00    -0.491 OA
ATOM     26  C   LIG A   1      -9.369  -2.898 125.690  0.00  0.00    +0.277 C 
ENDBRANCH   2  25
TORSDOF 3
ENDMDL
MODEL 2
REMARK VINA RESULT:      -7.4      3.689      8.226
REMARK  Name = NuBBE_2164
REMARK  7 active torsions:
REMARK  status: ('A' for Active; 'I' for Inactive)
REMARK    1  A    between atoms: C_1  and  O_2
REMARK    2  A    between atoms: O_2  and  C_3
REMARK    3  A    between atoms: C_4  and  O_5
REMARK    4  A    between atoms: O_5  and  C_6
REMARK    5  A    between atoms: C_10  and  C_12
REMARK    6  A    between atoms: C_23  and  C_25
REMARK    7  A    between atoms: C_26  and  C_28
REMARK                            x       y       z     vdW  Elec       q    Type
REMARK                         _______ _______ _______ _____ _____    ______ ____
ROOT
ATOM      1  C   LIG A   1      -5.200   2.023 126.346  0.00  0.00    +0.162 A 
ATOM      2  C   LIG A   1      -6.115   2.726 125.541  0.00  0.00    +0.162 A 
ATOM      3  C   LIG A   1      -6.970   2.010 124.701  0.00  0.00    +0.061 A 
ATOM      4  C   LIG A   1      -5.209   0.621 126.344  0.00  0.00    +0.054 A 
ATOM      5  C   LIG A   1      -6.100  -0.106 125.535  0.00  0.00    -0.025 A 
ATOM      6  C   LIG A   1      -6.125  -1.628 125.610  0.00  0.00    +0.053 C 
ATOM      7  C   LIG A   1      -6.940   0.611 124.683  0.00  0.00    +0.025 A 
ATOM      8  C   LIG A   1      -7.787  -0.098 123.700  0.00  0.00    +0.167 C 
ATOM      9  C   LIG A   1      -7.366  -1.520 123.370  0.00  0.00    +0.061 C 
ATOM     10  C   LIG A   1      -8.383  -2.149 122.417  0.00  0.00    +0.016 C 
ATOM     11  C   LIG A   1      -7.198  -2.297 124.692  0.00  0.00    +0.008 C 
ATOM     12  C   LIG A   1      -6.832  -3.768 124.441  0.00  0.00    +0.009 C 
ATOM     13  O   LIG A   1      -8.714   0.486 123.156  0.00  0.00    -0.292 OA
ENDROOT
BRANCH   6  14
ATOM     14  C   LIG A   1      -6.300  -2.110 127.056  0.00  0.00    -0.036 A 
ATOM     15  C   LIG A   1      -5.186  -2.536 127.802  0.00  0.00    +0.053 A 
ATOM     16  C   LIG A   1      -5.393  -2.960 129.099  0.00  0.00    +0.167 A 
ATOM     17  C   LIG A   1      -6.643  -2.971 129.670  0.00  0.00    +0.166 A 
ATOM     18  O   LIG A   1      -6.626  -3.427 130.951  0.00  0.00    -0.453 OA
ATOM     19  C   LIG A   1      -5.220  -3.703 131.122  0.00  0.00    +0.466 C 
ATOM     20  O   LIG A   1      -4.430  -3.408 129.951  0.00  0.00    -0.453 OA
ATOM     21  C   LIG A   1      -7.758  -2.557 128.981  0.00  0.00    +0.050 A 
ATOM     22  C   LIG A   1      -7.583  -2.121 127.664  0.00  0.00    +0.008 A 
ENDBRANCH   6  14
BRANCH   1  24
ATOM     23  C   LIG A   1      -3.022   2.918 126.659  0.00  0.00    +0.277 C 
ATOM     24  O   LIG A   1      -4.357   2.769 127.133  0.00  0.00    -0.491 OA
ENDBRANCH   1  24
BRANCH   2  25
ATOM     25  O   LIG A   1      -6.086   4.097 125.615  0.00  0.00    -0.491 OA
ATOM     26  C   LIG A   1      -5.844   4.803 124.401  0.00  0.00    +0.277 C 
ENDBRANCH   2  25
TORSDOF 3
ENDMDL
MODEL 3
REMARK VINA RESULT:      -7.3      1.940      6.057
REMARK  Name = NuBBE_2164
REMARK  7 active torsions:
REMARK  status: ('A' for Active; 'I' for Inactive)
REMARK    1  A    between atoms: C_1  and  O_2
REMARK    2  A    between atoms: O_2  and  C_3
REMARK    3  A    between atoms: C_4  and  O_5
REMARK    4  A    between atoms: O_5  and  C_6
REMARK    5  A    between atoms: C_10  and  C_12
REMARK    6  A    between atoms: C_23  and  C_25
REMARK    7  A    between atoms: C_26  and  C_28
REMARK                            x       y       z     vdW  Elec       q    Type
REMARK                         _______ _______ _______ _____ _____    ______ ____
ROOT
ATOM      1  C   LIG A   1      -6.953   3.310 122.185  0.00  0.00    +0.162 A 
ATOM      2  C   LIG A   1      -5.842   4.150 122.374  0.00  0.00    +0.162 A 
ATOM      3  C   LIG A   1      -5.298   4.280 123.654  0.00  0.00    +0.061 A 
ATOM      4  C   LIG A   1      -7.452   2.566 123.264  0.00  0.00    +0.054 A 
ATOM      5  C   LIG A   1      -6.880   2.656 124.544  0.00  0.00    -0.025 A 
ATOM      6  C   LIG A   1      -7.406   1.781 125.675  0.00  0.00    +0.053 C 
ATOM      7  C   LIG A   1      -5.831   3.558 124.728  0.00  0.00    +0.025 A 
ATOM      8  C   LIG A   1      -5.292   3.810 126.081  0.00  0.00    +0.167 C 
ATOM      9  C   LIG A   1      -6.197   3.415 127.237  0.00  0.00    +0.061 C 
ATOM     10  C   LIG A   1      -5.470   3.648 128.561  0.00  0.00    +0.016 C 
ATOM     11  C   LIG A   1      -6.642   1.952 127.028  0.00  0.00    +0.008 C 
ATOM     12  C   LIG A   1      -7.514   1.456 128.192  0.00  0.00    +0.009 C 
ATOM     13  O   LIG A   1      -4.214   4.371 126.216  0.00  0.00    -0.292 OA
ENDROOT
BRANCH   6  14
ATOM     14  C   LIG A   1      -7.426   0.301 125.270  0.00  0.00    -0.036 A 
ATOM     15  C   LIG A   1      -8.649  -0.365 125.076  0.00  0.00    +0.053 A 
ATOM     16  C   LIG A   1      -8.617  -1.696 124.712  0.00  0.00    +0.167 A 
ATOM     17  C   LIG A   1      -7.435  -2.373 124.533  0.00  0.00    +0.166 A 
ATOM     18  O   LIG A   1      -7.626  -3.672 124.179  0.00  0.00    -0.453 OA
ATOM     19  C   LIG A   1      -9.067  -3.736 124.156  0.00  0.00    +0.466 C 
ATOM     20  O   LIG A   1      -9.704  -2.485 124.491  0.00  0.00    -0.453 OA
ATOM     21  C   LIG A   1      -6.216  -1.759 124.706  0.00  0.00    +0.050 A 
ATOM     22  C   LIG A   1      -6.214  -0.411 125.075  0.00  0.00    +0.008 A 
ENDBRANCH   6  14
BRANCH   1  24
ATOM     23  C   LIG A   1      -8.784   3.773 120.744  0.00  0.00    +0.277 C 
ATOM     24  O   LIG A   1      -7.475   3.237 120.916  0.00  0.00    -0.491 OA
ENDBRANCH   1  24
BRANCH   2  25
ATOM     25  O   LIG A   1      -5.373   4.824 121.273  0.00  0.00    -0.491 OA
ATOM     26  C   LIG A   1      -4.038   5.315 121.338  0.00  0.00    +0.277 C 
ENDBRANCH   2  25
TORSDOF 3
ENDMDL
MODEL 4
REMARK VINA RESULT:      -7.2      3.135      6.350
REMARK  Name = NuBBE_2164
REMARK  7 active torsions:
REMARK  status: ('A' for Active; 'I' for Inactive)
REMARK    1  A    between atoms: C_1  and  O_2
REMARK    2  A    between atoms: O_2  and  C_3
REMARK    3  A    between atoms: C_4  and  O_5
REMARK    4  A    between atoms: O_5  and  C_6
REMARK    5  A    between atoms: C_10  and  C_12
REMARK    6  A    between atoms: C_23  and  C_25
REMARK    7  A    between atoms: C_26  and  C_28
REMARK                            x       y       z     vdW  Elec       q    Type
REMARK                         _______ _______ _______ _____ _____    ______ ____
ROOT
ATOM      1  C   LIG A   1      -8.079  -0.458 124.713  0.00  0.00    +0.162 A 
ATOM      2  C   LIG A   1      -8.877  -1.610 124.828  0.00  0.00    +0.162 A 
ATOM      3  C   LIG A   1      -8.875  -2.320 126.031  0.00  0.00    +0.061 A 
ATOM      4  C   LIG A   1      -7.353  -0.003 125.824  0.00  0.00    +0.054 A 
ATOM      5  C   LIG A   1      -7.384  -0.687 127.051  0.00  0.00    -0.025 A 
ATOM      6  C   LIG A   1      -6.635  -0.125 128.253  0.00  0.00    +0.053 C 
ATOM      7  C   LIG A   1      -8.115  -1.874 127.118  0.00  0.00    +0.025 A 
ATOM      8  C   LIG A   1      -8.060  -2.716 128.331  0.00  0.00    +0.167 C 
ATOM      9  C   LIG A   1      -6.874  -2.474 129.251  0.00  0.00    +0.061 C 
ATOM     10  C   LIG A   1      -7.005  -3.348 130.498  0.00  0.00    +0.016 C 
ATOM     11  C   LIG A   1      -6.800  -0.964 129.561  0.00  0.00    +0.008 C 
ATOM     12  C   LIG A   1      -5.659  -0.644 130.539  0.00  0.00    +0.009 C 
ATOM     13  O   LIG A   1      -8.897  -3.591 128.508  0.00  0.00    -0.292 OA
ENDROOT
BRANCH   6  14
ATOM     14  C   LIG A   1      -7.025   1.336 128.517  0.00  0.00    -0.036 A 
ATOM     15  C   LIG A   1      -8.295   1.648 129.033  0.00  0.00    +0.053 A 
ATOM     16  C   LIG A   1      -8.601   2.976 129.254  0.00  0.00    +0.167 A 
ATOM     17  C   LIG A   1      -7.704   3.983 128.990  0.00  0.00    +0.166 A 
ATOM     18  O   LIG A   1      -8.204   5.215 129.275  0.00  0.00    -0.453 OA
ATOM     19  C   LIG A   1      -9.521   4.869 129.750  0.00  0.00    +0.466 C 
ATOM     20  O   LIG A   1      -9.781   3.449 129.741  0.00  0.00    -0.453 OA
ATOM     21  C   LIG A   1      -6.448   3.722 128.492  0.00  0.00    +0.050 A 
ATOM     22  C   LIG A   1      -6.108   2.387 128.256  0.00  0.00    +0.008 A 
ENDBRANCH   6  14
BRANCH   1  24
ATOM     23  C   LIG A   1      -7.159   1.263 123.358  0.00  0.00    +0.277 C 
ATOM     24  O   LIG A   1      -8.087   0.192 123.503  0.00  0.00    -0.491 OA
ENDBRANCH   1  24
BRANCH   2  25
ATOM     25  O   LIG A   1      -9.597  -1.985 123.720  0.00  0.00    -0.491 OA
ATOM     26  C   LIG A   1      -9.583  -3.368 123.380  0.00  0.00    +0.277 C 
ENDBRANCH   2  25
TORSDOF 3
ENDMDL
MODEL 5
REMARK VINA RESULT:      -7.0      2.644      7.066
REMARK  Name = NuBBE_2164
REMARK  7 active torsions:
REMARK  status: ('A' for Active; 'I' for Inactive)
REMARK    1  A    between atoms: C_1  and  O_2
REMARK    2  A    between atoms: O_2  and  C_3
REMARK    3  A    between atoms: C_4  and  O_5
REMARK    4  A    between atoms: O_5  and  C_6
REMARK    5  A    between atoms: C_10  and  C_12
REMARK    6  A    between atoms: C_23  and  C_25
REMARK    7  A    between atoms: C_26  and  C_28
REMARK                            x       y       z     vdW  Elec       q    Type
REMARK                         _______ _______ _______ _____ _____    ______ ____
ROOT
ATOM      1  C   LIG A   1      -6.366   2.500 124.529  0.00  0.00    +0.162 A 
ATOM      2  C   LIG A   1      -7.200   1.973 123.528  0.00  0.00    +0.162 A 
ATOM      3  C   LIG A   1      -7.909   0.797 123.784  0.00  0.00    +0.061 A 
ATOM      4  C   LIG A   1      -6.314   1.881 125.786  0.00  0.00    +0.054 A 
ATOM      5  C   LIG A   1      -7.062   0.725 126.066  0.00  0.00    -0.025 A 
ATOM      6  C   LIG A   1      -7.031   0.120 127.464  0.00  0.00    +0.053 C 
ATOM      7  C   LIG A   1      -7.817   0.171 125.032  0.00  0.00    +0.025 A 
ATOM      8  C   LIG A   1      -8.500  -1.127 125.220  0.00  0.00    +0.167 C 
ATOM      9  C   LIG A   1      -7.979  -1.989 126.358  0.00  0.00    +0.061 C 
ATOM     10  C   LIG A   1      -8.839  -3.247 126.484  0.00  0.00    +0.016 C 
ATOM     11  C   LIG A   1      -7.948  -1.133 127.641  0.00  0.00    +0.008 C 
ATOM     12  C   LIG A   1      -7.490  -1.954 128.857  0.00  0.00    +0.009 C 
ATOM     13  O   LIG A   1      -9.375  -1.477 124.440  0.00  0.00    -0.292 OA
ENDROOT
BRANCH   6  14
ATOM     14  C   LIG A   1      -7.368   1.170 128.531  0.00  0.00    -0.036 A 
ATOM     15  C   LIG A   1      -8.646   1.756 128.571  0.00  0.00    +0.053 A 
ATOM     16  C   LIG A   1      -8.903   2.695 129.549  0.00  0.00    +0.167 A 
ATOM     17  C   LIG A   1      -7.954   3.061 130.473  0.00  0.00    +0.166 A 
ATOM     18  O   LIG A   1      -8.411   4.001 131.344  0.00  0.00    -0.453 OA
ATOM     19  C   LIG A   1      -9.757   4.186 130.861  0.00  0.00    +0.466 C 
ATOM     20  O   LIG A   1     -10.078   3.359 129.722  0.00  0.00    -0.453 OA
ATOM     21  C   LIG A   1      -6.695   2.508 130.476  0.00  0.00    +0.050 A 
ATOM     22  C   LIG A   1      -6.402   1.554 129.498  0.00  0.00    +0.008 A 
ENDBRANCH   6  14
BRANCH   1  24
ATOM     23  C   LIG A   1      -6.093   4.836 124.865  0.00  0.00    +0.277 C 
ATOM     24  O   LIG A   1      -5.662   3.640 124.222  0.00  0.00    -0.491 OA
ENDBRANCH   1  24
BRANCH   2  25
ATOM     25  O   LIG A   1      -7.240   2.644 122.330  0.00  0.00    -0.491 OA
ATOM     26  C   LIG A   1      -8.497   3.190 121.940  0.00  0.00    +0.277 C 
ENDBRANCH   2  25
TORSDOF 3
ENDMDL
MODEL 6
REMARK VINA RESULT:      -7.0      5.510      8.952
REMARK  Name = NuBBE_2164
REMARK  7 active torsions:
REMARK  status: ('A' for Active; 'I' for Inactive)
REMARK    1  A    between atoms: C_1  and  O_2
REMARK    2  A    between atoms: O_2  and  C_3
REMARK    3  A    between atoms: C_4  and  O_5
REMARK    4  A    between atoms: O_5  and  C_6
REMARK    5  A    between atoms: C_10  and  C_12
REMARK    6  A    between atoms: C_23  and  C_25
REMARK    7  A    between atoms: C_26  and  C_28
REMARK                            x       y       z     vdW  Elec       q    Type
REMARK                         _______ _______ _______ _____ _____    ______ ____
ROOT
ATOM      1  C   LIG A   1      -7.972   0.895 131.024  0.00  0.00    +0.162 A 
ATOM      2  C   LIG A   1      -6.782   1.466 131.508  0.00  0.00    +0.162 A 
ATOM      3  C   LIG A   1      -5.671   0.646 131.717  0.00  0.00    +0.061 A 
ATOM      4  C   LIG A   1      -8.004  -0.468 130.695  0.00  0.00    +0.054 A 
ATOM      5  C   LIG A   1      -6.875  -1.289 130.859  0.00  0.00    -0.025 A 
ATOM      6  C   LIG A   1      -6.928  -2.750 130.426  0.00  0.00    +0.053 C 
ATOM      7  C   LIG A   1      -5.730  -0.720 131.419  0.00  0.00    +0.025 A 
ATOM      8  C   LIG A   1      -4.566  -1.566 131.758  0.00  0.00    +0.167 C 
ATOM      9  C   LIG A   1      -4.848  -3.054 131.892  0.00  0.00    +0.061 C 
ATOM     10  C   LIG A   1      -3.540  -3.802 132.152  0.00  0.00    +0.016 C 
ATOM     11  C   LIG A   1      -5.586  -3.526 130.622  0.00  0.00    +0.008 C 
ATOM     12  C   LIG A   1      -5.853  -5.039 130.653  0.00  0.00    +0.009 C 
ATOM     13  O   LIG A   1      -3.480  -1.051 131.980  0.00  0.00    -0.292 OA
ENDROOT
BRANCH   6  14
ATOM     14  C   LIG A   1      -7.401  -2.882 128.972  0.00  0.00    -0.036 A 
ATOM     15  C   LIG A   1      -6.639  -2.331 127.926  0.00  0.00    +0.053 A 
ATOM     16  C   LIG A   1      -7.104  -2.475 126.635  0.00  0.00    +0.167 A 
ATOM     17  C   LIG A   1      -8.274  -3.138 126.352  0.00  0.00    +0.166 A 
ATOM     18  O   LIG A   1      -8.550  -3.163 125.021  0.00  0.00    -0.453 OA
ATOM     19  C   LIG A   1      -7.419  -2.439 124.496  0.00  0.00    +0.466 C 
ATOM     20  O   LIG A   1      -6.495  -1.999 125.514  0.00  0.00    -0.453 OA
ATOM     21  C   LIG A   1      -9.046  -3.698 127.343  0.00  0.00    +0.050 A 
ATOM     22  C   LIG A   1      -8.603  -3.569 128.663  0.00  0.00    +0.008 A 
ENDBRANCH   6  14
BRANCH   1  24
ATOM     23  C   LIG A   1     -10.009   1.731 131.916  0.00  0.00    +0.277 C 
ATOM     24  O   LIG A   1      -9.049   1.732 130.864  0.00  0.00    -0.491 OA
ENDBRANCH   1  24
BRANCH   2  25
ATOM     25  O   LIG A   1      -6.799   2.812 131.776  0.00  0.00    -0.491 OA
ATOM     26  C   LIG A   1      -5.856   3.620 131.078  0.00  0.00    +0.277 C 
ENDBRANCH   2  25
TORSDOF 3
ENDMDL
MODEL 7
REMARK VINA RESULT:      -6.9      3.708      6.167
REMARK  Name = NuBBE_2164
REMARK  7 active torsions:
REMARK  status: ('A' for Active; 'I' for Inactive)
REMARK    1  A    between atoms: C_1  and  O_2
REMARK    2  A    between atoms: O_2  and  C_3
REMARK    3  A    between atoms: C_4  and  O_5
REMARK    4  A    between atoms: O_5  and  C_6
REMARK    5  A    between atoms: C_10  and  C_12
REMARK    6  A    between atoms: C_23  and  C_25
REMARK    7  A    between atoms: C_26  and  C_28
REMARK                            x       y       z     vdW  Elec       q    Type
REMARK                         _______ _______ _______ _____ _____    ______ ____
ROOT
ATOM      1  C   LIG A   1      -7.699  -1.148 129.639  0.00  0.00    +0.162 A 
ATOM      2  C   LIG A   1      -7.693  -2.507 129.281  0.00  0.00    +0.162 A 
ATOM      3  C   LIG A   1      -7.835  -2.857 127.936  0.00  0.00    +0.061 A 
ATOM      4  C   LIG A   1      -7.777  -0.168 128.639  0.00  0.00    +0.054 A 
ATOM      5  C   LIG A   1      -7.873  -0.512 127.279  0.00  0.00    -0.025 A 
ATOM      6  C   LIG A   1      -7.887   0.582 126.218  0.00  0.00    +0.053 C 
ATOM      7  C   LIG A   1      -7.949  -1.867 126.954  0.00  0.00    +0.025 A 
ATOM      8  C   LIG A   1      -8.205  -2.285 125.559  0.00  0.00    +0.167 C 
ATOM      9  C   LIG A   1      -8.810  -1.226 124.652  0.00  0.00    +0.061 C 
ATOM     10  C   LIG A   1      -8.929  -1.775 123.230  0.00  0.00    +0.016 C 
ATOM     11  C   LIG A   1      -7.946   0.049 124.750  0.00  0.00    +0.008 C 
ATOM     12  C   LIG A   1      -8.459   1.152 123.810  0.00  0.00    +0.009 C 
ATOM     13  O   LIG A   1      -7.997  -3.441 125.219  0.00  0.00    -0.292 OA
ENDROOT
BRANCH   6  14
ATOM     14  C   LIG A   1      -6.693   1.531 126.382  0.00  0.00    -0.036 A 
ATOM     15  C   LIG A   1      -6.898   2.872 126.751  0.00  0.00    +0.053 A 
ATOM     16  C   LIG A   1      -5.793   3.688 126.887  0.00  0.00    +0.167 A 
ATOM     17  C   LIG A   1      -4.517   3.225 126.676  0.00  0.00    +0.166 A 
ATOM     18  O   LIG A   1      -3.576   4.190 126.859  0.00  0.00    -0.453 OA
ATOM     19  C   LIG A   1      -4.407   5.316 127.209  0.00  0.00    +0.466 C 
ATOM     20  O   LIG A   1      -5.816   5.005 127.230  0.00  0.00    -0.453 OA
ATOM     21  C   LIG A   1      -4.269   1.920 126.321  0.00  0.00    +0.050 A 
ATOM     22  C   LIG A   1      -5.367   1.067 126.175  0.00  0.00    +0.008 A 
ENDBRANCH   6  14
BRANCH   1  24
ATOM     23  C   LIG A   1      -8.664  -0.108 131.545  0.00  0.00    +0.277 C 
ATOM     24  O   LIG A   1      -7.589  -0.851 130.976  0.00  0.00    -0.491 OA
ENDBRANCH   1  24
BRANCH   2  25
ATOM     25  O   LIG A   1      -7.575  -3.421 130.300  0.00  0.00    -0.491 OA
ATOM     26  C   LIG A   1      -6.321  -4.085 130.428  0.00  0.00    +0.277 C 
ENDBRANCH   2  25
TORSDOF 3
ENDMDL
MODEL 8
REMARK VINA RESULT:      -6.9      2.248      5.222
REMARK  Name = NuBBE_2164
REMARK  7 active torsions:
REMARK  status: ('A' for Active; 'I' for Inactive)
REMARK    1  A    between atoms: C_1  and  O_2
REMARK    2  A    between atoms: O_2  and  C_3
REMARK    3  A    between atoms: C_4  and  O_5
REMARK    4  A    between atoms: O_5  and  C_6
REMARK    5  A    between atoms: C_10  and  C_12
REMARK    6  A    between atoms: C_23  and  C_25
REMARK    7  A    between atoms: C_26  and  C_28
REMARK                            x       y       z     vdW  Elec       q    Type
REMARK                         _______ _______ _______ _____ _____    ______ ____
ROOT
ATOM      1  C   LIG A   1      -8.578   1.700 128.044  0.00  0.00    +0.162 A 
ATOM      2  C   LIG A   1      -7.752   0.826 128.773  0.00  0.00    +0.162 A 
ATOM      3  C   LIG A   1      -7.412  -0.409 128.217  0.00  0.00    +0.061 A 
ATOM      4  C   LIG A   1      -8.988   1.349 126.749  0.00  0.00    +0.054 A 
ATOM      5  C   LIG A   1      -8.610   0.127 126.166  0.00  0.00    -0.025 A 
ATOM      6  C   LIG A   1      -9.020  -0.188 124.732  0.00  0.00    +0.053 C 
ATOM      7  C   LIG A   1      -7.860  -0.760 126.939  0.00  0.00    +0.025 A 
ATOM      8  C   LIG A   1      -7.565  -2.119 126.438  0.00  0.00    +0.167 C 
ATOM      9  C   LIG A   1      -8.464  -2.621 125.319  0.00  0.00    +0.061 C 
ATOM     10  C   LIG A   1      -7.979  -3.993 124.848  0.00  0.00    +0.016 C 
ATOM     11  C   LIG A   1      -8.487  -1.558 124.201  0.00  0.00    +0.008 C 
ATOM     12  C   LIG A   1      -9.329  -2.021 123.001  0.00  0.00    +0.009 C 
ATOM     13  O   LIG A   1      -6.691  -2.790 126.969  0.00  0.00    -0.292 OA
ENDROOT
BRANCH   6  14
ATOM     14  C   LIG A   1      -8.608   0.939 123.776  0.00  0.00    -0.036 A 
ATOM     15  C   LIG A   1      -7.275   1.385 123.738  0.00  0.00    +0.053 A 
ATOM     16  C   LIG A   1      -6.952   2.401 122.861  0.00  0.00    +0.167 A 
ATOM     17  C   LIG A   1      -7.888   2.974 122.035  0.00  0.00    +0.166 A 
ATOM     18  O   LIG A   1      -7.363   3.956 121.255  0.00  0.00    -0.453 OA
ATOM     19  C   LIG A   1      -5.987   3.937 121.685  0.00  0.00    +0.466 C 
ATOM     20  O   LIG A   1      -5.717   2.951 122.704  0.00  0.00    -0.453 OA
ATOM     21  C   LIG A   1      -9.201   2.563 122.033  0.00  0.00    +0.050 A 
ATOM     22  C   LIG A   1      -9.561   1.536 122.911  0.00  0.00    +0.008 A 
ENDBRANCH   6  14
BRANCH   1  24
ATOM     23  C   LIG A   1      -8.076   4.003 128.340  0.00  0.00    +0.277 C 
ATOM     24  O   LIG A   1      -8.914   2.890 128.642  0.00  0.00    -0.491 OA
ENDBRANCH   1  24
BRANCH   2  25
ATOM     25  O   LIG A   1      -7.350   1.241 130.019  0.00  0.00    -0.491 OA
ATOM     26  C   LIG A   1      -7.978   0.621 131.137  0.00  0.00    +0.277 C 
ENDBRANCH   2  25
TORSDOF 3
ENDMDL
MODEL 9
REMARK VINA RESULT:      -6.9      7.272     10.285
REMARK  Name = NuBBE_2164
REMARK  7 active torsions:
REMARK  status: ('A' for Active; 'I' for Inactive)
REMARK    1  A    between atoms: C_1  and  O_2
REMARK    2  A    between atoms: O_2  and  C_3
REMARK    3  A    between atoms: C_4  and  O_5
REMARK    4  A    between atoms: O_5  and  C_6
REMARK    5  A    between atoms: C_10  and  C_12
REMARK    6  A    between atoms: C_23  and  C_25
REMARK    7  A    between atoms: C_26  and  C_28
REMARK                            x       y       z     vdW  Elec       q    Type
REMARK                         _______ _______ _______ _____ _____    ______ ____
ROOT
ATOM      1  C   LIG A   1     -10.675   6.323 130.801  0.00  0.00    +0.162 A 
ATOM      2  C   LIG A   1     -10.038   7.349 130.080  0.00  0.00    +0.162 A 
ATOM      3  C   LIG A   1      -8.656   7.509 130.203  0.00  0.00    +0.061 A 
ATOM      4  C   LIG A   1      -9.908   5.438 131.572  0.00  0.00    +0.054 A 
ATOM      5  C   LIG A   1      -8.511   5.565 131.663  0.00  0.00    -0.025 A 
ATOM      6  C   LIG A   1      -7.705   4.544 132.457  0.00  0.00    +0.053 C 
ATOM      7  C   LIG A   1      -7.910   6.640 131.007  0.00  0.00    +0.025 A 
ATOM      8  C   LIG A   1      -6.469   6.916 131.192  0.00  0.00    +0.167 C 
ATOM      9  C   LIG A   1      -5.829   6.291 132.421  0.00  0.00    +0.061 C 
ATOM     10  C   LIG A   1      -4.329   6.586 132.424  0.00  0.00    +0.016 C 
ATOM     11  C   LIG A   1      -6.161   4.784 132.429  0.00  0.00    +0.008 C 
ATOM     12  C   LIG A   1      -5.495   4.065 133.612  0.00  0.00    +0.009 C 
ATOM     13  O   LIG A   1      -5.886   7.664 130.421  0.00  0.00    -0.292 OA
ENDROOT
BRANCH   6  14
ATOM     14  C   LIG A   1      -8.020   3.113 132.002  0.00  0.00    -0.036 A 
ATOM     15  C   LIG A   1      -7.229   2.491 131.020  0.00  0.00    +0.053 A 
ATOM     16  C   LIG A   1      -7.551   1.202 130.643  0.00  0.00    +0.167 A 
ATOM     17  C   LIG A   1      -8.607   0.523 131.201  0.00  0.00    +0.166 A 
ATOM     18  O   LIG A   1      -8.752  -0.728 130.688  0.00  0.00    -0.453 OA
ATOM     19  C   LIG A   1      -7.664  -0.760 129.742  0.00  0.00    +0.466 C 
ATOM     20  O   LIG A   1      -6.895   0.462 129.708  0.00  0.00    -0.453 OA
ATOM     21  C   LIG A   1      -9.402   1.090 132.170  0.00  0.00    +0.050 A 
ATOM     22  C   LIG A   1      -9.103   2.395 132.573  0.00  0.00    +0.008 A 
ENDBRANCH   6  14
BRANCH   1  24
ATOM     23  C   LIG A   1     -12.809   7.194 131.376  0.00  0.00    +0.277 C 
ATOM     24  O   LIG A   1     -12.039   6.222 130.675  0.00  0.00    -0.491 OA
ENDBRANCH   1  24
BRANCH   2  25
ATOM     25  O   LIG A   1     -10.836   8.160 129.311  0.00  0.00    -0.491 OA
ATOM     26  C   LIG A   1     -10.573   8.182 127.911  0.00  0.00    +0.277 C 
ENDBRANCH   2  25
TORSDOF 3
ENDMDL
