MODEL 1
REMARK VINA RESULT:      -6.3      0.000      0.000
REMARK  Name = NuBBE_599
REMARK  6 active torsions:
REMARK  status: ('A' for Active; 'I' for Inactive)
REMARK    1  A    between atoms: C_1  and  O_2
REMARK    2  A    between atoms: O_2  and  C_3
REMARK    3  A    between atoms: C_4  and  O_5
REMARK    4  A    between atoms: O_5  and  C_6
REMARK    5  A    between atoms: C_17  and  O_18
REMARK    6  A    between atoms: O_18  and  C_19
REMARK                            x       y       z     vdW  Elec       q    Type
REMARK                         _______ _______ _______ _____ _____    ______ ____
ROOT
ATOM      1  C   LIG A   1      -8.208   5.745 130.430  0.00  0.00    +0.188 A 
ATOM      2  C   LIG A   1      -7.934   5.574 131.807  0.00  0.00    +0.164 A 
ATOM      3  C   LIG A   1      -8.953   5.748 132.735  0.00  0.00    +0.050 A 
ATOM      4  C   LIG A   1     -10.229   6.097 132.307  0.00  0.00    +0.017 A 
ATOM      5  C   LIG A   1     -10.530   6.263 130.940  0.00  0.00    +0.047 A 
ATOM      6  C   LIG A   1      -9.507   6.071 129.977  0.00  0.00    +0.123 A 
ATOM      7  N   LIG A   1      -9.746   6.180 128.669  0.00  0.00    -0.208 NA
ATOM      8  C   LIG A   1     -10.980   6.536 128.301  0.00  0.00    +0.231 A 
ATOM      9  O   LIG A   1     -11.309   6.726 126.996  0.00  0.00    -0.445 OA
ATOM     10  C   LIG A   1     -12.605   7.113 126.968  0.00  0.00    +0.198 A 
ATOM     11  C   LIG A   1     -13.117   7.166 128.245  0.00  0.00    +0.055 A 
ATOM     12  C   LIG A   1     -12.066   6.779 129.124  0.00  0.00    +0.082 A 
ATOM     13  C   LIG A   1     -11.843   6.609 130.504  0.00  0.00    +0.142 A 
ENDROOT
BRANCH   1  15
ATOM     14  C   LIG A   1      -6.978   4.220 129.027  0.00  0.00    +0.277 C 
ATOM     15  O   LIG A   1      -7.119   5.516 129.602  0.00  0.00    -0.489 OA
ENDBRANCH   1  15
BRANCH   2  16
ATOM     16  O   LIG A   1      -6.639   5.257 132.144  0.00  0.00    -0.491 OA
ATOM     17  C   LIG A   1      -6.416   4.020 132.810  0.00  0.00    +0.277 C 
ENDBRANCH   2  16
BRANCH  13  18
ATOM     18  O   LIG A   1     -12.782   6.840 131.501  0.00  0.00    -0.494 OA
ATOM     19  C   LIG A   1     -13.101   8.205 131.738  0.00  0.00    +0.277 C 
ENDBRANCH  13  18
TORSDOF 3
ENDMDL
MODEL 2
REMARK VINA RESULT:      -6.3      6.957      9.116
REMARK  Name = NuBBE_599
REMARK  6 active torsions:
REMARK  status: ('A' for Active; 'I' for Inactive)
REMARK    1  A    between atoms: C_1  and  O_2
REMARK    2  A    between atoms: O_2  and  C_3
REMARK    3  A    between atoms: C_4  and  O_5
REMARK    4  A    between atoms: O_5  and  C_6
REMARK    5  A    between atoms: C_17  and  O_18
REMARK    6  A    between atoms: O_18  and  C_19
REMARK                            x       y       z     vdW  Elec       q    Type
REMARK                         _______ _______ _______ _____ _____    ______ ____
ROOT
ATOM      1  C   LIG A   1      -8.344   2.696 124.341  0.00  0.00    +0.188 A 
ATOM      2  C   LIG A   1      -7.398   2.555 125.382  0.00  0.00    +0.164 A 
ATOM      3  C   LIG A   1      -6.063   2.857 125.140  0.00  0.00    +0.050 A 
ATOM      4  C   LIG A   1      -5.666   3.285 123.878  0.00  0.00    +0.017 A 
ATOM      5  C   LIG A   1      -6.592   3.444 122.827  0.00  0.00    +0.047 A 
ATOM      6  C   LIG A   1      -7.962   3.159 123.061  0.00  0.00    +0.123 A 
ATOM      7  N   LIG A   1      -8.884   3.326 122.112  0.00  0.00    -0.208 NA
ATOM      8  C   LIG A   1      -8.459   3.720 120.909  0.00  0.00    +0.231 A 
ATOM      9  O   LIG A   1      -9.314   3.868 119.862  0.00  0.00    -0.445 OA
ATOM     10  C   LIG A   1      -8.570   4.235 118.793  0.00  0.00    +0.198 A 
ATOM     11  C   LIG A   1      -7.243   4.333 119.144  0.00  0.00    +0.055 A 
ATOM     12  C   LIG A   1      -7.160   4.011 120.530  0.00  0.00    +0.082 A 
ATOM     13  C   LIG A   1      -6.184   3.896 121.538  0.00  0.00    +0.142 A 
ENDROOT
BRANCH   1  15
ATOM     14  C   LIG A   1     -10.184   1.140 124.301  0.00  0.00    +0.277 C 
ATOM     15  O   LIG A   1      -9.645   2.393 124.713  0.00  0.00    -0.489 OA
ENDBRANCH   1  15
BRANCH   2  16
ATOM     16  O   LIG A   1      -7.871   2.098 126.590  0.00  0.00    -0.491 OA
ATOM     17  C   LIG A   1      -7.259   0.938 127.140  0.00  0.00    +0.277 C 
ENDBRANCH   2  16
BRANCH  13  18
ATOM     18  O   LIG A   1      -4.821   4.101 121.360  0.00  0.00    -0.494 OA
ATOM     19  C   LIG A   1      -4.417   5.458 121.242  0.00  0.00    +0.277 C 
ENDBRANCH  13  18
TORSDOF 3
ENDMDL
MODEL 3
REMARK VINA RESULT:      -6.3      1.701      5.145
REMARK  Name = NuBBE_599
REMARK  6 active torsions:
REMARK  status: ('A' for Active; 'I' for Inactive)
REMARK    1  A    between atoms: C_1  and  O_2
REMARK    2  A    between atoms: O_2  and  C_3
REMARK    3  A    between atoms: C_4  and  O_5
REMARK    4  A    between atoms: O_5  and  C_6
REMARK    5  A    between atoms: C_17  and  O_18
REMARK    6  A    between atoms: O_18  and  C_19
REMARK                            x       y       z     vdW  Elec       q    Type
REMARK                         _______ _______ _______ _____ _____    ______ ____
ROOT
ATOM      1  C   LIG A   1     -11.590   7.600 128.610  0.00  0.00    +0.188 A 
ATOM      2  C   LIG A   1     -12.586   8.207 129.411  0.00  0.00    +0.164 A 
ATOM      3  C   LIG A   1     -12.647   7.913 130.767  0.00  0.00    +0.050 A 
ATOM      4  C   LIG A   1     -11.738   7.021 131.326  0.00  0.00    +0.017 A 
ATOM      5  C   LIG A   1     -10.730   6.412 130.552  0.00  0.00    +0.047 A 
ATOM      6  C   LIG A   1     -10.640   6.715 129.169  0.00  0.00    +0.123 A 
ATOM      7  N   LIG A   1      -9.684   6.194 128.399  0.00  0.00    -0.208 NA
ATOM      8  C   LIG A   1      -8.843   5.327 128.969  0.00  0.00    +0.231 A 
ATOM      9  O   LIG A   1      -7.869   4.702 128.257  0.00  0.00    -0.445 OA
ATOM     10  C   LIG A   1      -7.226   3.872 129.110  0.00  0.00    +0.198 A 
ATOM     11  C   LIG A   1      -7.774   3.962 130.370  0.00  0.00    +0.055 A 
ATOM     12  C   LIG A   1      -8.824   4.921 130.292  0.00  0.00    +0.082 A 
ATOM     13  C   LIG A   1      -9.791   5.508 131.130  0.00  0.00    +0.142 A 
ENDROOT
BRANCH   1  15
ATOM     14  C   LIG A   1     -12.219   7.118 126.335  0.00  0.00    +0.277 C 
ATOM     15  O   LIG A   1     -11.614   7.994 127.281  0.00  0.00    -0.489 OA
ENDBRANCH   1  15
BRANCH   2  16
ATOM     16  O   LIG A   1     -13.461   9.053 128.772  0.00  0.00    -0.491 OA
ATOM     17  C   LIG A   1     -13.503  10.407 129.207  0.00  0.00    +0.277 C 
ENDBRANCH   2  16
BRANCH  13  18
ATOM     18  O   LIG A   1      -9.972   5.211 132.476  0.00  0.00    -0.494 OA
ATOM     19  C   LIG A   1      -8.943   5.664 133.346  0.00  0.00    +0.277 C 
ENDBRANCH  13  18
TORSDOF 3
ENDMDL
MODEL 4
REMARK VINA RESULT:      -6.3      1.811      5.354
REMARK  Name = NuBBE_599
REMARK  6 active torsions:
REMARK  status: ('A' for Active; 'I' for Inactive)
REMARK    1  A    between atoms: C_1  and  O_2
REMARK    2  A    between atoms: O_2  and  C_3
REMARK    3  A    between atoms: C_4  and  O_5
REMARK    4  A    between atoms: O_5  and  C_6
REMARK    5  A    between atoms: C_17  and  O_18
REMARK    6  A    between atoms: O_18  and  C_19
REMARK                            x       y       z     vdW  Elec       q    Type
REMARK                         _______ _______ _______ _____ _____    ______ ____
ROOT
ATOM      1  C   LIG A   1     -10.889   7.729 129.489  0.00  0.00    +0.188 A 
ATOM      2  C   LIG A   1     -12.246   7.467 129.788  0.00  0.00    +0.164 A 
ATOM      3  C   LIG A   1     -12.567   6.710 130.908  0.00  0.00    +0.050 A 
ATOM      4  C   LIG A   1     -11.555   6.208 131.720  0.00  0.00    +0.017 A 
ATOM      5  C   LIG A   1     -10.196   6.465 131.449  0.00  0.00    +0.047 A 
ATOM      6  C   LIG A   1      -9.850   7.252 130.321  0.00  0.00    +0.123 A 
ATOM      7  N   LIG A   1      -8.582   7.555 130.040  0.00  0.00    -0.208 NA
ATOM      8  C   LIG A   1      -7.640   7.038 130.832  0.00  0.00    +0.231 A 
ATOM      9  O   LIG A   1      -6.317   7.243 130.598  0.00  0.00    -0.445 OA
ATOM     10  C   LIG A   1      -5.636   6.561 131.548  0.00  0.00    +0.198 A 
ATOM     11  C   LIG A   1      -6.510   5.924 132.398  0.00  0.00    +0.055 A 
ATOM     12  C   LIG A   1      -7.824   6.239 131.948  0.00  0.00    +0.082 A 
ATOM     13  C   LIG A   1      -9.161   5.961 132.291  0.00  0.00    +0.142 A 
ENDROOT
BRANCH   1  15
ATOM     14  C   LIG A   1     -10.568   7.866 127.105  0.00  0.00    +0.277 C 
ATOM     15  O   LIG A   1     -10.699   8.518 128.365  0.00  0.00    -0.489 OA
ENDBRANCH   1  15
BRANCH   2  16
ATOM     16  O   LIG A   1     -13.180   7.975 128.916  0.00  0.00    -0.491 OA
ATOM     17  C   LIG A   1     -13.888   7.052 128.098  0.00  0.00    +0.277 C 
ENDBRANCH   2  16
BRANCH  13  18
ATOM     18  O   LIG A   1      -9.565   5.149 133.344  0.00  0.00    -0.494 OA
ATOM     19  C   LIG A   1      -9.240   3.771 133.215  0.00  0.00    +0.277 C 
ENDBRANCH  13  18
TORSDOF 3
ENDMDL
MODEL 5
REMARK VINA RESULT:      -5.9      7.286      9.548
REMARK  Name = NuBBE_599
REMARK  6 active torsions:
REMARK  status: ('A' for Active; 'I' for Inactive)
REMARK    1  A    between atoms: C_1  and  O_2
REMARK    2  A    between atoms: O_2  and  C_3
REMARK    3  A    between atoms: C_4  and  O_5
REMARK    4  A    between atoms: O_5  and  C_6
REMARK    5  A    between atoms: C_17  and  O_18
REMARK    6  A    between atoms: O_18  and  C_19
REMARK                            x       y       z     vdW  Elec       q    Type
REMARK                         _______ _______ _______ _____ _____    ______ ____
ROOT
ATOM      1  C   LIG A   1      -7.945   2.191 124.080  0.00  0.00    +0.188 A 
ATOM      2  C   LIG A   1      -6.937   2.967 124.699  0.00  0.00    +0.164 A 
ATOM      3  C   LIG A   1      -5.936   2.334 125.425  0.00  0.00    +0.050 A 
ATOM      4  C   LIG A   1      -5.936   0.948 125.546  0.00  0.00    +0.017 A 
ATOM      5  C   LIG A   1      -6.924   0.154 124.930  0.00  0.00    +0.047 A 
ATOM      6  C   LIG A   1      -7.943   0.780 124.168  0.00  0.00    +0.123 A 
ATOM      7  N   LIG A   1      -8.880   0.074 123.536  0.00  0.00    -0.208 NA
ATOM      8  C   LIG A   1      -8.857  -1.252 123.694  0.00  0.00    +0.231 A 
ATOM      9  O   LIG A   1      -9.799  -2.056 123.134  0.00  0.00    -0.445 OA
ATOM     10  C   LIG A   1      -9.515  -3.323 123.512  0.00  0.00    +0.198 A 
ATOM     11  C   LIG A   1      -8.390  -3.344 124.306  0.00  0.00    +0.055 A 
ATOM     12  C   LIG A   1      -7.944  -1.997 124.421  0.00  0.00    +0.082 A 
ATOM     13  C   LIG A   1      -6.914  -1.268 125.046  0.00  0.00    +0.142 A 
ENDROOT
BRANCH   1  15
ATOM     14  C   LIG A   1      -8.659   3.089 121.960  0.00  0.00    +0.277 C 
ATOM     15  O   LIG A   1      -8.870   2.934 123.361  0.00  0.00    -0.489 OA
ENDBRANCH   1  15
BRANCH   2  16
ATOM     16  O   LIG A   1      -7.029   4.331 124.552  0.00  0.00    -0.491 OA
ATOM     17  C   LIG A   1      -6.070   5.131 125.232  0.00  0.00    +0.277 C 
ENDBRANCH   2  16
BRANCH  13  18
ATOM     18  O   LIG A   1      -5.923  -1.813 125.853  0.00  0.00    -0.494 OA
ATOM     19  C   LIG A   1      -6.343  -2.214 127.151  0.00  0.00    +0.277 C 
ENDBRANCH  13  18
TORSDOF 3
ENDMDL
MODEL 6
REMARK VINA RESULT:      -5.9      6.491      8.641
REMARK  Name = NuBBE_599
REMARK  6 active torsions:
REMARK  status: ('A' for Active; 'I' for Inactive)
REMARK    1  A    between atoms: C_1  and  O_2
REMARK    2  A    between atoms: O_2  and  C_3
REMARK    3  A    between atoms: C_4  and  O_5
REMARK    4  A    between atoms: O_5  and  C_6
REMARK    5  A    between atoms: C_17  and  O_18
REMARK    6  A    between atoms: O_18  and  C_19
REMARK                            x       y       z     vdW  Elec       q    Type
REMARK                         _______ _______ _______ _____ _____    ______ ____
ROOT
ATOM      1  C   LIG A   1      -8.681   1.674 126.233  0.00  0.00    +0.188 A 
ATOM      2  C   LIG A   1      -8.186   2.142 127.472  0.00  0.00    +0.164 A 
ATOM      3  C   LIG A   1      -7.667   1.236 128.389  0.00  0.00    +0.050 A 
ATOM      4  C   LIG A   1      -7.645  -0.121 128.087  0.00  0.00    +0.017 A 
ATOM      5  C   LIG A   1      -8.123  -0.611 126.855  0.00  0.00    +0.047 A 
ATOM      6  C   LIG A   1      -8.639   0.301 125.899  0.00  0.00    +0.123 A 
ATOM      7  N   LIG A   1      -9.070  -0.106 124.704  0.00  0.00    -0.208 NA
ATOM      8  C   LIG A   1      -9.051  -1.419 124.462  0.00  0.00    +0.231 A 
ATOM      9  O   LIG A   1      -9.519  -1.937 123.295  0.00  0.00    -0.445 OA
ATOM     10  C   LIG A   1      -9.394  -3.282 123.382  0.00  0.00    +0.198 A 
ATOM     11  C   LIG A   1      -8.841  -3.634 124.592  0.00  0.00    +0.055 A 
ATOM     12  C   LIG A   1      -8.601  -2.423 125.302  0.00  0.00    +0.082 A 
ATOM     13  C   LIG A   1      -8.088  -2.002 126.543  0.00  0.00    +0.142 A 
ENDROOT
BRANCH   1  15
ATOM     14  C   LIG A   1      -8.261   3.172 124.394  0.00  0.00    +0.277 C 
ATOM     15  O   LIG A   1      -9.145   2.675 125.393  0.00  0.00    -0.489 OA
ENDBRANCH   1  15
BRANCH   2  16
ATOM     16  O   LIG A   1      -8.272   3.495 127.700  0.00  0.00    -0.491 OA
ATOM     17  C   LIG A   1      -8.189   3.942 129.048  0.00  0.00    +0.277 C 
ENDBRANCH   2  16
BRANCH  13  18
ATOM     18  O   LIG A   1      -7.625  -2.846 127.545  0.00  0.00    -0.494 OA
ATOM     19  C   LIG A   1      -8.621  -3.614 128.209  0.00  0.00    +0.277 C 
ENDBRANCH  13  18
TORSDOF 3
ENDMDL
MODEL 7
REMARK VINA RESULT:      -5.7      7.856      9.119
REMARK  Name = NuBBE_599
REMARK  6 active torsions:
REMARK  status: ('A' for Active; 'I' for Inactive)
REMARK    1  A    between atoms: C_1  and  O_2
REMARK    2  A    between atoms: O_2  and  C_3
REMARK    3  A    between atoms: C_4  and  O_5
REMARK    4  A    between atoms: O_5  and  C_6
REMARK    5  A    between atoms: C_17  and  O_18
REMARK    6  A    between atoms: O_18  and  C_19
REMARK                            x       y       z     vdW  Elec       q    Type
REMARK                         _______ _______ _______ _____ _____    ______ ____
ROOT
ATOM      1  C   LIG A   1      -7.390  -1.598 128.606  0.00  0.00    +0.188 A 
ATOM      2  C   LIG A   1      -7.681  -2.880 129.129  0.00  0.00    +0.164 A 
ATOM      3  C   LIG A   1      -8.409  -3.782 128.364  0.00  0.00    +0.050 A 
ATOM      4  C   LIG A   1      -8.854  -3.418 127.098  0.00  0.00    +0.017 A 
ATOM      5  C   LIG A   1      -8.568  -2.151 126.551  0.00  0.00    +0.047 A 
ATOM      6  C   LIG A   1      -7.810  -1.223 127.309  0.00  0.00    +0.123 A 
ATOM      7  N   LIG A   1      -7.481  -0.026 126.825  0.00  0.00    -0.208 NA
ATOM      8  C   LIG A   1      -7.944   0.292 125.613  0.00  0.00    +0.231 A 
ATOM      9  O   LIG A   1      -7.709   1.509 125.055  0.00  0.00    -0.445 OA
ATOM     10  C   LIG A   1      -8.339   1.523 123.858  0.00  0.00    +0.198 A 
ATOM     11  C   LIG A   1      -8.973   0.322 123.636  0.00  0.00    +0.055 A 
ATOM     12  C   LIG A   1      -8.710  -0.496 124.772  0.00  0.00    +0.082 A 
ATOM     13  C   LIG A   1      -9.015  -1.786 125.247  0.00  0.00    +0.142 A 
ENDROOT
BRANCH   1  15
ATOM     14  C   LIG A   1      -5.229  -0.732 129.227  0.00  0.00    +0.277 C 
ATOM     15  O   LIG A   1      -6.634  -0.800 129.451  0.00  0.00    -0.489 OA
ENDBRANCH   1  15
BRANCH   2  16
ATOM     16  O   LIG A   1      -7.228  -3.146 130.400  0.00  0.00    -0.491 OA
ATOM     17  C   LIG A   1      -6.180  -4.097 130.539  0.00  0.00    +0.277 C 
ENDBRANCH   2  16
BRANCH  13  18
ATOM     18  O   LIG A   1      -9.802  -2.719 124.581  0.00  0.00    -0.494 OA
ATOM     19  C   LIG A   1      -9.265  -3.215 123.362  0.00  0.00    +0.277 C 
ENDBRANCH  13  18
TORSDOF 3
ENDMDL
MODEL 8
REMARK VINA RESULT:      -5.7      2.974      4.515
REMARK  Name = NuBBE_599
REMARK  6 active torsions:
REMARK  status: ('A' for Active; 'I' for Inactive)
REMARK    1  A    between atoms: C_1  and  O_2
REMARK    2  A    between atoms: O_2  and  C_3
REMARK    3  A    between atoms: C_4  and  O_5
REMARK    4  A    between atoms: O_5  and  C_6
REMARK    5  A    between atoms: C_17  and  O_18
REMARK    6  A    between atoms: O_18  and  C_19
REMARK                            x       y       z     vdW  Elec       q    Type
REMARK                         _______ _______ _______ _____ _____    ______ ____
ROOT
ATOM      1  C   LIG A   1      -4.966   6.932 130.962  0.00  0.00    +0.188 A 
ATOM      2  C   LIG A   1      -3.916   6.525 131.819  0.00  0.00    +0.164 A 
ATOM      3  C   LIG A   1      -4.217   5.890 133.017  0.00  0.00    +0.050 A 
ATOM      4  C   LIG A   1      -5.544   5.667 133.370  0.00  0.00    +0.017 A 
ATOM      5  C   LIG A   1      -6.607   6.054 132.529  0.00  0.00    +0.047 A 
ATOM      6  C   LIG A   1      -6.318   6.686 131.293  0.00  0.00    +0.123 A 
ATOM      7  N   LIG A   1      -7.284   7.039 130.444  0.00  0.00    -0.208 NA
ATOM      8  C   LIG A   1      -8.545   6.826 130.830  0.00  0.00    +0.231 A 
ATOM      9  O   LIG A   1      -9.601   7.200 130.060  0.00  0.00    -0.445 OA
ATOM     10  C   LIG A   1     -10.723   6.881 130.746  0.00  0.00    +0.198 A 
ATOM     11  C   LIG A   1     -10.399   6.297 131.949  0.00  0.00    +0.055 A 
ATOM     12  C   LIG A   1      -8.976   6.245 132.010  0.00  0.00    +0.082 A 
ATOM     13  C   LIG A   1      -7.965   5.813 132.889  0.00  0.00    +0.142 A 
ENDROOT
BRANCH   1  15
ATOM     14  C   LIG A   1      -4.177   8.904 129.825  0.00  0.00    +0.277 C 
ATOM     15  O   LIG A   1      -4.538   7.527 129.785  0.00  0.00    -0.489 OA
ENDBRANCH   1  15
BRANCH   2  16
ATOM     16  O   LIG A   1      -2.636   6.810 131.405  0.00  0.00    -0.491 OA
ATOM     17  C   LIG A   1      -1.751   7.389 132.357  0.00  0.00    +0.277 C 
ENDBRANCH   2  16
BRANCH  13  18
ATOM     18  O   LIG A   1      -8.180   5.243 134.138  0.00  0.00    -0.494 OA
ATOM     19  C   LIG A   1      -8.668   3.908 134.127  0.00  0.00    +0.277 C 
ENDBRANCH  13  18
TORSDOF 3
ENDMDL
MODEL 9
REMARK VINA RESULT:      -5.6      7.031      9.121
REMARK  Name = NuBBE_599
REMARK  6 active torsions:
REMARK  status: ('A' for Active; 'I' for Inactive)
REMARK    1  A    between atoms: C_1  and  O_2
REMARK    2  A    between atoms: O_2  and  C_3
REMARK    3  A    between atoms: C_4  and  O_5
REMARK    4  A    between atoms: O_5  and  C_6
REMARK    5  A    between atoms: C_17  and  O_18
REMARK    6  A    between atoms: O_18  and  C_19
REMARK                            x       y       z     vdW  Elec       q    Type
REMARK                         _______ _______ _______ _____ _____    ______ ____
ROOT
ATOM      1  C   LIG A   1      -6.876   2.877 124.549  0.00  0.00    +0.188 A 
ATOM      2  C   LIG A   1      -8.005   2.243 125.121  0.00  0.00    +0.164 A 
ATOM      3  C   LIG A   1      -9.140   2.039 124.348  0.00  0.00    +0.050 A 
ATOM      4  C   LIG A   1      -9.165   2.465 123.024  0.00  0.00    +0.017 A 
ATOM      5  C   LIG A   1      -8.050   3.089 122.429  0.00  0.00    +0.047 A 
ATOM      6  C   LIG A   1      -6.875   3.289 123.197  0.00  0.00    +0.123 A 
ATOM      7  N   LIG A   1      -5.780   3.841 122.672  0.00  0.00    -0.208 NA
ATOM      8  C   LIG A   1      -5.852   4.254 121.404  0.00  0.00    +0.231 A 
ATOM      9  O   LIG A   1      -4.808   4.877 120.796  0.00  0.00    -0.445 OA
ATOM     10  C   LIG A   1      -5.213   5.197 119.545  0.00  0.00    +0.198 A 
ATOM     11  C   LIG A   1      -6.508   4.778 119.339  0.00  0.00    +0.055 A 
ATOM     12  C   LIG A   1      -6.932   4.148 120.545  0.00  0.00    +0.082 A 
ATOM     13  C   LIG A   1      -8.074   3.513 121.068  0.00  0.00    +0.142 A 
ENDROOT
BRANCH   1  15
ATOM     14  C   LIG A   1      -5.577   4.258 126.036  0.00  0.00    +0.277 C 
ATOM     15  O   LIG A   1      -5.797   2.997 125.411  0.00  0.00    -0.489 OA
ENDBRANCH   1  15
BRANCH   2  16
ATOM     16  O   LIG A   1      -7.905   1.880 126.444  0.00  0.00    -0.491 OA
ATOM     17  C   LIG A   1      -8.179   0.525 126.776  0.00  0.00    +0.277 C 
ENDBRANCH   2  16
BRANCH  13  18
ATOM     18  O   LIG A   1      -9.275   3.341 120.390  0.00  0.00    -0.494 OA
ATOM     19  C   LIG A   1      -9.516   4.256 119.329  0.00  0.00    +0.277 C 
ENDBRANCH  13  18
TORSDOF 3
ENDMDL
