MODEL 1
REMARK VINA RESULT:      -6.4      0.000      0.000
REMARK  Name = NuBBE_1022
REMARK  10 active torsions:
REMARK  status: ('A' for Active; 'I' for Inactive)
REMARK    1  A    between atoms: C_1  and  C_2
REMARK    2  A    between atoms: C_2  and  C_3
REMARK    3  A    between atoms: C_7  and  O_8
REMARK    4  A    between atoms: O_8  and  C_9
REMARK    5  A    between atoms: C_10  and  C_11
REMARK    6  A    between atoms: C_11  and  C_12
REMARK    7  A    between atoms: C_12  and  C_13
REMARK    8  A    between atoms: C_13  and  O_14
REMARK    9  A    between atoms: C_18  and  O_19
REMARK   10  A    between atoms: O_19  and  C_20
REMARK                            x       y       z     vdW  Elec       q    Type
REMARK                         _______ _______ _______ _____ _____    ______ ____
ROOT
ATOM      1  C   LIG A   1      -8.228  -1.655 129.997  0.00  0.00    +0.060 C 
ATOM      2  C   LIG A   1      -7.525  -2.760 129.194  0.00  0.00    +0.124 C 
ATOM      3  C   LIG A   1      -6.761  -3.670 130.171  0.00  0.00    +0.060 C 
ATOM      4  O   LIG A   1      -6.514  -2.153 128.361  0.00  0.00    -0.478 OA
ATOM      5  C   LIG A   1      -6.924  -1.697 127.128  0.00  0.00    +0.174 A 
ATOM      6  C   LIG A   1      -8.035  -2.248 126.437  0.00  0.00    +0.062 A 
ATOM      7  C   LIG A   1      -8.443  -1.718 125.164  0.00  0.00    +0.134 A 
ATOM      8  C   LIG A   1      -7.712  -0.650 124.613  0.00  0.00    -0.001 A 
ATOM      9  C   LIG A   1      -6.603  -0.171 125.331  0.00  0.00    +0.056 A 
ATOM     10  C   LIG A   1      -6.166  -0.689 126.542  0.00  0.00    +0.163 A 
ATOM     11  C   LIG A   1      -8.667  -3.419 127.073  0.00  0.00    +0.015 C 
ATOM     12  C   LIG A   1      -8.475  -3.617 128.386  0.00  0.00    +0.020 C 
ENDROOT
BRANCH   7  13
ATOM     13  O   LIG A   1      -9.592  -2.245 124.605  0.00  0.00    -0.494 OA
ATOM     14  C   LIG A   1      -9.470  -3.137 123.496  0.00  0.00    +0.277 C 
ENDBRANCH   7  13
BRANCH  10  15
ATOM     15  O   LIG A   1      -5.049  -0.189 127.168  0.00  0.00    -0.491 OA
ATOM     16  C   LIG A   1      -4.932   1.241 127.121  0.00  0.00    +0.277 C 
ENDBRANCH  10  15
BRANCH   8  17
ATOM     17  C   LIG A   1      -7.981   0.115 123.336  0.00  0.00    +0.050 C 
BRANCH  17  18
ATOM     18  C   LIG A   1      -8.907   1.320 123.462  0.00  0.00    +0.125 C 
BRANCH  18  19
ATOM     19  C   LIG A   1     -10.329   0.932 123.282  0.00  0.00    +0.305 C 
ATOM     20  O   LIG A   1     -10.800   0.262 122.334  0.00  0.00    -0.251 OA
BRANCH  19  21
ATOM     21  O   LIG A   1     -11.144   1.467 124.184  0.00  0.00    -0.481 OA
ATOM     22  H   LIG A   1     -11.967   0.935 124.124  0.00  0.00    +0.295 HD
ENDBRANCH  19  21
ENDBRANCH  18  19
ENDBRANCH  17  18
ENDBRANCH   8  17
TORSDOF 6
ENDMDL
MODEL 2
REMARK VINA RESULT:      -6.2      2.795      4.400
REMARK  Name = NuBBE_1022
REMARK  10 active torsions:
REMARK  status: ('A' for Active; 'I' for Inactive)
REMARK    1  A    between atoms: C_1  and  C_2
REMARK    2  A    between atoms: C_2  and  C_3
REMARK    3  A    between atoms: C_7  and  O_8
REMARK    4  A    between atoms: O_8  and  C_9
REMARK    5  A    between atoms: C_10  and  C_11
REMARK    6  A    between atoms: C_11  and  C_12
REMARK    7  A    between atoms: C_12  and  C_13
REMARK    8  A    between atoms: C_13  and  O_14
REMARK    9  A    between atoms: C_18  and  O_19
REMARK   10  A    between atoms: O_19  and  C_20
REMARK                            x       y       z     vdW  Elec       q    Type
REMARK                         _______ _______ _______ _____ _____    ______ ____
ROOT
ATOM      1  C   LIG A   1      -7.139  -3.854 124.457  0.00  0.00    +0.060 C 
ATOM      2  C   LIG A   1      -5.983  -2.965 123.974  0.00  0.00    +0.124 C 
ATOM      3  C   LIG A   1      -4.840  -3.866 123.479  0.00  0.00    +0.060 C 
ATOM      4  O   LIG A   1      -5.447  -2.249 125.107  0.00  0.00    -0.478 OA
ATOM      5  C   LIG A   1      -6.058  -1.058 125.429  0.00  0.00    +0.174 A 
ATOM      6  C   LIG A   1      -6.740  -0.263 124.472  0.00  0.00    +0.062 A 
ATOM      7  C   LIG A   1      -7.389   0.960 124.863  0.00  0.00    +0.134 A 
ATOM      8  C   LIG A   1      -7.324   1.356 126.211  0.00  0.00    -0.001 A 
ATOM      9  C   LIG A   1      -6.606   0.542 127.103  0.00  0.00    +0.056 A 
ATOM     10  C   LIG A   1      -5.940  -0.621 126.745  0.00  0.00    +0.163 A 
ATOM     11  C   LIG A   1      -6.666  -0.736 123.078  0.00  0.00    +0.015 C 
ATOM     12  C   LIG A   1      -6.372  -2.026 122.852  0.00  0.00    +0.020 C 
ENDROOT
BRANCH   7  13
ATOM     13  O   LIG A   1      -8.114   1.624 123.891  0.00  0.00    -0.494 OA
ATOM     14  C   LIG A   1      -9.520   1.388 123.800  0.00  0.00    +0.277 C 
ENDBRANCH   7  13
BRANCH  10  15
ATOM     15  O   LIG A   1      -5.228  -1.348 127.669  0.00  0.00    -0.491 OA
ATOM     16  C   LIG A   1      -6.036  -2.015 128.650  0.00  0.00    +0.277 C 
ENDBRANCH  10  15
BRANCH   8  17
ATOM     17  C   LIG A   1      -7.975   2.550 126.873  0.00  0.00    +0.050 C 
BRANCH  17  18
ATOM     18  C   LIG A   1      -7.299   3.896 126.634  0.00  0.00    +0.125 C 
BRANCH  18  19
ATOM     19  C   LIG A   1      -8.113   4.761 125.742  0.00  0.00    +0.305 C 
ATOM     20  O   LIG A   1      -8.958   5.611 126.103  0.00  0.00    -0.251 OA
BRANCH  19  21
ATOM     21  O   LIG A   1      -7.963   4.482 124.452  0.00  0.00    -0.481 OA
ATOM     22  H   LIG A   1      -7.098   4.020 124.395  0.00  0.00    +0.295 HD
ENDBRANCH  19  21
ENDBRANCH  18  19
ENDBRANCH  17  18
ENDBRANCH   8  17
TORSDOF 6
ENDMDL
MODEL 3
REMARK VINA RESULT:      -6.1      2.846      5.347
REMARK  Name = NuBBE_1022
REMARK  10 active torsions:
REMARK  status: ('A' for Active; 'I' for Inactive)
REMARK    1  A    between atoms: C_1  and  C_2
REMARK    2  A    between atoms: C_2  and  C_3
REMARK    3  A    between atoms: C_7  and  O_8
REMARK    4  A    between atoms: O_8  and  C_9
REMARK    5  A    between atoms: C_10  and  C_11
REMARK    6  A    between atoms: C_11  and  C_12
REMARK    7  A    between atoms: C_12  and  C_13
REMARK    8  A    between atoms: C_13  and  O_14
REMARK    9  A    between atoms: C_18  and  O_19
REMARK   10  A    between atoms: O_19  and  C_20
REMARK                            x       y       z     vdW  Elec       q    Type
REMARK                         _______ _______ _______ _____ _____    ______ ____
ROOT
ATOM      1  C   LIG A   1      -7.459  -2.094 123.286  0.00  0.00    +0.060 C 
ATOM      2  C   LIG A   1      -8.648  -2.543 124.150  0.00  0.00    +0.124 C 
ATOM      3  C   LIG A   1      -9.610  -3.367 123.278  0.00  0.00    +0.060 C 
ATOM      4  O   LIG A   1      -9.395  -1.374 124.550  0.00  0.00    -0.478 OA
ATOM      5  C   LIG A   1      -8.971  -0.734 125.694  0.00  0.00    +0.174 A 
ATOM      6  C   LIG A   1      -8.280  -1.404 126.737  0.00  0.00    +0.062 A 
ATOM      7  C   LIG A   1      -7.831  -0.685 127.899  0.00  0.00    +0.134 A 
ATOM      8  C   LIG A   1      -8.101   0.694 127.985  0.00  0.00    -0.001 A 
ATOM      9  C   LIG A   1      -8.817   1.290 126.934  0.00  0.00    +0.056 A 
ATOM     10  C   LIG A   1      -9.294   0.614 125.821  0.00  0.00    +0.163 A 
ATOM     11  C   LIG A   1      -8.134  -2.862 126.573  0.00  0.00    +0.015 C 
ATOM     12  C   LIG A   1      -8.243  -3.384 125.342  0.00  0.00    +0.020 C 
ENDROOT
BRANCH   7  13
ATOM     13  O   LIG A   1      -7.081  -1.390 128.822  0.00  0.00    -0.494 OA
ATOM     14  C   LIG A   1      -7.732  -1.909 129.983  0.00  0.00    +0.277 C 
ENDBRANCH   7  13
BRANCH  10  15
ATOM     15  O   LIG A   1     -10.018   1.262 124.849  0.00  0.00    -0.491 OA
ATOM     16  C   LIG A   1      -9.250   2.161 124.036  0.00  0.00    +0.277 C 
ENDBRANCH  10  15
BRANCH   8  17
ATOM     17  C   LIG A   1      -7.679   1.669 129.061  0.00  0.00    +0.050 C 
BRANCH  17  18
ATOM     18  C   LIG A   1      -8.549   1.700 130.312  0.00  0.00    +0.125 C 
BRANCH  18  19
ATOM     19  C   LIG A   1      -9.500   2.841 130.283  0.00  0.00    +0.305 C 
ATOM     20  O   LIG A   1      -9.551   3.740 129.414  0.00  0.00    -0.251 OA
BRANCH  19  21
ATOM     21  O   LIG A   1     -10.269   2.918 131.363  0.00  0.00    -0.481 OA
ATOM     22  H   LIG A   1     -10.260   2.011 131.741  0.00  0.00    +0.295 HD
ENDBRANCH  19  21
ENDBRANCH  18  19
ENDBRANCH  17  18
ENDBRANCH   8  17
TORSDOF 6
ENDMDL
MODEL 4
REMARK VINA RESULT:      -6.1      2.335      5.555
REMARK  Name = NuBBE_1022
REMARK  10 active torsions:
REMARK  status: ('A' for Active; 'I' for Inactive)
REMARK    1  A    between atoms: C_1  and  C_2
REMARK    2  A    between atoms: C_2  and  C_3
REMARK    3  A    between atoms: C_7  and  O_8
REMARK    4  A    between atoms: O_8  and  C_9
REMARK    5  A    between atoms: C_10  and  C_11
REMARK    6  A    between atoms: C_11  and  C_12
REMARK    7  A    between atoms: C_12  and  C_13
REMARK    8  A    between atoms: C_13  and  O_14
REMARK    9  A    between atoms: C_18  and  O_19
REMARK   10  A    between atoms: O_19  and  C_20
REMARK                            x       y       z     vdW  Elec       q    Type
REMARK                         _______ _______ _______ _____ _____    ______ ____
ROOT
ATOM      1  C   LIG A   1      -7.506  -2.153 123.258  0.00  0.00    +0.060 C 
ATOM      2  C   LIG A   1      -8.678  -2.604 124.143  0.00  0.00    +0.124 C 
ATOM      3  C   LIG A   1      -9.671  -3.399 123.278  0.00  0.00    +0.060 C 
ATOM      4  O   LIG A   1      -9.400  -1.434 124.584  0.00  0.00    -0.478 OA
ATOM      5  C   LIG A   1      -8.940  -0.822 125.729  0.00  0.00    +0.174 A 
ATOM      6  C   LIG A   1      -8.232  -1.521 126.741  0.00  0.00    +0.062 A 
ATOM      7  C   LIG A   1      -7.746  -0.830 127.905  0.00  0.00    +0.134 A 
ATOM      8  C   LIG A   1      -7.997   0.549 128.025  0.00  0.00    -0.001 A 
ATOM      9  C   LIG A   1      -8.731   1.175 127.004  0.00  0.00    +0.056 A 
ATOM     10  C   LIG A   1      -9.243   0.526 125.890  0.00  0.00    +0.163 A 
ATOM     11  C   LIG A   1      -8.108  -2.977 126.545  0.00  0.00    +0.015 C 
ATOM     12  C   LIG A   1      -8.255  -3.473 125.307  0.00  0.00    +0.020 C 
ENDROOT
BRANCH   7  13
ATOM     13  O   LIG A   1      -6.983  -1.563 128.795  0.00  0.00    -0.494 OA
ATOM     14  C   LIG A   1      -5.560  -1.518 128.678  0.00  0.00    +0.277 C 
ENDBRANCH   7  13
BRANCH  10  15
ATOM     15  O   LIG A   1      -9.983   1.202 124.949  0.00  0.00    -0.491 OA
ATOM     16  C   LIG A   1      -9.242   2.176 124.198  0.00  0.00    +0.277 C 
ENDBRANCH  10  15
BRANCH   8  17
ATOM     17  C   LIG A   1      -7.536   1.497 129.109  0.00  0.00    +0.050 C 
BRANCH  17  18
ATOM     18  C   LIG A   1      -8.525   1.747 130.242  0.00  0.00    +0.125 C 
BRANCH  18  19
ATOM     19  C   LIG A   1      -8.581   0.593 131.176  0.00  0.00    +0.305 C 
ATOM     20  O   LIG A   1      -9.586   0.206 131.816  0.00  0.00    -0.251 OA
BRANCH  19  21
ATOM     21  O   LIG A   1      -7.399   0.028 131.392  0.00  0.00    -0.481 OA
ATOM     22  H   LIG A   1      -7.529  -0.918 131.163  0.00  0.00    +0.295 HD
ENDBRANCH  19  21
ENDBRANCH  18  19
ENDBRANCH  17  18
ENDBRANCH   8  17
TORSDOF 6
ENDMDL
MODEL 5
REMARK VINA RESULT:      -5.7      2.152      3.656
REMARK  Name = NuBBE_1022
REMARK  10 active torsions:
REMARK  status: ('A' for Active; 'I' for Inactive)
REMARK    1  A    between atoms: C_1  and  C_2
REMARK    2  A    between atoms: C_2  and  C_3
REMARK    3  A    between atoms: C_7  and  O_8
REMARK    4  A    between atoms: O_8  and  C_9
REMARK    5  A    between atoms: C_10  and  C_11
REMARK    6  A    between atoms: C_11  and  C_12
REMARK    7  A    between atoms: C_12  and  C_13
REMARK    8  A    between atoms: C_13  and  O_14
REMARK    9  A    between atoms: C_18  and  O_19
REMARK   10  A    between atoms: O_19  and  C_20
REMARK                            x       y       z     vdW  Elec       q    Type
REMARK                         _______ _______ _______ _____ _____    ______ ____
ROOT
ATOM      1  C   LIG A   1      -5.262  -2.159 127.917  0.00  0.00    +0.060 C 
ATOM      2  C   LIG A   1      -6.647  -2.209 128.581  0.00  0.00    +0.124 C 
ATOM      3  C   LIG A   1      -6.694  -3.415 129.533  0.00  0.00    +0.060 C 
ATOM      4  O   LIG A   1      -7.636  -2.480 127.565  0.00  0.00    -0.478 OA
ATOM      5  C   LIG A   1      -8.141  -1.390 126.891  0.00  0.00    +0.174 A 
ATOM      6  C   LIG A   1      -8.190  -0.091 127.461  0.00  0.00    +0.062 A 
ATOM      7  C   LIG A   1      -8.700   1.022 126.706  0.00  0.00    +0.134 A 
ATOM      8  C   LIG A   1      -9.159   0.794 125.395  0.00  0.00    -0.001 A 
ATOM      9  C   LIG A   1      -9.113  -0.520 124.902  0.00  0.00    +0.056 A 
ATOM     10  C   LIG A   1      -8.662  -1.617 125.621  0.00  0.00    +0.163 A 
ATOM     11  C   LIG A   1      -7.763   0.006 128.869  0.00  0.00    +0.015 C 
ATOM     12  C   LIG A   1      -6.982  -0.962 129.371  0.00  0.00    +0.020 C 
ENDROOT
BRANCH   7  13
ATOM     13  O   LIG A   1      -8.622   2.269 127.297  0.00  0.00    -0.494 OA
ATOM     14  C   LIG A   1      -7.486   3.090 127.023  0.00  0.00    +0.277 C 
ENDBRANCH   7  13
BRANCH  10  15
ATOM     15  O   LIG A   1      -8.680  -2.881 125.081  0.00  0.00    -0.491 OA
ATOM     16  C   LIG A   1      -9.322  -2.969 123.800  0.00  0.00    +0.277 C 
ENDBRANCH  10  15
BRANCH   8  17
ATOM     17  C   LIG A   1      -9.670   1.801 124.390  0.00  0.00    +0.050 C 
BRANCH  17  18
ATOM     18  C   LIG A   1      -9.141   1.652 122.968  0.00  0.00    +0.125 C 
BRANCH  18  19
ATOM     19  C   LIG A   1      -8.756   2.967 122.393  0.00  0.00    +0.305 C 
ATOM     20  O   LIG A   1      -8.887   3.320 121.199  0.00  0.00    -0.251 OA
BRANCH  19  21
ATOM     21  O   LIG A   1      -8.121   3.756 123.252  0.00  0.00    -0.481 OA
ATOM     22  H   LIG A   1      -8.256   4.664 122.903  0.00  0.00    +0.295 HD
ENDBRANCH  19  21
ENDBRANCH  18  19
ENDBRANCH  17  18
ENDBRANCH   8  17
TORSDOF 6
ENDMDL
MODEL 6
REMARK VINA RESULT:      -5.7      1.925      5.581
REMARK  Name = NuBBE_1022
REMARK  10 active torsions:
REMARK  status: ('A' for Active; 'I' for Inactive)
REMARK    1  A    between atoms: C_1  and  C_2
REMARK    2  A    between atoms: C_2  and  C_3
REMARK    3  A    between atoms: C_7  and  O_8
REMARK    4  A    between atoms: O_8  and  C_9
REMARK    5  A    between atoms: C_10  and  C_11
REMARK    6  A    between atoms: C_11  and  C_12
REMARK    7  A    between atoms: C_12  and  C_13
REMARK    8  A    between atoms: C_13  and  O_14
REMARK    9  A    between atoms: C_18  and  O_19
REMARK   10  A    between atoms: O_19  and  C_20
REMARK                            x       y       z     vdW  Elec       q    Type
REMARK                         _______ _______ _______ _____ _____    ______ ____
ROOT
ATOM      1  C   LIG A   1      -7.527  -2.175 123.241  0.00  0.00    +0.060 C 
ATOM      2  C   LIG A   1      -8.697  -2.603 124.140  0.00  0.00    +0.124 C 
ATOM      3  C   LIG A   1      -9.713  -3.384 123.288  0.00  0.00    +0.060 C 
ATOM      4  O   LIG A   1      -9.396  -1.420 124.583  0.00  0.00    -0.478 OA
ATOM      5  C   LIG A   1      -8.914  -0.812 125.721  0.00  0.00    +0.174 A 
ATOM      6  C   LIG A   1      -8.207  -1.519 126.729  0.00  0.00    +0.062 A 
ATOM      7  C   LIG A   1      -7.698  -0.832 127.886  0.00  0.00    +0.134 A 
ATOM      8  C   LIG A   1      -7.924   0.551 128.003  0.00  0.00    -0.001 A 
ATOM      9  C   LIG A   1      -8.658   1.186 126.987  0.00  0.00    +0.056 A 
ATOM     10  C   LIG A   1      -9.192   0.542 125.881  0.00  0.00    +0.163 A 
ATOM     11  C   LIG A   1      -8.110  -2.977 126.537  0.00  0.00    +0.015 C 
ATOM     12  C   LIG A   1      -8.277  -3.475 125.303  0.00  0.00    +0.020 C 
ENDROOT
BRANCH   7  13
ATOM     13  O   LIG A   1      -6.938  -1.574 128.771  0.00  0.00    -0.494 OA
ATOM     14  C   LIG A   1      -7.534  -2.006 129.995  0.00  0.00    +0.277 C 
ENDBRANCH   7  13
BRANCH  10  15
ATOM     15  O   LIG A   1      -9.931   1.227 124.945  0.00  0.00    -0.491 OA
ATOM     16  C   LIG A   1      -9.184   2.194 124.192  0.00  0.00    +0.277 C 
ENDBRANCH  10  15
BRANCH   8  17
ATOM     17  C   LIG A   1      -7.437   1.496 129.078  0.00  0.00    +0.050 C 
BRANCH  17  18
ATOM     18  C   LIG A   1      -6.090   2.162 128.821  0.00  0.00    +0.125 C 
BRANCH  18  19
ATOM     19  C   LIG A   1      -4.972   1.357 129.377  0.00  0.00    +0.305 C 
ATOM     20  O   LIG A   1      -5.020   0.622 130.389  0.00  0.00    -0.251 OA
BRANCH  19  21
ATOM     21  O   LIG A   1      -3.813   1.563 128.762  0.00  0.00    -0.481 OA
ATOM     22  H   LIG A   1      -3.291   0.748 128.932  0.00  0.00    +0.295 HD
ENDBRANCH  19  21
ENDBRANCH  18  19
ENDBRANCH  17  18
ENDBRANCH   8  17
TORSDOF 6
ENDMDL
MODEL 7
REMARK VINA RESULT:      -5.7      2.480      5.390
REMARK  Name = NuBBE_1022
REMARK  10 active torsions:
REMARK  status: ('A' for Active; 'I' for Inactive)
REMARK    1  A    between atoms: C_1  and  C_2
REMARK    2  A    between atoms: C_2  and  C_3
REMARK    3  A    between atoms: C_7  and  O_8
REMARK    4  A    between atoms: O_8  and  C_9
REMARK    5  A    between atoms: C_10  and  C_11
REMARK    6  A    between atoms: C_11  and  C_12
REMARK    7  A    between atoms: C_12  and  C_13
REMARK    8  A    between atoms: C_13  and  O_14
REMARK    9  A    between atoms: C_18  and  O_19
REMARK   10  A    between atoms: O_19  and  C_20
REMARK                            x       y       z     vdW  Elec       q    Type
REMARK                         _______ _______ _______ _____ _____    ______ ____
ROOT
ATOM      1  C   LIG A   1      -2.162   3.030 126.647  0.00  0.00    +0.060 C 
ATOM      2  C   LIG A   1      -3.456   3.470 127.347  0.00  0.00    +0.124 C 
ATOM      3  C   LIG A   1      -3.109   3.963 128.762  0.00  0.00    +0.060 C 
ATOM      4  O   LIG A   1      -4.295   2.311 127.538  0.00  0.00    -0.478 OA
ATOM      5  C   LIG A   1      -5.127   1.974 126.493  0.00  0.00    +0.174 A 
ATOM      6  C   LIG A   1      -5.605   2.927 125.555  0.00  0.00    +0.062 A 
ATOM      7  C   LIG A   1      -6.449   2.522 124.463  0.00  0.00    +0.134 A 
ATOM      8  C   LIG A   1      -6.799   1.164 124.350  0.00  0.00    -0.001 A 
ATOM      9  C   LIG A   1      -6.320   0.277 125.328  0.00  0.00    +0.056 A 
ATOM     10  C   LIG A   1      -5.537   0.647 126.412  0.00  0.00    +0.163 A 
ATOM     11  C   LIG A   1      -5.242   4.330 125.828  0.00  0.00    +0.015 C 
ATOM     12  C   LIG A   1      -4.188   4.578 126.621  0.00  0.00    +0.020 C 
ENDROOT
BRANCH   7  13
ATOM     13  O   LIG A   1      -6.790   3.493 123.540  0.00  0.00    -0.494 OA
ATOM     14  C   LIG A   1      -5.993   3.632 122.363  0.00  0.00    +0.277 C 
ENDBRANCH   7  13
BRANCH  10  15
ATOM     15  O   LIG A   1      -5.135  -0.275 127.349  0.00  0.00    -0.491 OA
ATOM     16  C   LIG A   1      -5.555  -1.620 127.076  0.00  0.00    +0.277 C 
ENDBRANCH  10  15
BRANCH   8  17
ATOM     17  C   LIG A   1      -7.608   0.489 123.265  0.00  0.00    +0.050 C 
BRANCH  17  18
ATOM     18  C   LIG A   1      -8.026  -0.951 123.542  0.00  0.00    +0.125 C 
BRANCH  18  19
ATOM     19  C   LIG A   1      -9.379  -1.237 122.998  0.00  0.00    +0.305 C 
ATOM     20  O   LIG A   1     -10.137  -0.418 122.431  0.00  0.00    -0.251 OA
BRANCH  19  21
ATOM     21  O   LIG A   1      -9.810  -2.464 123.266  0.00  0.00    -0.481 OA
ATOM     22  H   LIG A   1     -10.787  -2.379 123.321  0.00  0.00    +0.295 HD
ENDBRANCH  19  21
ENDBRANCH  18  19
ENDBRANCH  17  18
ENDBRANCH   8  17
TORSDOF 6
ENDMDL
MODEL 8
REMARK VINA RESULT:      -5.6      8.363     10.375
REMARK  Name = NuBBE_1022
REMARK  10 active torsions:
REMARK  status: ('A' for Active; 'I' for Inactive)
REMARK    1  A    between atoms: C_1  and  C_2
REMARK    2  A    between atoms: C_2  and  C_3
REMARK    3  A    between atoms: C_7  and  O_8
REMARK    4  A    between atoms: O_8  and  C_9
REMARK    5  A    between atoms: C_10  and  C_11
REMARK    6  A    between atoms: C_11  and  C_12
REMARK    7  A    between atoms: C_12  and  C_13
REMARK    8  A    between atoms: C_13  and  O_14
REMARK    9  A    between atoms: C_18  and  O_19
REMARK   10  A    between atoms: O_19  and  C_20
REMARK                            x       y       z     vdW  Elec       q    Type
REMARK                         _______ _______ _______ _____ _____    ______ ____
ROOT
ATOM      1  C   LIG A   1      -3.355   8.246 130.828  0.00  0.00    +0.060 C 
ATOM      2  C   LIG A   1      -3.734   7.013 129.993  0.00  0.00    +0.124 C 
ATOM      3  C   LIG A   1      -3.324   7.263 128.531  0.00  0.00    +0.060 C 
ATOM      4  O   LIG A   1      -5.172   6.893 129.974  0.00  0.00    -0.478 OA
ATOM      5  C   LIG A   1      -5.746   6.201 131.018  0.00  0.00    +0.174 A 
ATOM      6  C   LIG A   1      -5.057   5.191 131.739  0.00  0.00    +0.062 A 
ATOM      7  C   LIG A   1      -5.689   4.517 132.842  0.00  0.00    +0.134 A 
ATOM      8  C   LIG A   1      -7.007   4.872 133.183  0.00  0.00    -0.001 A 
ATOM      9  C   LIG A   1      -7.644   5.856 132.410  0.00  0.00    +0.056 A 
ATOM     10  C   LIG A   1      -7.072   6.495 131.319  0.00  0.00    +0.163 A 
ATOM     11  C   LIG A   1      -3.716   4.847 131.234  0.00  0.00    +0.015 C 
ATOM     12  C   LIG A   1      -3.071   5.738 130.465  0.00  0.00    +0.020 C 
ENDROOT
BRANCH   7  13
ATOM     13  O   LIG A   1      -4.916   3.617 133.552  0.00  0.00    -0.494 OA
ATOM     14  C   LIG A   1      -4.231   4.072 134.719  0.00  0.00    +0.277 C 
ENDBRANCH   7  13
BRANCH  10  15
ATOM     15  O   LIG A   1      -7.773   7.424 130.589  0.00  0.00    -0.491 OA
ATOM     16  C   LIG A   1      -9.171   7.132 130.441  0.00  0.00    +0.277 C 
ENDBRANCH  10  15
BRANCH   8  17
ATOM     17  C   LIG A   1      -7.851   4.362 134.329  0.00  0.00    +0.050 C 
BRANCH  17  18
ATOM     18  C   LIG A   1      -9.250   3.878 133.964  0.00  0.00    +0.125 C 
BRANCH  18  19
ATOM     19  C   LIG A   1      -9.198   2.646 133.135  0.00  0.00    +0.305 C 
ATOM     20  O   LIG A   1      -8.313   1.762 133.176  0.00  0.00    -0.251 OA
BRANCH  19  21
ATOM     21  O   LIG A   1     -10.149   2.591 132.209  0.00  0.00    -0.481 OA
ATOM     22  H   LIG A   1     -10.820   1.976 132.577  0.00  0.00    +0.295 HD
ENDBRANCH  19  21
ENDBRANCH  18  19
ENDBRANCH  17  18
ENDBRANCH   8  17
TORSDOF 6
ENDMDL
MODEL 9
REMARK VINA RESULT:      -5.5      3.948      4.977
REMARK  Name = NuBBE_1022
REMARK  10 active torsions:
REMARK  status: ('A' for Active; 'I' for Inactive)
REMARK    1  A    between atoms: C_1  and  C_2
REMARK    2  A    between atoms: C_2  and  C_3
REMARK    3  A    between atoms: C_7  and  O_8
REMARK    4  A    between atoms: O_8  and  C_9
REMARK    5  A    between atoms: C_10  and  C_11
REMARK    6  A    between atoms: C_11  and  C_12
REMARK    7  A    between atoms: C_12  and  C_13
REMARK    8  A    between atoms: C_13  and  O_14
REMARK    9  A    between atoms: C_18  and  O_19
REMARK   10  A    between atoms: O_19  and  C_20
REMARK                            x       y       z     vdW  Elec       q    Type
REMARK                         _______ _______ _______ _____ _____    ______ ____
ROOT
ATOM      1  C   LIG A   1      -7.570   1.186 128.605  0.00  0.00    +0.060 C 
ATOM      2  C   LIG A   1      -6.624   0.293 127.787  0.00  0.00    +0.124 C 
ATOM      3  C   LIG A   1      -6.109  -0.839 128.691  0.00  0.00    +0.060 C 
ATOM      4  O   LIG A   1      -5.457   1.064 127.430  0.00  0.00    -0.478 OA
ATOM      5  C   LIG A   1      -5.541   1.811 126.276  0.00  0.00    +0.174 A 
ATOM      6  C   LIG A   1      -6.398   1.464 125.199  0.00  0.00    +0.062 A 
ATOM      7  C   LIG A   1      -6.472   2.293 124.026  0.00  0.00    +0.134 A 
ATOM      8  C   LIG A   1      -5.672   3.449 123.964  0.00  0.00    -0.001 A 
ATOM      9  C   LIG A   1      -4.822   3.719 125.050  0.00  0.00    +0.056 A 
ATOM     10  C   LIG A   1      -4.703   2.917 126.176  0.00  0.00    +0.163 A 
ATOM     11  C   LIG A   1      -7.120   0.187 125.342  0.00  0.00    +0.015 C 
ATOM     12  C   LIG A   1      -7.280  -0.326 126.572  0.00  0.00    +0.020 C 
ENDROOT
BRANCH   7  13
ATOM     13  O   LIG A   1      -7.402   1.939 123.066  0.00  0.00    -0.494 OA
ATOM     14  C   LIG A   1      -8.564   2.753 122.901  0.00  0.00    +0.277 C 
ENDBRANCH   7  13
BRANCH  10  15
ATOM     15  O   LIG A   1      -3.821   3.229 127.183  0.00  0.00    -0.491 OA
ATOM     16  C   LIG A   1      -2.438   3.097 126.824  0.00  0.00    +0.277 C 
ENDBRANCH  10  15
BRANCH   8  17
ATOM     17  C   LIG A   1      -5.624   4.503 122.881  0.00  0.00    +0.050 C 
BRANCH  17  18
ATOM     18  C   LIG A   1      -5.112   4.040 121.522  0.00  0.00    +0.125 C 
BRANCH  18  19
ATOM     19  C   LIG A   1      -4.944   5.184 120.588  0.00  0.00    +0.305 C 
ATOM     20  O   LIG A   1      -5.364   5.246 119.410  0.00  0.00    -0.251 OA
BRANCH  19  21
ATOM     21  O   LIG A   1      -4.177   6.154 121.071  0.00  0.00    -0.481 OA
ATOM     22  H   LIG A   1      -4.190   6.851 120.379  0.00  0.00    +0.295 HD
ENDBRANCH  19  21
ENDBRANCH  18  19
ENDBRANCH  17  18
ENDBRANCH   8  17
TORSDOF 6
ENDMDL
