MODEL 1
REMARK VINA RESULT:      -8.1      0.000      0.000
REMARK  Name = NuBBE_1104
REMARK  15 active torsions:
REMARK  status: ('A' for Active; 'I' for Inactive)
REMARK    1  A    between atoms: C_1  and  C_2
REMARK    2  A    between atoms: C_7  and  C_9
REMARK    3  A    between atoms: C_18  and  C_19
REMARK    4  A    between atoms: C_18  and  C_33
REMARK    5  A    between atoms: C_19  and  C_21
REMARK    6  A    between atoms: C_19  and  C_26
REMARK    7  A    between atoms: C_21  and  C_22
REMARK    8  A    between atoms: C_22  and  O_23
REMARK    9  A    between atoms: O_23  and  C_24
REMARK   10  A    between atoms: C_26  and  C_27
REMARK   11  A    between atoms: C_26  and  C_31
REMARK   12  A    between atoms: C_26  and  C_32
REMARK   13  A    between atoms: C_27  and  O_28
REMARK   14  A    between atoms: O_28  and  C_29
REMARK   15  A    between atoms: C_34  and  C_35
REMARK                            x       y       z     vdW  Elec       q    Type
REMARK                         _______ _______ _______ _____ _____    ______ ____
ROOT
ATOM      1  C   LIG A   1      -8.309  -1.626 131.428  0.00  0.00    +0.020 C 
ATOM      2  C   LIG A   1      -6.997  -2.251 130.873  0.00  0.00    +0.032 C 
ATOM      3  C   LIG A   1      -6.156  -1.558 129.781  0.00  0.00    -0.042 C 
ATOM      4  C   LIG A   1      -4.815  -1.509 129.888  0.00  0.00    +0.092 C 
ATOM      5  C   LIG A   1      -4.077  -2.260 130.922  0.00  0.00    +0.333 C 
ATOM      6  O   LIG A   1      -4.801  -3.075 131.721  0.00  0.00    -0.453 OA
ATOM      7  C   LIG A   1      -6.135  -2.688 132.092  0.00  0.00    +0.220 C 
ATOM      8  O   LIG A   1      -2.848  -2.253 130.938  0.00  0.00    -0.246 OA
ATOM      9  C   LIG A   1      -7.461  -3.345 129.921  0.00  0.00    +0.016 C 
ATOM     10  C   LIG A   1      -7.944  -2.535 128.680  0.00  0.00    +0.017 C 
ATOM     11  C   LIG A   1      -7.002  -1.282 128.502  0.00  0.00    +0.027 C 
ATOM     12  C   LIG A   1      -6.547  -1.316 126.950  0.00  0.00    +0.048 C 
ATOM     13  C   LIG A   1      -5.438  -2.343 126.692  0.00  0.00    +0.021 C 
ATOM     14  C   LIG A   1      -7.305   0.220 128.622  0.00  0.00    -0.058 C 
ATOM     15  C   LIG A   1      -8.055   0.905 129.710  0.00  0.00    +0.040 C 
ATOM     16  C   LIG A   1      -6.608   0.975 127.725  0.00  0.00    +0.046 C 
ATOM     17  C   LIG A   1      -5.950   0.108 126.769  0.00  0.00    +0.163 C 
ATOM     18  O   LIG A   1      -5.150   0.485 125.944  0.00  0.00    -0.292 OA
ENDROOT
BRANCH   7  19
ATOM     19  C   LIG A   1      -6.089  -1.696 133.248  0.00  0.00    +0.031 A 
ATOM     20  C   LIG A   1      -6.493  -1.925 134.554  0.00  0.00    +0.202 A 
ATOM     21  O   LIG A   1      -6.313  -0.824 135.327  0.00  0.00    -0.471 OA
ATOM     22  C   LIG A   1      -5.779   0.133 134.530  0.00  0.00    +0.195 A 
ATOM     23  C   LIG A   1      -5.646  -0.336 133.244  0.00  0.00    +0.048 A 
ENDBRANCH   7  19
BRANCH  12  24
ATOM     24  C   LIG A   1      -7.820  -1.419 125.823  0.00  0.00    +0.030 C 
BRANCH  24  25
ATOM     25  C   LIG A   1      -7.814  -2.620 124.692  0.00  0.00    +0.066 C 
ATOM     26  C   LIG A   1      -8.100  -4.050 125.232  0.00  0.00    +0.023 C 
ATOM     27  C   LIG A   1      -8.999  -2.432 123.667  0.00  0.00    +0.023 C 
BRANCH  25  28
ATOM     28  C   LIG A   1      -6.505  -2.719 123.866  0.00  0.00    +0.313 C 
ATOM     29  O   LIG A   1      -5.997  -1.769 123.283  0.00  0.00    -0.250 OA
BRANCH  28  30
ATOM     30  O   LIG A   1      -5.915  -3.945 123.950  0.00  0.00    -0.468 OA
ATOM     31  C   LIG A   1      -4.541  -3.942 123.540  0.00  0.00    +0.280 C 
ENDBRANCH  28  30
ENDBRANCH  25  28
ENDBRANCH  24  25
BRANCH  24  32
ATOM     32  C   LIG A   1      -8.194  -0.057 125.096  0.00  0.00    +0.126 C 
BRANCH  32  33
ATOM     33  C   LIG A   1      -9.428   0.783 125.387  0.00  0.00    +0.307 C 
ATOM     34  O   LIG A   1     -10.541   0.279 125.530  0.00  0.00    -0.251 OA
BRANCH  33  35
ATOM     35  O   LIG A   1      -9.152   2.086 125.653  0.00  0.00    -0.468 OA
ATOM     36  C   LIG A   1      -8.706   2.819 124.498  0.00  0.00    +0.280 C 
ENDBRANCH  33  35
ENDBRANCH  32  33
ENDBRANCH  24  32
ENDBRANCH  12  24
TORSDOF 8
ENDMDL
MODEL 2
REMARK VINA RESULT:      -7.9      1.724      2.369
REMARK  Name = NuBBE_1104
REMARK  15 active torsions:
REMARK  status: ('A' for Active; 'I' for Inactive)
REMARK    1  A    between atoms: C_1  and  C_2
REMARK    2  A    between atoms: C_7  and  C_9
REMARK    3  A    between atoms: C_18  and  C_19
REMARK    4  A    between atoms: C_18  and  C_33
REMARK    5  A    between atoms: C_19  and  C_21
REMARK    6  A    between atoms: C_19  and  C_26
REMARK    7  A    between atoms: C_21  and  C_22
REMARK    8  A    between atoms: C_22  and  O_23
REMARK    9  A    between atoms: O_23  and  C_24
REMARK   10  A    between atoms: C_26  and  C_27
REMARK   11  A    between atoms: C_26  and  C_31
REMARK   12  A    between atoms: C_26  and  C_32
REMARK   13  A    between atoms: C_27  and  O_28
REMARK   14  A    between atoms: O_28  and  C_29
REMARK   15  A    between atoms: C_34  and  C_35
REMARK                            x       y       z     vdW  Elec       q    Type
REMARK                         _______ _______ _______ _____ _____    ______ ____
ROOT
ATOM      1  C   LIG A   1      -7.887  -2.112 130.672  0.00  0.00    +0.020 C 
ATOM      2  C   LIG A   1      -6.807  -2.724 129.734  0.00  0.00    +0.032 C 
ATOM      3  C   LIG A   1      -5.833  -1.846 128.922  0.00  0.00    -0.042 C 
ATOM      4  C   LIG A   1      -4.528  -2.167 128.854  0.00  0.00    +0.092 C 
ATOM      5  C   LIG A   1      -4.000  -3.444 129.373  0.00  0.00    +0.333 C 
ATOM      6  O   LIG A   1      -4.901  -4.328 129.855  0.00  0.00    -0.453 OA
ATOM      7  C   LIG A   1      -6.071  -3.838 130.532  0.00  0.00    +0.220 C 
ATOM      8  O   LIG A   1      -2.816  -3.735 129.222  0.00  0.00    -0.246 OA
ATOM      9  C   LIG A   1      -7.572  -3.152 128.489  0.00  0.00    +0.016 C 
ATOM     10  C   LIG A   1      -7.843  -1.794 127.773  0.00  0.00    +0.017 C 
ATOM     11  C   LIG A   1      -6.599  -0.850 128.000  0.00  0.00    +0.027 C 
ATOM     12  C   LIG A   1      -6.206  -0.313 126.526  0.00  0.00    +0.048 C 
ATOM     13  C   LIG A   1      -5.424  -1.356 125.717  0.00  0.00    +0.021 C 
ATOM     14  C   LIG A   1      -6.479   0.474 128.770  0.00  0.00    -0.058 C 
ATOM     15  C   LIG A   1      -6.991   0.773 130.136  0.00  0.00    +0.040 C 
ATOM     16  C   LIG A   1      -5.623   1.355 128.179  0.00  0.00    +0.046 C 
ATOM     17  C   LIG A   1      -5.247   0.862 126.870  0.00  0.00    +0.163 C 
ATOM     18  O   LIG A   1      -4.392   1.359 126.173  0.00  0.00    -0.292 OA
ENDROOT
BRANCH   7  19
ATOM     19  C   LIG A   1      -5.731  -3.490 131.977  0.00  0.00    +0.031 A 
ATOM     20  C   LIG A   1      -6.013  -4.249 133.101  0.00  0.00    +0.202 A 
ATOM     21  O   LIG A   1      -5.569  -3.642 134.231  0.00  0.00    -0.471 OA
ATOM     22  C   LIG A   1      -4.983  -2.481 133.850  0.00  0.00    +0.195 A 
ATOM     23  C   LIG A   1      -5.077  -2.324 132.486  0.00  0.00    +0.048 A 
ENDBRANCH   7  19
BRANCH  12  24
ATOM     24  C   LIG A   1      -7.482   0.388 125.644  0.00  0.00    +0.030 C 
BRANCH  24  25
ATOM     25  C   LIG A   1      -8.075  -0.384 124.312  0.00  0.00    +0.066 C 
ATOM     26  C   LIG A   1      -9.131   0.412 123.492  0.00  0.00    +0.023 C 
ATOM     27  C   LIG A   1      -6.942  -0.598 123.236  0.00  0.00    +0.023 C 
BRANCH  25  28
ATOM     28  C   LIG A   1      -8.703  -1.772 124.600  0.00  0.00    +0.313 C 
ATOM     29  O   LIG A   1      -9.762  -1.928 125.197  0.00  0.00    -0.250 OA
BRANCH  28  30
ATOM     30  O   LIG A   1      -8.017  -2.797 124.019  0.00  0.00    -0.468 OA
ATOM     31  C   LIG A   1      -8.147  -4.038 124.725  0.00  0.00    +0.280 C 
ENDBRANCH  28  30
ENDBRANCH  25  28
ENDBRANCH  24  25
BRANCH  24  32
ATOM     32  C   LIG A   1      -7.294   1.924 125.283  0.00  0.00    +0.126 C 
BRANCH  32  33
ATOM     33  C   LIG A   1      -8.135   3.065 125.833  0.00  0.00    +0.307 C 
ATOM     34  O   LIG A   1      -8.684   3.884 125.098  0.00  0.00    -0.251 OA
BRANCH  33  35
ATOM     35  O   LIG A   1      -8.366   2.979 127.169  0.00  0.00    -0.468 OA
ATOM     36  C   LIG A   1      -7.888   4.120 127.903  0.00  0.00    +0.280 C 
ENDBRANCH  33  35
ENDBRANCH  32  33
ENDBRANCH  24  32
ENDBRANCH  12  24
TORSDOF 8
ENDMDL
MODEL 3
REMARK VINA RESULT:      -7.7      2.668      8.278
REMARK  Name = NuBBE_1104
REMARK  15 active torsions:
REMARK  status: ('A' for Active; 'I' for Inactive)
REMARK    1  A    between atoms: C_1  and  C_2
REMARK    2  A    between atoms: C_7  and  C_9
REMARK    3  A    between atoms: C_18  and  C_19
REMARK    4  A    between atoms: C_18  and  C_33
REMARK    5  A    between atoms: C_19  and  C_21
REMARK    6  A    between atoms: C_19  and  C_26
REMARK    7  A    between atoms: C_21  and  C_22
REMARK    8  A    between atoms: C_22  and  O_23
REMARK    9  A    between atoms: O_23  and  C_24
REMARK   10  A    between atoms: C_26  and  C_27
REMARK   11  A    between atoms: C_26  and  C_31
REMARK   12  A    between atoms: C_26  and  C_32
REMARK   13  A    between atoms: C_27  and  O_28
REMARK   14  A    between atoms: O_28  and  C_29
REMARK   15  A    between atoms: C_34  and  C_35
REMARK                            x       y       z     vdW  Elec       q    Type
REMARK                         _______ _______ _______ _____ _____    ______ ____
ROOT
ATOM      1  C   LIG A   1      -6.830   0.771 124.438  0.00  0.00    +0.020 C 
ATOM      2  C   LIG A   1      -7.788   1.752 125.173  0.00  0.00    +0.032 C 
ATOM      3  C   LIG A   1      -7.422   2.398 126.525  0.00  0.00    -0.042 C 
ATOM      4  C   LIG A   1      -7.663   3.704 126.739  0.00  0.00    +0.092 C 
ATOM      5  C   LIG A   1      -8.445   4.528 125.796  0.00  0.00    +0.333 C 
ATOM      6  O   LIG A   1      -8.987   3.894 124.733  0.00  0.00    -0.453 OA
ATOM      7  C   LIG A   1      -8.274   2.800 124.131  0.00  0.00    +0.220 C 
ATOM      8  O   LIG A   1      -8.711   5.697 126.065  0.00  0.00    -0.246 OA
ATOM      9  C   LIG A   1      -8.847   0.859 125.806  0.00  0.00    +0.016 C 
ATOM     10  C   LIG A   1      -8.087   0.234 127.015  0.00  0.00    +0.017 C 
ATOM     11  C   LIG A   1      -7.103   1.318 127.603  0.00  0.00    +0.027 C 
ATOM     12  C   LIG A   1      -7.405   1.341 129.192  0.00  0.00    +0.048 C 
ATOM     13  C   LIG A   1      -8.675   2.130 129.531  0.00  0.00    +0.021 C 
ATOM     14  C   LIG A   1      -5.567   1.347 127.657  0.00  0.00    -0.058 C 
ATOM     15  C   LIG A   1      -4.620   1.048 126.548  0.00  0.00    +0.040 C 
ATOM     16  C   LIG A   1      -5.088   1.919 128.798  0.00  0.00    +0.046 C 
ATOM     17  C   LIG A   1      -6.178   2.130 129.729  0.00  0.00    +0.163 C 
ATOM     18  O   LIG A   1      -6.080   2.747 130.766  0.00  0.00    -0.292 OA
ENDROOT
BRANCH   7  19
ATOM     19  C   LIG A   1      -7.200   3.331 123.190  0.00  0.00    +0.031 A 
ATOM     20  C   LIG A   1      -7.240   3.338 121.805  0.00  0.00    +0.202 A 
ATOM     21  O   LIG A   1      -6.114   3.887 121.281  0.00  0.00    -0.471 OA
ATOM     22  C   LIG A   1      -5.332   4.251 122.324  0.00  0.00    +0.195 A 
ATOM     23  C   LIG A   1      -5.933   3.912 123.514  0.00  0.00    +0.048 A 
ENDBRANCH   7  19
BRANCH  12  24
ATOM     24  C   LIG A   1      -7.340  -0.175 129.964  0.00  0.00    +0.030 C 
BRANCH  24  25
ATOM     25  C   LIG A   1      -7.541  -0.268 131.599  0.00  0.00    +0.066 C 
ATOM     26  C   LIG A   1      -7.793  -1.696 132.163  0.00  0.00    +0.023 C 
ATOM     27  C   LIG A   1      -6.214   0.134 132.352  0.00  0.00    +0.023 C 
BRANCH  25  28
ATOM     28  C   LIG A   1      -8.676   0.628 132.159  0.00  0.00    +0.313 C 
ATOM     29  O   LIG A   1      -9.866   0.428 131.947  0.00  0.00    -0.250 OA
BRANCH  28  30
ATOM     30  O   LIG A   1      -8.222   1.593 133.008  0.00  0.00    -0.468 OA
ATOM     31  C   LIG A   1      -9.110   2.713 133.120  0.00  0.00    +0.280 C 
ENDBRANCH  28  30
ENDBRANCH  25  28
ENDBRANCH  24  25
BRANCH  24  32
ATOM     32  C   LIG A   1      -6.103  -1.088 129.566  0.00  0.00    +0.126 C 
BRANCH  32  33
ATOM     33  C   LIG A   1      -6.169  -2.316 128.672  0.00  0.00    +0.307 C 
ATOM     34  O   LIG A   1      -5.448  -2.441 127.683  0.00  0.00    -0.251 OA
BRANCH  33  35
ATOM     35  O   LIG A   1      -6.947  -3.312 129.167  0.00  0.00    -0.468 OA
ATOM     36  C   LIG A   1      -8.240  -3.388 128.541  0.00  0.00    +0.280 C 
ENDBRANCH  33  35
ENDBRANCH  32  33
ENDBRANCH  24  32
ENDBRANCH  12  24
TORSDOF 8
ENDMDL
MODEL 4
REMARK VINA RESULT:      -7.6      3.228      6.018
REMARK  Name = NuBBE_1104
REMARK  15 active torsions:
REMARK  status: ('A' for Active; 'I' for Inactive)
REMARK    1  A    between atoms: C_1  and  C_2
REMARK    2  A    between atoms: C_7  and  C_9
REMARK    3  A    between atoms: C_18  and  C_19
REMARK    4  A    between atoms: C_18  and  C_33
REMARK    5  A    between atoms: C_19  and  C_21
REMARK    6  A    between atoms: C_19  and  C_26
REMARK    7  A    between atoms: C_21  and  C_22
REMARK    8  A    between atoms: C_22  and  O_23
REMARK    9  A    between atoms: O_23  and  C_24
REMARK   10  A    between atoms: C_26  and  C_27
REMARK   11  A    between atoms: C_26  and  C_31
REMARK   12  A    between atoms: C_26  and  C_32
REMARK   13  A    between atoms: C_27  and  O_28
REMARK   14  A    between atoms: O_28  and  C_29
REMARK   15  A    between atoms: C_34  and  C_35
REMARK                            x       y       z     vdW  Elec       q    Type
REMARK                         _______ _______ _______ _____ _____    ______ ____
ROOT
ATOM      1  C   LIG A   1      -4.176   2.379 128.744  0.00  0.00    +0.020 C 
ATOM      2  C   LIG A   1      -4.569   2.916 127.337  0.00  0.00    +0.032 C 
ATOM      3  C   LIG A   1      -5.991   2.751 126.763  0.00  0.00    -0.042 C 
ATOM      4  C   LIG A   1      -6.592   3.779 126.137  0.00  0.00    +0.092 C 
ATOM      5  C   LIG A   1      -5.877   5.026 125.799  0.00  0.00    +0.333 C 
ATOM      6  O   LIG A   1      -4.555   5.067 126.075  0.00  0.00    -0.453 OA
ATOM      7  C   LIG A   1      -4.060   4.383 127.239  0.00  0.00    +0.220 C 
ATOM      8  O   LIG A   1      -6.438   5.910 125.157  0.00  0.00    -0.246 OA
ATOM      9  C   LIG A   1      -3.980   1.909 126.359  0.00  0.00    +0.016 C 
ATOM     10  C   LIG A   1      -4.953   0.699 126.489  0.00  0.00    +0.017 C 
ATOM     11  C   LIG A   1      -6.414   1.252 126.715  0.00  0.00    +0.027 C 
ATOM     12  C   LIG A   1      -7.327   0.483 125.624  0.00  0.00    +0.048 C 
ATOM     13  C   LIG A   1      -7.183   1.082 124.219  0.00  0.00    +0.021 C 
ATOM     14  C   LIG A   1      -7.350   1.132 127.928  0.00  0.00    -0.058 C 
ATOM     15  C   LIG A   1      -7.009   1.370 129.357  0.00  0.00    +0.040 C 
ATOM     16  C   LIG A   1      -8.660   1.002 127.575  0.00  0.00    +0.046 C 
ATOM     17  C   LIG A   1      -8.759   0.791 126.145  0.00  0.00    +0.163 C 
ATOM     18  O   LIG A   1      -9.799   0.782 125.527  0.00  0.00    -0.292 OA
ENDROOT
BRANCH   7  19
ATOM     19  C   LIG A   1      -4.284   5.237 128.481  0.00  0.00    +0.031 A 
ATOM     20  C   LIG A   1      -3.464   6.251 128.950  0.00  0.00    +0.202 A 
ATOM     21  O   LIG A   1      -3.962   6.805 130.084  0.00  0.00    -0.471 OA
ATOM     22  C   LIG A   1      -5.121   6.160 130.360  0.00  0.00    +0.195 A 
ATOM     23  C   LIG A   1      -5.353   5.175 129.429  0.00  0.00    +0.048 A 
ENDBRANCH   7  19
BRANCH  12  24
ATOM     24  C   LIG A   1      -7.197  -1.215 125.636  0.00  0.00    +0.030 C 
BRANCH  24  25
ATOM     25  C   LIG A   1      -7.397  -2.059 124.232  0.00  0.00    +0.066 C 
ATOM     26  C   LIG A   1      -6.386  -1.723 123.099  0.00  0.00    +0.023 C 
ATOM     27  C   LIG A   1      -7.115  -3.595 124.456  0.00  0.00    +0.023 C 
BRANCH  25  28
ATOM     28  C   LIG A   1      -8.810  -1.939 123.605  0.00  0.00    +0.313 C 
ATOM     29  O   LIG A   1      -9.824  -2.394 124.123  0.00  0.00    -0.250 OA
BRANCH  28  30
ATOM     30  O   LIG A   1      -8.829  -1.174 122.477  0.00  0.00    -0.468 OA
ATOM     31  C   LIG A   1     -10.001  -0.357 122.364  0.00  0.00    +0.280 C 
ENDBRANCH  28  30
ENDBRANCH  25  28
ENDBRANCH  24  25
BRANCH  24  32
ATOM     32  C   LIG A   1      -8.022  -1.951 126.777  0.00  0.00    +0.126 C 
BRANCH  32  33
ATOM     33  C   LIG A   1      -7.442  -2.470 128.083  0.00  0.00    +0.307 C 
ATOM     34  O   LIG A   1      -8.156  -2.780 129.035  0.00  0.00    -0.251 OA
BRANCH  33  35
ATOM     35  O   LIG A   1      -6.109  -2.728 128.026  0.00  0.00    -0.468 OA
ATOM     36  C   LIG A   1      -5.341  -1.958 128.969  0.00  0.00    +0.280 C 
ENDBRANCH  33  35
ENDBRANCH  32  33
ENDBRANCH  24  32
ENDBRANCH  12  24
TORSDOF 8
ENDMDL
MODEL 5
REMARK VINA RESULT:      -7.6      3.036      8.623
REMARK  Name = NuBBE_1104
REMARK  15 active torsions:
REMARK  status: ('A' for Active; 'I' for Inactive)
REMARK    1  A    between atoms: C_1  and  C_2
REMARK    2  A    between atoms: C_7  and  C_9
REMARK    3  A    between atoms: C_18  and  C_19
REMARK    4  A    between atoms: C_18  and  C_33
REMARK    5  A    between atoms: C_19  and  C_21
REMARK    6  A    between atoms: C_19  and  C_26
REMARK    7  A    between atoms: C_21  and  C_22
REMARK    8  A    between atoms: C_22  and  O_23
REMARK    9  A    between atoms: O_23  and  C_24
REMARK   10  A    between atoms: C_26  and  C_27
REMARK   11  A    between atoms: C_26  and  C_31
REMARK   12  A    between atoms: C_26  and  C_32
REMARK   13  A    between atoms: C_27  and  O_28
REMARK   14  A    between atoms: O_28  and  C_29
REMARK   15  A    between atoms: C_34  and  C_35
REMARK                            x       y       z     vdW  Elec       q    Type
REMARK                         _______ _______ _______ _____ _____    ______ ____
ROOT
ATOM      1  C   LIG A   1      -6.160   1.182 125.123  0.00  0.00    +0.020 C 
ATOM      2  C   LIG A   1      -7.318   2.049 125.697  0.00  0.00    +0.032 C 
ATOM      3  C   LIG A   1      -7.149   2.905 126.969  0.00  0.00    -0.042 C 
ATOM      4  C   LIG A   1      -7.631   4.161 127.009  0.00  0.00    +0.092 C 
ATOM      5  C   LIG A   1      -8.494   4.711 125.944  0.00  0.00    +0.333 C 
ATOM      6  O   LIG A   1      -8.853   3.867 124.951  0.00  0.00    -0.453 OA
ATOM      7  C   LIG A   1      -7.923   2.861 124.516  0.00  0.00    +0.220 C 
ATOM      8  O   LIG A   1      -8.978   5.834 126.055  0.00  0.00    -0.246 OA
ATOM      9  C   LIG A   1      -8.234   1.057 126.401  0.00  0.00    +0.016 C 
ATOM     10  C   LIG A   1      -7.444   0.728 127.703  0.00  0.00    +0.017 C 
ATOM     11  C   LIG A   1      -6.704   2.036 128.184  0.00  0.00    +0.027 C 
ATOM     12  C   LIG A   1      -7.093   2.189 129.746  0.00  0.00    +0.048 C 
ATOM     13  C   LIG A   1      -8.501   2.765 129.940  0.00  0.00    +0.021 C 
ATOM     14  C   LIG A   1      -5.203   2.354 128.286  0.00  0.00    -0.058 C 
ATOM     15  C   LIG A   1      -4.157   2.106 127.256  0.00  0.00    +0.040 C 
ATOM     16  C   LIG A   1      -4.899   3.133 129.362  0.00  0.00    +0.046 C 
ATOM     17  C   LIG A   1      -6.059   3.248 130.221  0.00  0.00    +0.163 C 
ATOM     18  O   LIG A   1      -6.131   3.989 131.175  0.00  0.00    -0.292 OA
ENDROOT
BRANCH   7  19
ATOM     19  C   LIG A   1      -6.910   3.466 123.553  0.00  0.00    +0.031 A 
ATOM     20  C   LIG A   1      -5.903   4.365 123.864  0.00  0.00    +0.202 A 
ATOM     21  O   LIG A   1      -5.181   4.700 122.764  0.00  0.00    -0.471 OA
ATOM     22  C   LIG A   1      -5.709   4.011 121.724  0.00  0.00    +0.195 A 
ATOM     23  C   LIG A   1      -6.784   3.263 122.142  0.00  0.00    +0.048 A 
ENDBRANCH   7  19
BRANCH  12  24
ATOM     24  C   LIG A   1      -6.803   0.812 130.704  0.00  0.00    +0.030 C 
BRANCH  24  25
ATOM     25  C   LIG A   1      -7.726   0.540 132.044  0.00  0.00    +0.066 C 
ATOM     26  C   LIG A   1      -9.239   0.297 131.777  0.00  0.00    +0.023 C 
ATOM     27  C   LIG A   1      -7.313  -0.812 132.746  0.00  0.00    +0.023 C 
BRANCH  25  28
ATOM     28  C   LIG A   1      -7.647   1.656 133.117  0.00  0.00    +0.313 C 
ATOM     29  O   LIG A   1      -6.611   1.978 133.687  0.00  0.00    -0.250 OA
BRANCH  28  30
ATOM     30  O   LIG A   1      -8.825   2.323 133.279  0.00  0.00    -0.468 OA
ATOM     31  C   LIG A   1      -8.658   3.654 133.785  0.00  0.00    +0.280 C 
ENDBRANCH  28  30
ENDBRANCH  25  28
ENDBRANCH  24  25
BRANCH  24  32
ATOM     32  C   LIG A   1      -5.283   0.563 131.093  0.00  0.00    +0.126 C 
BRANCH  32  33
ATOM     33  C   LIG A   1      -4.394  -0.524 130.511  0.00  0.00    +0.307 C 
ATOM     34  O   LIG A   1      -3.505  -1.062 131.170  0.00  0.00    -0.251 OA
BRANCH  33  35
ATOM     35  O   LIG A   1      -4.793  -0.961 129.288  0.00  0.00    -0.468 OA
ATOM     36  C   LIG A   1      -5.176  -2.347 129.276  0.00  0.00    +0.280 C 
ENDBRANCH  33  35
ENDBRANCH  32  33
ENDBRANCH  24  32
ENDBRANCH  12  24
TORSDOF 8
ENDMDL
MODEL 6
REMARK VINA RESULT:      -7.6      3.127      5.764
REMARK  Name = NuBBE_1104
REMARK  15 active torsions:
REMARK  status: ('A' for Active; 'I' for Inactive)
REMARK    1  A    between atoms: C_1  and  C_2
REMARK    2  A    between atoms: C_7  and  C_9
REMARK    3  A    between atoms: C_18  and  C_19
REMARK    4  A    between atoms: C_18  and  C_33
REMARK    5  A    between atoms: C_19  and  C_21
REMARK    6  A    between atoms: C_19  and  C_26
REMARK    7  A    between atoms: C_21  and  C_22
REMARK    8  A    between atoms: C_22  and  O_23
REMARK    9  A    between atoms: O_23  and  C_24
REMARK   10  A    between atoms: C_26  and  C_27
REMARK   11  A    between atoms: C_26  and  C_31
REMARK   12  A    between atoms: C_26  and  C_32
REMARK   13  A    between atoms: C_27  and  O_28
REMARK   14  A    between atoms: O_28  and  C_29
REMARK   15  A    between atoms: C_34  and  C_35
REMARK                            x       y       z     vdW  Elec       q    Type
REMARK                         _______ _______ _______ _____ _____    ______ ____
ROOT
ATOM      1  C   LIG A   1      -4.163   2.274 128.739  0.00  0.00    +0.020 C 
ATOM      2  C   LIG A   1      -4.543   2.798 127.324  0.00  0.00    +0.032 C 
ATOM      3  C   LIG A   1      -5.973   2.676 126.760  0.00  0.00    -0.042 C 
ATOM      4  C   LIG A   1      -6.539   3.713 126.116  0.00  0.00    +0.092 C 
ATOM      5  C   LIG A   1      -5.779   4.925 125.750  0.00  0.00    +0.333 C 
ATOM      6  O   LIG A   1      -4.455   4.922 126.018  0.00  0.00    -0.453 OA
ATOM      7  C   LIG A   1      -3.980   4.243 127.193  0.00  0.00    +0.220 C 
ATOM      8  O   LIG A   1      -6.310   5.817 125.093  0.00  0.00    -0.246 OA
ATOM      9  C   LIG A   1      -3.998   1.750 126.363  0.00  0.00    +0.016 C 
ATOM     10  C   LIG A   1      -5.016   0.581 126.522  0.00  0.00    +0.017 C 
ATOM     11  C   LIG A   1      -6.453   1.193 126.744  0.00  0.00    +0.027 C 
ATOM     12  C   LIG A   1      -7.401   0.438 125.673  0.00  0.00    +0.048 C 
ATOM     13  C   LIG A   1      -7.242   1.003 124.256  0.00  0.00    +0.021 C 
ATOM     14  C   LIG A   1      -7.386   1.133 127.963  0.00  0.00    -0.058 C 
ATOM     15  C   LIG A   1      -7.028   1.386 129.386  0.00  0.00    +0.040 C 
ATOM     16  C   LIG A   1      -8.702   1.046 127.620  0.00  0.00    +0.046 C 
ATOM     17  C   LIG A   1      -8.817   0.810 126.195  0.00  0.00    +0.163 C 
ATOM     18  O   LIG A   1      -9.860   0.829 125.582  0.00  0.00    -0.292 OA
ENDROOT
BRANCH   7  19
ATOM     19  C   LIG A   1      -4.164   5.129 128.419  0.00  0.00    +0.031 A 
ATOM     20  C   LIG A   1      -5.276   5.183 129.245  0.00  0.00    +0.202 A 
ATOM     21  O   LIG A   1      -5.104   6.083 130.246  0.00  0.00    -0.471 OA
ATOM     22  C   LIG A   1      -3.870   6.619 130.086  0.00  0.00    +0.195 A 
ATOM     23  C   LIG A   1      -3.262   6.092 128.971  0.00  0.00    +0.048 A 
ENDBRANCH   7  19
BRANCH  12  24
ATOM     24  C   LIG A   1      -7.335  -1.263 125.719  0.00  0.00    +0.030 C 
BRANCH  24  25
ATOM     25  C   LIG A   1      -7.552  -2.126 124.329  0.00  0.00    +0.066 C 
ATOM     26  C   LIG A   1      -7.979  -3.610 124.523  0.00  0.00    +0.023 C 
ATOM     27  C   LIG A   1      -8.768  -1.559 123.500  0.00  0.00    +0.023 C 
BRANCH  25  28
ATOM     28  C   LIG A   1      -6.322  -2.146 123.385  0.00  0.00    +0.313 C 
ATOM     29  O   LIG A   1      -6.376  -1.862 122.194  0.00  0.00    -0.250 OA
BRANCH  28  30
ATOM     30  O   LIG A   1      -5.153  -2.398 124.039  0.00  0.00    -0.468 OA
ATOM     31  C   LIG A   1      -4.443  -3.528 123.516  0.00  0.00    +0.280 C 
ENDBRANCH  28  30
ENDBRANCH  25  28
ENDBRANCH  24  25
BRANCH  24  32
ATOM     32  C   LIG A   1      -8.198  -1.945 126.864  0.00  0.00    +0.126 C 
BRANCH  32  33
ATOM     33  C   LIG A   1      -7.643  -2.524 128.156  0.00  0.00    +0.307 C 
ATOM     34  O   LIG A   1      -6.543  -2.193 128.598  0.00  0.00    -0.251 OA
BRANCH  33  35
ATOM     35  O   LIG A   1      -8.537  -3.277 128.847  0.00  0.00    -0.468 OA
ATOM     36  C   LIG A   1      -9.306  -4.158 128.009  0.00  0.00    +0.280 C 
ENDBRANCH  33  35
ENDBRANCH  32  33
ENDBRANCH  24  32
ENDBRANCH  12  24
TORSDOF 8
ENDMDL
MODEL 7
REMARK VINA RESULT:      -7.3      3.293      8.228
REMARK  Name = NuBBE_1104
REMARK  15 active torsions:
REMARK  status: ('A' for Active; 'I' for Inactive)
REMARK    1  A    between atoms: C_1  and  C_2
REMARK    2  A    between atoms: C_7  and  C_9
REMARK    3  A    between atoms: C_18  and  C_19
REMARK    4  A    between atoms: C_18  and  C_33
REMARK    5  A    between atoms: C_19  and  C_21
REMARK    6  A    between atoms: C_19  and  C_26
REMARK    7  A    between atoms: C_21  and  C_22
REMARK    8  A    between atoms: C_22  and  O_23
REMARK    9  A    between atoms: O_23  and  C_24
REMARK   10  A    between atoms: C_26  and  C_27
REMARK   11  A    between atoms: C_26  and  C_31
REMARK   12  A    between atoms: C_26  and  C_32
REMARK   13  A    between atoms: C_27  and  O_28
REMARK   14  A    between atoms: O_28  and  C_29
REMARK   15  A    between atoms: C_34  and  C_35
REMARK                            x       y       z     vdW  Elec       q    Type
REMARK                         _______ _______ _______ _____ _____    ______ ____
ROOT
ATOM      1  C   LIG A   1      -5.783  -1.087 127.080  0.00  0.00    +0.020 C 
ATOM      2  C   LIG A   1      -7.288  -0.698 127.147  0.00  0.00    +0.032 C 
ATOM      3  C   LIG A   1      -7.752   0.770 127.237  0.00  0.00    -0.042 C 
ATOM      4  C   LIG A   1      -8.784   1.202 126.488  0.00  0.00    +0.092 C 
ATOM      5  C   LIG A   1      -9.632   0.280 125.705  0.00  0.00    +0.333 C 
ATOM      6  O   LIG A   1      -9.380  -1.042 125.833  0.00  0.00    -0.453 OA
ATOM      7  C   LIG A   1      -8.024  -1.481 126.023  0.00  0.00    +0.220 C 
ATOM      8  O   LIG A   1     -10.612   0.702 125.097  0.00  0.00    -0.246 OA
ATOM      9  C   LIG A   1      -7.701  -0.990 128.583  0.00  0.00    +0.016 C 
ATOM     10  C   LIG A   1      -7.059   0.193 129.370  0.00  0.00    +0.017 C 
ATOM     11  C   LIG A   1      -7.131   1.489 128.472  0.00  0.00    +0.027 C 
ATOM     12  C   LIG A   1      -7.778   2.624 129.426  0.00  0.00    +0.048 C 
ATOM     13  C   LIG A   1      -9.299   2.477 129.554  0.00  0.00    +0.021 C 
ATOM     14  C   LIG A   1      -6.010   2.328 127.840  0.00  0.00    -0.058 C 
ATOM     15  C   LIG A   1      -4.833   1.831 127.076  0.00  0.00    +0.040 C 
ATOM     16  C   LIG A   1      -6.291   3.662 127.825  0.00  0.00    +0.046 C 
ATOM     17  C   LIG A   1      -7.476   3.917 128.618  0.00  0.00    +0.163 C 
ATOM     18  O   LIG A   1      -8.043   4.984 128.674  0.00  0.00    -0.292 OA
ENDROOT
BRANCH   7  19
ATOM     19  C   LIG A   1      -7.300  -1.536 124.683  0.00  0.00    +0.031 A 
ATOM     20  C   LIG A   1      -7.119  -0.488 123.795  0.00  0.00    +0.202 A 
ATOM     21  O   LIG A   1      -6.428  -0.886 122.696  0.00  0.00    -0.471 OA
ATOM     22  C   LIG A   1      -6.144  -2.199 122.865  0.00  0.00    +0.195 A 
ATOM     23  C   LIG A   1      -6.676  -2.655 124.048  0.00  0.00    +0.048 A 
ENDBRANCH   7  19
BRANCH  12  24
ATOM     24  C   LIG A   1      -7.004   2.837 130.928  0.00  0.00    +0.030 C 
BRANCH  24  25
ATOM     25  C   LIG A   1      -7.877   3.352 132.230  0.00  0.00    +0.066 C 
ATOM     26  C   LIG A   1      -9.089   2.458 132.620  0.00  0.00    +0.023 C 
ATOM     27  C   LIG A   1      -7.009   3.292 133.547  0.00  0.00    +0.023 C 
BRANCH  25  28
ATOM     28  C   LIG A   1      -8.424   4.798 132.107  0.00  0.00    +0.313 C 
ATOM     29  O   LIG A   1      -7.724   5.799 132.207  0.00  0.00    -0.250 OA
BRANCH  28  30
ATOM     30  O   LIG A   1      -9.741   4.842 131.761  0.00  0.00    -0.468 OA
ATOM     31  C   LIG A   1     -10.401   6.040 132.189  0.00  0.00    +0.280 C 
ENDBRANCH  28  30
ENDBRANCH  25  28
ENDBRANCH  24  25
BRANCH  24  32
ATOM     32  C   LIG A   1      -5.650   3.666 130.882  0.00  0.00    +0.126 C 
BRANCH  32  33
ATOM     33  C   LIG A   1      -4.253   3.065 130.869  0.00  0.00    +0.307 C 
ATOM     34  O   LIG A   1      -4.066   1.851 130.801  0.00  0.00    -0.251 OA
BRANCH  33  35
ATOM     35  O   LIG A   1      -3.262   3.987 130.755  0.00  0.00    -0.468 OA
ATOM     36  C   LIG A   1      -3.120   4.506 129.420  0.00  0.00    +0.280 C 
ENDBRANCH  33  35
ENDBRANCH  32  33
ENDBRANCH  24  32
ENDBRANCH  12  24
TORSDOF 8
ENDMDL
MODEL 8
REMARK VINA RESULT:      -7.3      3.201      6.574
REMARK  Name = NuBBE_1104
REMARK  15 active torsions:
REMARK  status: ('A' for Active; 'I' for Inactive)
REMARK    1  A    between atoms: C_1  and  C_2
REMARK    2  A    between atoms: C_7  and  C_9
REMARK    3  A    between atoms: C_18  and  C_19
REMARK    4  A    between atoms: C_18  and  C_33
REMARK    5  A    between atoms: C_19  and  C_21
REMARK    6  A    between atoms: C_19  and  C_26
REMARK    7  A    between atoms: C_21  and  C_22
REMARK    8  A    between atoms: C_22  and  O_23
REMARK    9  A    between atoms: O_23  and  C_24
REMARK   10  A    between atoms: C_26  and  C_27
REMARK   11  A    between atoms: C_26  and  C_31
REMARK   12  A    between atoms: C_26  and  C_32
REMARK   13  A    between atoms: C_27  and  O_28
REMARK   14  A    between atoms: O_28  and  C_29
REMARK   15  A    between atoms: C_34  and  C_35
REMARK                            x       y       z     vdW  Elec       q    Type
REMARK                         _______ _______ _______ _____ _____    ______ ____
ROOT
ATOM      1  C   LIG A   1      -9.223   2.614 130.151  0.00  0.00    +0.020 C 
ATOM      2  C   LIG A   1      -8.795   2.327 131.620  0.00  0.00    +0.032 C 
ATOM      3  C   LIG A   1      -7.354   1.922 131.991  0.00  0.00    -0.042 C 
ATOM      4  C   LIG A   1      -6.749   2.472 133.060  0.00  0.00    +0.092 C 
ATOM      5  C   LIG A   1      -7.472   3.324 134.025  0.00  0.00    +0.333 C 
ATOM      6  O   LIG A   1      -8.803   3.467 133.838  0.00  0.00    -0.453 OA
ATOM      7  C   LIG A   1      -9.323   3.498 132.498  0.00  0.00    +0.220 C 
ATOM      8  O   LIG A   1      -6.905   3.743 135.031  0.00  0.00    -0.246 OA
ATOM      9  C   LIG A   1      -9.338   0.936 131.917  0.00  0.00    +0.016 C 
ATOM     10  C   LIG A   1      -8.351   0.012 131.141  0.00  0.00    +0.017 C 
ATOM     11  C   LIG A   1      -6.907   0.643 131.221  0.00  0.00    +0.027 C 
ATOM     12  C   LIG A   1      -5.949  -0.564 131.714  0.00  0.00    +0.048 C 
ATOM     13  C   LIG A   1      -6.059  -0.813 133.223  0.00  0.00    +0.021 C 
ATOM     14  C   LIG A   1      -6.007   1.218 130.116  0.00  0.00    -0.058 C 
ATOM     15  C   LIG A   1      -6.395   2.174 129.043  0.00  0.00    +0.040 C 
ATOM     16  C   LIG A   1      -4.685   0.958 130.321  0.00  0.00    +0.046 C 
ATOM     17  C   LIG A   1      -4.539   0.018 131.413  0.00  0.00    +0.163 C 
ATOM     18  O   LIG A   1      -3.481  -0.291 131.912  0.00  0.00    -0.292 OA
ENDROOT
BRANCH   7  19
ATOM     19  C   LIG A   1      -9.150   4.890 131.902  0.00  0.00    +0.031 A 
ATOM     20  C   LIG A   1     -10.126   5.867 131.780  0.00  0.00    +0.202 A 
ATOM     21  O   LIG A   1      -9.629   6.991 131.203  0.00  0.00    -0.471 OA
ATOM     22  C   LIG A   1      -8.319   6.759 130.952  0.00  0.00    +0.195 A 
ATOM     23  C   LIG A   1      -7.979   5.482 131.334  0.00  0.00    +0.048 A 
ENDBRANCH   7  19
BRANCH  12  24
ATOM     24  C   LIG A   1      -6.054  -1.994 130.796  0.00  0.00    +0.030 C 
BRANCH  24  25
ATOM     25  C   LIG A   1      -5.633  -3.435 131.480  0.00  0.00    +0.066 C 
ATOM     26  C   LIG A   1      -6.485  -3.869 132.707  0.00  0.00    +0.023 C 
ATOM     27  C   LIG A   1      -5.895  -4.629 130.482  0.00  0.00    +0.023 C 
BRANCH  25  28
ATOM     28  C   LIG A   1      -4.150  -3.527 131.926  0.00  0.00    +0.313 C 
ATOM     29  O   LIG A   1      -3.206  -3.545 131.144  0.00  0.00    -0.250 OA
BRANCH  28  30
ATOM     30  O   LIG A   1      -3.996  -3.468 133.279  0.00  0.00    -0.468 OA
ATOM     31  C   LIG A   1      -2.989  -4.360 133.775  0.00  0.00    +0.280 C 
ENDBRANCH  28  30
ENDBRANCH  25  28
ENDBRANCH  24  25
BRANCH  24  32
ATOM     32  C   LIG A   1      -5.399  -1.923 129.351  0.00  0.00    +0.126 C 
BRANCH  32  33
ATOM     33  C   LIG A   1      -6.168  -1.843 128.042  0.00  0.00    +0.307 C 
ATOM     34  O   LIG A   1      -5.615  -1.982 126.952  0.00  0.00    -0.251 OA
BRANCH  33  35
ATOM     35  O   LIG A   1      -7.516  -1.791 128.201  0.00  0.00    -0.468 OA
ATOM     36  C   LIG A   1      -8.179  -3.013 127.830  0.00  0.00    +0.280 C 
ENDBRANCH  33  35
ENDBRANCH  32  33
ENDBRANCH  24  32
ENDBRANCH  12  24
TORSDOF 8
ENDMDL
MODEL 9
REMARK VINA RESULT:      -7.3      2.270      4.334
REMARK  Name = NuBBE_1104
REMARK  15 active torsions:
REMARK  status: ('A' for Active; 'I' for Inactive)
REMARK    1  A    between atoms: C_1  and  C_2
REMARK    2  A    between atoms: C_7  and  C_9
REMARK    3  A    between atoms: C_18  and  C_19
REMARK    4  A    between atoms: C_18  and  C_33
REMARK    5  A    between atoms: C_19  and  C_21
REMARK    6  A    between atoms: C_19  and  C_26
REMARK    7  A    between atoms: C_21  and  C_22
REMARK    8  A    between atoms: C_22  and  O_23
REMARK    9  A    between atoms: O_23  and  C_24
REMARK   10  A    between atoms: C_26  and  C_27
REMARK   11  A    between atoms: C_26  and  C_31
REMARK   12  A    between atoms: C_26  and  C_32
REMARK   13  A    between atoms: C_27  and  O_28
REMARK   14  A    between atoms: O_28  and  C_29
REMARK   15  A    between atoms: C_34  and  C_35
REMARK                            x       y       z     vdW  Elec       q    Type
REMARK                         _______ _______ _______ _____ _____    ______ ____
ROOT
ATOM      1  C   LIG A   1      -5.515  -4.820 130.334  0.00  0.00    +0.020 C 
ATOM      2  C   LIG A   1      -4.665  -3.564 130.684  0.00  0.00    +0.032 C 
ATOM      3  C   LIG A   1      -5.290  -2.160 130.814  0.00  0.00    -0.042 C 
ATOM      4  C   LIG A   1      -4.938  -1.353 131.831  0.00  0.00    +0.092 C 
ATOM      5  C   LIG A   1      -3.823  -1.673 132.745  0.00  0.00    +0.333 C 
ATOM      6  O   LIG A   1      -3.107  -2.786 132.469  0.00  0.00    -0.453 OA
ATOM      7  C   LIG A   1      -3.775  -3.928 131.907  0.00  0.00    +0.220 C 
ATOM      8  O   LIG A   1      -3.480  -0.874 133.612  0.00  0.00    -0.246 OA
ATOM      9  C   LIG A   1      -3.952  -3.204 129.388  0.00  0.00    +0.016 C 
ATOM     10  C   LIG A   1      -5.090  -2.558 128.541  0.00  0.00    +0.017 C 
ATOM     11  C   LIG A   1      -6.036  -1.748 129.509  0.00  0.00    +0.027 C 
ATOM     12  C   LIG A   1      -6.176  -0.286 128.832  0.00  0.00    +0.048 C 
ATOM     13  C   LIG A   1      -4.948   0.596 129.092  0.00  0.00    +0.021 C 
ATOM     14  C   LIG A   1      -7.509  -1.972 129.884  0.00  0.00    -0.058 C 
ATOM     15  C   LIG A   1      -8.153  -3.254 130.283  0.00  0.00    +0.040 C 
ATOM     16  C   LIG A   1      -8.196  -0.807 130.058  0.00  0.00    +0.046 C 
ATOM     17  C   LIG A   1      -7.381   0.306 129.617  0.00  0.00    +0.163 C 
ATOM     18  O   LIG A   1      -7.669   1.470 129.779  0.00  0.00    -0.292 OA
ENDROOT
BRANCH   7  19
ATOM     19  C   LIG A   1      -4.470  -4.721 133.007  0.00  0.00    +0.031 A 
ATOM     20  C   LIG A   1      -3.956  -5.807 133.698  0.00  0.00    +0.202 A 
ATOM     21  O   LIG A   1      -4.843  -6.275 134.613  0.00  0.00    -0.471 OA
ATOM     22  C   LIG A   1      -5.942  -5.489 134.533  0.00  0.00    +0.195 A 
ATOM     23  C   LIG A   1      -5.780  -4.540 133.551  0.00  0.00    +0.048 A 
ENDBRANCH   7  19
BRANCH  12  24
ATOM     24  C   LIG A   1      -6.657  -0.286 127.198  0.00  0.00    +0.030 C 
BRANCH  24  25
ATOM     25  C   LIG A   1      -6.376   1.045 126.264  0.00  0.00    +0.066 C 
ATOM     26  C   LIG A   1      -4.897   1.524 126.209  0.00  0.00    +0.023 C 
ATOM     27  C   LIG A   1      -6.659   0.734 124.744  0.00  0.00    +0.023 C 
BRANCH  25  28
ATOM     28  C   LIG A   1      -7.223   2.288 126.644  0.00  0.00    +0.313 C 
ATOM     29  O   LIG A   1      -8.430   2.372 126.448  0.00  0.00    -0.250 OA
BRANCH  28  30
ATOM     30  O   LIG A   1      -6.511   3.230 127.323  0.00  0.00    -0.468 OA
ATOM     31  C   LIG A   1      -7.320   4.302 127.824  0.00  0.00    +0.280 C 
ENDBRANCH  28  30
ENDBRANCH  25  28
ENDBRANCH  24  25
BRANCH  24  32
ATOM     32  C   LIG A   1      -8.144  -0.773 126.928  0.00  0.00    +0.126 C 
BRANCH  32  33
ATOM     33  C   LIG A   1      -8.530  -2.048 126.194  0.00  0.00    +0.307 C 
ATOM     34  O   LIG A   1      -9.684  -2.262 125.823  0.00  0.00    -0.251 OA
BRANCH  33  35
ATOM     35  O   LIG A   1      -7.469  -2.815 125.834  0.00  0.00    -0.468 OA
ATOM     36  C   LIG A   1      -7.687  -3.550 124.616  0.00  0.00    +0.280 C 
ENDBRANCH  33  35
ENDBRANCH  32  33
ENDBRANCH  24  32
ENDBRANCH  12  24
TORSDOF 8
ENDMDL
