MODEL 1
REMARK VINA RESULT:      -6.7      0.000      0.000
REMARK  Name = NuBBE_2012
REMARK  7 active torsions:
REMARK  status: ('A' for Active; 'I' for Inactive)
REMARK    1  A    between atoms: C_1  and  O_2
REMARK    2  A    between atoms: C_1  and  C_4
REMARK    3  A    between atoms: O_2  and  C_3
REMARK    4  A    between atoms: C_9  and  C_10
REMARK    5  A    between atoms: C_9  and  C_11
REMARK    6  A    between atoms: C_12  and  O_15
REMARK    7  A    between atoms: C_16  and  C_19
REMARK                            x       y       z     vdW  Elec       q    Type
REMARK                         _______ _______ _______ _____ _____    ______ ____
ROOT
ATOM      1  C   LIG A   1      -7.537  -0.104 125.110  0.00  0.00    -0.011 A 
ATOM      2  C   LIG A   1      -7.281   1.139 124.483  0.00  0.00    +0.029 A 
ATOM      3  C   LIG A   1      -6.218   1.975 124.921  0.00  0.00    -0.029 A 
ATOM      4  C   LIG A   1      -5.903   3.299 124.232  0.00  0.00    +0.069 C 
ATOM      5  C   LIG A   1      -6.627   3.508 122.913  0.00  0.00    -0.031 C 
ATOM      6  C   LIG A   1      -6.011   3.953 121.786  0.00  0.00    -0.073 C 
ATOM      7  C   LIG A   1      -4.580   4.439 121.743  0.00  0.00    +0.038 C 
ATOM      8  C   LIG A   1      -6.676   4.026 120.432  0.00  0.00    +0.038 C 
ATOM      9  C   LIG A   1      -8.085   3.135 123.085  0.00  0.00    +0.212 C 
ATOM     10  C   LIG A   1      -8.137   1.632 123.361  0.00  0.00    +0.196 C 
ATOM     11  O   LIG A   1      -8.879   0.893 122.713  0.00  0.00    -0.289 OA
ATOM     12  C   LIG A   1      -5.439   1.577 126.032  0.00  0.00    -0.046 A 
ATOM     13  C   LIG A   1      -5.698   0.348 126.648  0.00  0.00    +0.004 A 
ATOM     14  C   LIG A   1      -6.726  -0.475 126.192  0.00  0.00    +0.007 A 
ATOM     15  C   LIG A   1      -4.297   2.409 126.555  0.00  0.00    +0.044 C 
ENDROOT
BRANCH   9  16
ATOM     16  O   LIG A   1      -8.906   3.498 121.991  0.00  0.00    -0.380 OA
ATOM     17  H   LIG A   1      -8.304   3.564 121.221  0.00  0.00    +0.211 HD
ENDBRANCH   9  16
BRANCH   1  18
ATOM     18  C   LIG A   1      -8.655  -1.026 124.655  0.00  0.00    +0.195 C 
BRANCH  18  19
ATOM     19  O   LIG A   1      -9.455  -1.461 125.763  0.00  0.00    -0.378 OA
ATOM     20  C   LIG A   1      -9.501  -2.877 125.856  0.00  0.00    +0.194 C 
ENDBRANCH  18  19
ENDBRANCH   1  18
TORSDOF 3
ENDMDL
MODEL 2
REMARK VINA RESULT:      -6.6      3.870      7.148
REMARK  Name = NuBBE_2012
REMARK  7 active torsions:
REMARK  status: ('A' for Active; 'I' for Inactive)
REMARK    1  A    between atoms: C_1  and  O_2
REMARK    2  A    between atoms: C_1  and  C_4
REMARK    3  A    between atoms: O_2  and  C_3
REMARK    4  A    between atoms: C_9  and  C_10
REMARK    5  A    between atoms: C_9  and  C_11
REMARK    6  A    between atoms: C_12  and  O_15
REMARK    7  A    between atoms: C_16  and  C_19
REMARK                            x       y       z     vdW  Elec       q    Type
REMARK                         _______ _______ _______ _____ _____    ______ ____
ROOT
ATOM      1  C   LIG A   1      -7.639  -1.785 125.238  0.00  0.00    -0.011 A 
ATOM      2  C   LIG A   1      -7.101  -1.912 126.542  0.00  0.00    +0.029 A 
ATOM      3  C   LIG A   1      -7.736  -2.725 127.520  0.00  0.00    -0.029 A 
ATOM      4  C   LIG A   1      -7.149  -2.905 128.917  0.00  0.00    +0.069 C 
ATOM      5  C   LIG A   1      -5.734  -2.376 129.076  0.00  0.00    -0.031 C 
ATOM      6  C   LIG A   1      -4.741  -3.074 129.685  0.00  0.00    -0.073 C 
ATOM      7  C   LIG A   1      -4.952  -4.384 130.411  0.00  0.00    +0.038 C 
ATOM      8  C   LIG A   1      -3.297  -2.632 129.724  0.00  0.00    +0.038 C 
ATOM      9  C   LIG A   1      -5.648  -0.999 128.449  0.00  0.00    +0.212 C 
ATOM     10  C   LIG A   1      -5.867  -1.173 126.946  0.00  0.00    +0.196 C 
ATOM     11  O   LIG A   1      -5.081  -0.687 126.131  0.00  0.00    -0.289 OA
ATOM     12  C   LIG A   1      -8.950  -3.375 127.196  0.00  0.00    -0.046 A 
ATOM     13  C   LIG A   1      -9.476  -3.244 125.908  0.00  0.00    +0.004 A 
ATOM     14  C   LIG A   1      -8.830  -2.466 124.949  0.00  0.00    +0.007 A 
ATOM     15  C   LIG A   1      -9.682  -4.252 128.179  0.00  0.00    +0.044 C 
ENDROOT
BRANCH   9  16
ATOM     16  O   LIG A   1      -4.443  -0.312 128.731  0.00  0.00    -0.380 OA
ATOM     17  H   LIG A   1      -3.794  -1.006 128.968  0.00  0.00    +0.211 HD
ENDBRANCH   9  16
BRANCH   1  18
ATOM     18  C   LIG A   1      -6.975  -0.937 124.168  0.00  0.00    +0.195 C 
BRANCH  18  19
ATOM     19  O   LIG A   1      -6.673  -1.714 123.001  0.00  0.00    -0.378 OA
ATOM     20  C   LIG A   1      -5.547  -2.555 123.205  0.00  0.00    +0.194 C 
ENDBRANCH  18  19
ENDBRANCH   1  18
TORSDOF 3
ENDMDL
MODEL 3
REMARK VINA RESULT:      -6.6      4.414      6.241
REMARK  Name = NuBBE_2012
REMARK  7 active torsions:
REMARK  status: ('A' for Active; 'I' for Inactive)
REMARK    1  A    between atoms: C_1  and  O_2
REMARK    2  A    between atoms: C_1  and  C_4
REMARK    3  A    between atoms: O_2  and  C_3
REMARK    4  A    between atoms: C_9  and  C_10
REMARK    5  A    between atoms: C_9  and  C_11
REMARK    6  A    between atoms: C_12  and  O_15
REMARK    7  A    between atoms: C_16  and  C_19
REMARK                            x       y       z     vdW  Elec       q    Type
REMARK                         _______ _______ _______ _____ _____    ______ ____
ROOT
ATOM      1  C   LIG A   1      -6.481  -1.481 128.524  0.00  0.00    -0.011 A 
ATOM      2  C   LIG A   1      -6.787  -2.096 127.286  0.00  0.00    +0.029 A 
ATOM      3  C   LIG A   1      -7.839  -3.046 127.180  0.00  0.00    -0.029 A 
ATOM      4  C   LIG A   1      -8.208  -3.688 125.846  0.00  0.00    +0.069 C 
ATOM      5  C   LIG A   1      -7.554  -3.043 124.636  0.00  0.00    -0.031 C 
ATOM      6  C   LIG A   1      -8.232  -2.727 123.502  0.00  0.00    -0.073 C 
ATOM      7  C   LIG A   1      -9.671  -3.114 123.243  0.00  0.00    +0.038 C 
ATOM      8  C   LIG A   1      -7.637  -1.953 122.349  0.00  0.00    +0.038 C 
ATOM      9  C   LIG A   1      -6.084  -2.823 124.928  0.00  0.00    +0.212 C 
ATOM     10  C   LIG A   1      -5.996  -1.793 126.055  0.00  0.00    +0.196 C 
ATOM     11  O   LIG A   1      -5.276  -0.799 125.950  0.00  0.00    -0.289 OA
ATOM     12  C   LIG A   1      -8.556  -3.416 128.342  0.00  0.00    -0.046 A 
ATOM     13  C   LIG A   1      -8.248  -2.806 129.561  0.00  0.00    +0.004 A 
ATOM     14  C   LIG A   1      -7.232  -1.856 129.648  0.00  0.00    +0.007 A 
ATOM     15  C   LIG A   1      -9.682  -4.416 128.310  0.00  0.00    +0.044 C 
ENDROOT
BRANCH   9  16
ATOM     16  O   LIG A   1      -5.325  -2.435 123.798  0.00  0.00    -0.380 OA
ATOM     17  H   LIG A   1      -5.097  -3.267 123.336  0.00  0.00    +0.211 HD
ENDBRANCH   9  16
BRANCH   1  18
ATOM     18  C   LIG A   1      -5.374  -0.452 128.666  0.00  0.00    +0.195 C 
BRANCH  18  19
ATOM     19  O   LIG A   1      -5.871   0.775 129.218  0.00  0.00    -0.378 OA
ATOM     20  C   LIG A   1      -6.597   1.530 128.259  0.00  0.00    +0.194 C 
ENDBRANCH  18  19
ENDBRANCH   1  18
TORSDOF 3
ENDMDL
MODEL 4
REMARK VINA RESULT:      -6.3      2.993      5.283
REMARK  Name = NuBBE_2012
REMARK  7 active torsions:
REMARK  status: ('A' for Active; 'I' for Inactive)
REMARK    1  A    between atoms: C_1  and  O_2
REMARK    2  A    between atoms: C_1  and  C_4
REMARK    3  A    between atoms: O_2  and  C_3
REMARK    4  A    between atoms: C_9  and  C_10
REMARK    5  A    between atoms: C_9  and  C_11
REMARK    6  A    between atoms: C_12  and  O_15
REMARK    7  A    between atoms: C_16  and  C_19
REMARK                            x       y       z     vdW  Elec       q    Type
REMARK                         _______ _______ _______ _____ _____    ______ ____
ROOT
ATOM      1  C   LIG A   1      -7.703  -2.449 128.428  0.00  0.00    -0.011 A 
ATOM      2  C   LIG A   1      -7.243  -1.685 127.328  0.00  0.00    +0.029 A 
ATOM      3  C   LIG A   1      -7.732  -1.923 126.015  0.00  0.00    -0.029 A 
ATOM      4  C   LIG A   1      -7.278  -1.083 124.825  0.00  0.00    +0.069 C 
ATOM      5  C   LIG A   1      -6.491   0.161 125.199  0.00  0.00    -0.031 C 
ATOM      6  C   LIG A   1      -6.731   1.385 124.661  0.00  0.00    -0.073 C 
ATOM      7  C   LIG A   1      -7.694   1.632 123.521  0.00  0.00    +0.038 C 
ATOM      8  C   LIG A   1      -6.064   2.659 125.124  0.00  0.00    +0.038 C 
ATOM      9  C   LIG A   1      -5.452  -0.205 126.239  0.00  0.00    +0.212 C 
ATOM     10  C   LIG A   1      -6.205  -0.624 127.502  0.00  0.00    +0.196 C 
ATOM     11  O   LIG A   1      -5.928  -0.133 128.597  0.00  0.00    -0.289 OA
ATOM     12  C   LIG A   1      -8.655  -2.973 125.802  0.00  0.00    -0.046 A 
ATOM     13  C   LIG A   1      -9.104  -3.725 126.892  0.00  0.00    +0.004 A 
ATOM     14  C   LIG A   1      -8.638  -3.464 128.179  0.00  0.00    +0.007 A 
ATOM     15  C   LIG A   1      -9.218  -3.287 124.440  0.00  0.00    +0.044 C 
ENDROOT
BRANCH   9  16
ATOM     16  O   LIG A   1      -4.512   0.820 126.500  0.00  0.00    -0.380 OA
ATOM     17  H   LIG A   1      -4.921   1.383 127.190  0.00  0.00    +0.211 HD
ENDBRANCH   9  16
BRANCH   1  18
ATOM     18  C   LIG A   1      -7.210  -2.208 129.844  0.00  0.00    +0.195 C 
BRANCH  18  19
ATOM     19  O   LIG A   1      -6.676  -3.407 130.421  0.00  0.00    -0.378 OA
ATOM     20  C   LIG A   1      -5.352  -3.663 129.974  0.00  0.00    +0.194 C 
ENDBRANCH  18  19
ENDBRANCH   1  18
TORSDOF 3
ENDMDL
MODEL 5
REMARK VINA RESULT:      -6.0      8.455      9.851
REMARK  Name = NuBBE_2012
REMARK  7 active torsions:
REMARK  status: ('A' for Active; 'I' for Inactive)
REMARK    1  A    between atoms: C_1  and  O_2
REMARK    2  A    between atoms: C_1  and  C_4
REMARK    3  A    between atoms: O_2  and  C_3
REMARK    4  A    between atoms: C_9  and  C_10
REMARK    5  A    between atoms: C_9  and  C_11
REMARK    6  A    between atoms: C_12  and  O_15
REMARK    7  A    between atoms: C_16  and  C_19
REMARK                            x       y       z     vdW  Elec       q    Type
REMARK                         _______ _______ _______ _____ _____    ______ ____
ROOT
ATOM      1  C   LIG A   1      -8.013   5.541 132.880  0.00  0.00    -0.011 A 
ATOM      2  C   LIG A   1      -6.691   5.932 132.559  0.00  0.00    +0.029 A 
ATOM      3  C   LIG A   1      -5.668   5.935 133.546  0.00  0.00    -0.029 A 
ATOM      4  C   LIG A   1      -4.230   6.316 133.208  0.00  0.00    +0.069 C 
ATOM      5  C   LIG A   1      -3.941   6.424 131.720  0.00  0.00    -0.031 C 
ATOM      6  C   LIG A   1      -2.850   5.871 131.130  0.00  0.00    -0.073 C 
ATOM      7  C   LIG A   1      -1.717   5.221 131.891  0.00  0.00    +0.038 C 
ATOM      8  C   LIG A   1      -2.621   5.840 129.637  0.00  0.00    +0.038 C 
ATOM      9  C   LIG A   1      -5.052   7.214 131.058  0.00  0.00    +0.212 C 
ATOM     10  C   LIG A   1      -6.331   6.386 131.181  0.00  0.00    +0.196 C 
ATOM     11  O   LIG A   1      -7.033   6.153 130.196  0.00  0.00    -0.289 OA
ATOM     12  C   LIG A   1      -5.992   5.589 134.878  0.00  0.00    -0.046 A 
ATOM     13  C   LIG A   1      -7.299   5.204 135.189  0.00  0.00    +0.004 A 
ATOM     14  C   LIG A   1      -8.288   5.179 134.208  0.00  0.00    +0.007 A 
ATOM     15  C   LIG A   1      -4.963   5.569 135.979  0.00  0.00    +0.044 C 
ENDROOT
BRANCH   9  16
ATOM     16  O   LIG A   1      -4.782   7.572 129.716  0.00  0.00    -0.380 OA
ATOM     17  H   LIG A   1      -3.807   7.628 129.649  0.00  0.00    +0.211 HD
ENDBRANCH   9  16
BRANCH   1  18
ATOM     18  C   LIG A   1      -9.124   5.512 131.845  0.00  0.00    +0.195 C 
BRANCH  18  19
ATOM     19  O   LIG A   1      -9.988   6.649 131.977  0.00  0.00    -0.378 OA
ATOM     20  C   LIG A   1     -11.337   6.325 131.674  0.00  0.00    +0.194 C 
ENDBRANCH  18  19
ENDBRANCH   1  18
TORSDOF 3
ENDMDL
MODEL 6
REMARK VINA RESULT:      -6.0      2.154      2.988
REMARK  Name = NuBBE_2012
REMARK  7 active torsions:
REMARK  status: ('A' for Active; 'I' for Inactive)
REMARK    1  A    between atoms: C_1  and  O_2
REMARK    2  A    between atoms: C_1  and  C_4
REMARK    3  A    between atoms: O_2  and  C_3
REMARK    4  A    between atoms: C_9  and  C_10
REMARK    5  A    between atoms: C_9  and  C_11
REMARK    6  A    between atoms: C_12  and  O_15
REMARK    7  A    between atoms: C_16  and  C_19
REMARK                            x       y       z     vdW  Elec       q    Type
REMARK                         _______ _______ _______ _____ _____    ______ ____
ROOT
ATOM      1  C   LIG A   1      -8.643  -1.928 126.423  0.00  0.00    -0.011 A 
ATOM      2  C   LIG A   1      -8.685  -0.560 126.059  0.00  0.00    +0.029 A 
ATOM      3  C   LIG A   1      -8.127   0.440 126.901  0.00  0.00    -0.029 A 
ATOM      4  C   LIG A   1      -8.129   1.914 126.505  0.00  0.00    +0.069 C 
ATOM      5  C   LIG A   1      -8.522   2.176 125.062  0.00  0.00    -0.031 C 
ATOM      6  C   LIG A   1      -7.836   3.015 124.242  0.00  0.00    -0.073 C 
ATOM      7  C   LIG A   1      -6.702   3.903 124.702  0.00  0.00    +0.038 C 
ATOM      8  C   LIG A   1      -8.120   3.176 122.767  0.00  0.00    +0.038 C 
ATOM      9  C   LIG A   1      -9.752   1.357 124.728  0.00  0.00    +0.212 C 
ATOM     10  C   LIG A   1      -9.346  -0.116 124.794  0.00  0.00    +0.196 C 
ATOM     11  O   LIG A   1      -9.596  -0.885 123.865  0.00  0.00    -0.289 OA
ATOM     12  C   LIG A   1      -7.566   0.063 128.143  0.00  0.00    -0.046 A 
ATOM     13  C   LIG A   1      -7.528  -1.289 128.497  0.00  0.00    +0.004 A 
ATOM     14  C   LIG A   1      -8.054  -2.263 127.652  0.00  0.00    +0.007 A 
ATOM     15  C   LIG A   1      -6.955   1.065 129.089  0.00  0.00    +0.044 C 
ENDROOT
BRANCH   9  16
ATOM     16  O   LIG A   1     -10.343   1.686 123.485  0.00  0.00    -0.380 OA
ATOM     17  H   LIG A   1     -11.308   1.708 123.650  0.00  0.00    +0.211 HD
ENDBRANCH   9  16
BRANCH   1  18
ATOM     18  C   LIG A   1      -9.217  -3.020 125.538  0.00  0.00    +0.195 C 
BRANCH  18  19
ATOM     19  O   LIG A   1      -8.229  -4.011 125.227  0.00  0.00    -0.378 OA
ATOM     20  C   LIG A   1      -7.277  -3.531 124.289  0.00  0.00    +0.194 C 
ENDBRANCH  18  19
ENDBRANCH   1  18
TORSDOF 3
ENDMDL
MODEL 7
REMARK VINA RESULT:      -5.9      4.627      8.286
REMARK  Name = NuBBE_2012
REMARK  7 active torsions:
REMARK  status: ('A' for Active; 'I' for Inactive)
REMARK    1  A    between atoms: C_1  and  O_2
REMARK    2  A    between atoms: C_1  and  C_4
REMARK    3  A    between atoms: O_2  and  C_3
REMARK    4  A    between atoms: C_9  and  C_10
REMARK    5  A    between atoms: C_9  and  C_11
REMARK    6  A    between atoms: C_12  and  O_15
REMARK    7  A    between atoms: C_16  and  C_19
REMARK                            x       y       z     vdW  Elec       q    Type
REMARK                         _______ _______ _______ _____ _____    ______ ____
ROOT
ATOM      1  C   LIG A   1      -7.848   0.326 128.009  0.00  0.00    -0.011 A 
ATOM      2  C   LIG A   1      -7.719  -0.775 128.889  0.00  0.00    +0.029 A 
ATOM      3  C   LIG A   1      -7.934  -2.105 128.435  0.00  0.00    -0.029 A 
ATOM      4  C   LIG A   1      -7.761  -3.306 129.360  0.00  0.00    +0.069 C 
ATOM      5  C   LIG A   1      -7.098  -2.985 130.689  0.00  0.00    -0.031 C 
ATOM      6  C   LIG A   1      -6.093  -3.729 131.220  0.00  0.00    -0.073 C 
ATOM      7  C   LIG A   1      -5.619  -5.043 130.641  0.00  0.00    +0.038 C 
ATOM      8  C   LIG A   1      -5.323  -3.346 132.461  0.00  0.00    +0.038 C 
ATOM      9  C   LIG A   1      -7.732  -1.737 131.268  0.00  0.00    +0.212 C 
ATOM     10  C   LIG A   1      -7.385  -0.578 130.333  0.00  0.00    +0.196 C 
ATOM     11  O   LIG A   1      -6.899   0.466 130.770  0.00  0.00    -0.289 OA
ATOM     12  C   LIG A   1      -8.330  -2.322 127.095  0.00  0.00    -0.046 A 
ATOM     13  C   LIG A   1      -8.456  -1.230 126.231  0.00  0.00    +0.004 A 
ATOM     14  C   LIG A   1      -8.217   0.067 126.681  0.00  0.00    +0.007 A 
ATOM     15  C   LIG A   1      -8.576  -3.701 126.540  0.00  0.00    +0.044 C 
ENDROOT
BRANCH   9  16
ATOM     16  O   LIG A   1      -7.354  -1.467 132.605  0.00  0.00    -0.380 OA
ATOM     17  H   LIG A   1      -7.708  -2.211 133.134  0.00  0.00    +0.211 HD
ENDBRANCH   9  16
BRANCH   1  18
ATOM     18  C   LIG A   1      -7.610   1.756 128.461  0.00  0.00    +0.195 C 
BRANCH  18  19
ATOM     19  O   LIG A   1      -8.836   2.499 128.505  0.00  0.00    -0.378 OA
ATOM     20  C   LIG A   1      -9.029   3.124 129.765  0.00  0.00    +0.194 C 
ENDBRANCH  18  19
ENDBRANCH   1  18
TORSDOF 3
ENDMDL
MODEL 8
REMARK VINA RESULT:      -5.9      2.707      5.705
REMARK  Name = NuBBE_2012
REMARK  7 active torsions:
REMARK  status: ('A' for Active; 'I' for Inactive)
REMARK    1  A    between atoms: C_1  and  O_2
REMARK    2  A    between atoms: C_1  and  C_4
REMARK    3  A    between atoms: O_2  and  C_3
REMARK    4  A    between atoms: C_9  and  C_10
REMARK    5  A    between atoms: C_9  and  C_11
REMARK    6  A    between atoms: C_12  and  O_15
REMARK    7  A    between atoms: C_16  and  C_19
REMARK                            x       y       z     vdW  Elec       q    Type
REMARK                         _______ _______ _______ _____ _____    ______ ____
ROOT
ATOM      1  C   LIG A   1      -5.241   3.158 126.047  0.00  0.00    -0.011 A 
ATOM      2  C   LIG A   1      -5.835   1.976 125.543  0.00  0.00    +0.029 A 
ATOM      3  C   LIG A   1      -6.451   1.955 124.262  0.00  0.00    -0.029 A 
ATOM      4  C   LIG A   1      -7.061   0.680 123.687  0.00  0.00    +0.069 C 
ATOM      5  C   LIG A   1      -6.722  -0.582 124.460  0.00  0.00    -0.031 C 
ATOM      6  C   LIG A   1      -6.313  -1.734 123.866  0.00  0.00    -0.073 C 
ATOM      7  C   LIG A   1      -6.293  -1.951 122.370  0.00  0.00    +0.038 C 
ATOM      8  C   LIG A   1      -5.830  -2.950 124.621  0.00  0.00    +0.038 C 
ATOM      9  C   LIG A   1      -6.908  -0.320 125.941  0.00  0.00    +0.212 C 
ATOM     10  C   LIG A   1      -5.864   0.719 126.350  0.00  0.00    +0.196 C 
ATOM     11  O   LIG A   1      -5.127   0.529 127.319  0.00  0.00    -0.289 OA
ATOM     12  C   LIG A   1      -6.513   3.148 123.505  0.00  0.00    -0.046 A 
ATOM     13  C   LIG A   1      -5.925   4.312 124.010  0.00  0.00    +0.004 A 
ATOM     14  C   LIG A   1      -5.300   4.314 125.255  0.00  0.00    +0.007 A 
ATOM     15  C   LIG A   1      -7.150   3.205 122.141  0.00  0.00    +0.044 C 
ENDROOT
BRANCH   9  16
ATOM     16  O   LIG A   1      -6.840  -1.483 126.745  0.00  0.00    -0.380 OA
ATOM     17  H   LIG A   1      -7.296  -2.183 126.235  0.00  0.00    +0.211 HD
ENDBRANCH   9  16
BRANCH   1  18
ATOM     18  C   LIG A   1      -4.562   3.208 127.405  0.00  0.00    +0.195 C 
BRANCH  18  19
ATOM     19  O   LIG A   1      -3.134   3.226 127.272  0.00  0.00    -0.378 OA
ATOM     20  C   LIG A   1      -2.569   4.413 127.810  0.00  0.00    +0.194 C 
ENDBRANCH  18  19
ENDBRANCH   1  18
TORSDOF 3
ENDMDL
MODEL 9
REMARK VINA RESULT:      -5.9      4.575      6.988
REMARK  Name = NuBBE_2012
REMARK  7 active torsions:
REMARK  status: ('A' for Active; 'I' for Inactive)
REMARK    1  A    between atoms: C_1  and  O_2
REMARK    2  A    between atoms: C_1  and  C_4
REMARK    3  A    between atoms: O_2  and  C_3
REMARK    4  A    between atoms: C_9  and  C_10
REMARK    5  A    between atoms: C_9  and  C_11
REMARK    6  A    between atoms: C_12  and  O_15
REMARK    7  A    between atoms: C_16  and  C_19
REMARK                            x       y       z     vdW  Elec       q    Type
REMARK                         _______ _______ _______ _____ _____    ______ ____
ROOT
ATOM      1  C   LIG A   1      -8.615   1.897 130.354  0.00  0.00    -0.011 A 
ATOM      2  C   LIG A   1      -8.261   0.776 129.564  0.00  0.00    +0.029 A 
ATOM      3  C   LIG A   1      -7.867  -0.450 130.167  0.00  0.00    -0.029 A 
ATOM      4  C   LIG A   1      -7.521  -1.678 129.331  0.00  0.00    +0.069 C 
ATOM      5  C   LIG A   1      -7.884  -1.561 127.861  0.00  0.00    -0.031 C 
ATOM      6  C   LIG A   1      -8.524  -2.541 127.170  0.00  0.00    -0.073 C 
ATOM      7  C   LIG A   1      -8.812  -3.917 127.728  0.00  0.00    +0.038 C 
ATOM      8  C   LIG A   1      -9.025  -2.388 125.754  0.00  0.00    +0.038 C 
ATOM      9  C   LIG A   1      -7.430  -0.211 127.346  0.00  0.00    +0.212 C 
ATOM     10  C   LIG A   1      -8.258   0.851 128.071  0.00  0.00    +0.196 C 
ATOM     11  O   LIG A   1      -8.847   1.733 127.445  0.00  0.00    -0.289 OA
ATOM     12  C   LIG A   1      -7.782  -0.531 131.576  0.00  0.00    -0.046 A 
ATOM     13  C   LIG A   1      -8.131   0.580 132.350  0.00  0.00    +0.004 A 
ATOM     14  C   LIG A   1      -8.542   1.768 131.749  0.00  0.00    +0.007 A 
ATOM     15  C   LIG A   1      -7.371  -1.794 132.287  0.00  0.00    +0.044 C 
ENDROOT
BRANCH   9  16
ATOM     16  O   LIG A   1      -7.512  -0.073 125.940  0.00  0.00    -0.380 OA
ATOM     17  H   LIG A   1      -7.654   0.881 125.777  0.00  0.00    +0.211 HD
ENDBRANCH   9  16
BRANCH   1  18
ATOM     18  C   LIG A   1      -9.055   3.214 129.740  0.00  0.00    +0.195 C 
BRANCH  18  19
ATOM     19  O   LIG A   1     -10.461   3.429 129.920  0.00  0.00    -0.378 OA
ATOM     20  C   LIG A   1     -10.734   4.718 130.450  0.00  0.00    +0.194 C 
ENDBRANCH  18  19
ENDBRANCH   1  18
TORSDOF 3
ENDMDL
