MODEL 1
REMARK VINA RESULT:      -7.5      0.000      0.000
REMARK  Name = NuBBE_635
REMARK  23 active torsions:
REMARK  status: ('A' for Active; 'I' for Inactive)
REMARK    1  A    between atoms: O_1  and  C_2
REMARK    2  A    between atoms: C_6  and  O_8
REMARK    3  A    between atoms: O_8  and  C_9
REMARK    4  A    between atoms: C_9  and  C_10
REMARK    5  A    between atoms: C_13  and  O_15
REMARK    6  A    between atoms: O_15  and  C_16
REMARK    7  A    between atoms: C_16  and  C_17
REMARK    8  A    between atoms: C_20  and  O_22
REMARK    9  A    between atoms: O_22  and  C_23
REMARK   10  A    between atoms: C_23  and  C_24
REMARK   11  A    between atoms: C_25  and  C_26
REMARK   12  A    between atoms: C_27  and  C_28
REMARK   13  A    between atoms: C_28  and  C_29
REMARK   14  A    between atoms: C_29  and  C_30
REMARK   15  A    between atoms: C_30  and  C_31
REMARK   16  A    between atoms: C_31  and  C_32
REMARK   17  A    between atoms: C_34  and  O_36
REMARK   18  A    between atoms: C_37  and  C_39
REMARK   19  A    between atoms: C_40  and  C_41
REMARK   20  A    between atoms: C_40  and  C_42
REMARK   21  A    between atoms: C_42  and  C_43
REMARK   22  A    between atoms: C_43  and  C_44
REMARK   23  A    between atoms: C_44  and  C_45
REMARK                            x       y       z     vdW  Elec       q    Type
REMARK                         _______ _______ _______ _____ _____    ______ ____
ROOT
ATOM      1  C   LIG A   1      -6.992  -2.214 129.475  0.00  0.00    +0.138 C 
ATOM      2  C   LIG A   1      -6.196  -2.021 128.224  0.00  0.00    +0.010 C 
ATOM      3  C   LIG A   1      -6.308  -0.950 127.400  0.00  0.00    +0.013 C 
ATOM      4  C   LIG A   1      -6.227  -1.150 125.910  0.00  0.00    +0.343 C 
ATOM      5  O   LIG A   1      -7.189  -0.250 125.383  0.00  0.00    -0.297 OA
ATOM      6  C   LIG A   1      -8.085   0.202 126.444  0.00  0.00    +0.328 C 
ATOM      7  C   LIG A   1      -7.088   0.350 127.702  0.00  0.00    +0.103 C 
ATOM      8  C   LIG A   1      -6.551   1.804 127.489  0.00  0.00    +0.222 C 
ATOM      9  C   LIG A   1      -5.254   2.203 128.116  0.00  0.00    +0.159 C 
ATOM     10  C   LIG A   1      -4.930   1.424 129.376  0.00  0.00    +0.024 C 
ATOM     11  C   LIG A   1      -3.853   2.254 130.106  0.00  0.00    +0.011 C 
ATOM     12  C   LIG A   1      -6.171   0.918 130.252  0.00  0.00    -0.023 C 
ATOM     13  C   LIG A   1      -5.536  -0.165 131.167  0.00  0.00    +0.012 C 
ATOM     14  C   LIG A   1      -7.405   0.286 129.251  0.00  0.00    +0.018 C 
ATOM     15  C   LIG A   1      -7.962  -1.073 129.685  0.00  0.00    +0.040 C 
ENDROOT
BRANCH   1  16
ATOM     16  O   LIG A   1      -7.770  -3.397 129.314  0.00  0.00    -0.388 OA
ATOM     17  H   LIG A   1      -7.768  -3.615 128.368  0.00  0.00    +0.210 HD
ENDBRANCH   1  16
BRANCH   9  18
ATOM     18  O   LIG A   1      -4.186   1.980 127.172  0.00  0.00    -0.388 OA
ATOM     19  H   LIG A   1      -3.338   2.105 127.636  0.00  0.00    +0.210 HD
ENDBRANCH   9  18
BRANCH   8  20
ATOM     20  O   LIG A   1      -7.540   2.887 127.817  0.00  0.00    -0.455 OA
BRANCH  20  21
ATOM     21  C   LIG A   1      -7.573   3.984 128.591  0.00  0.00    +0.332 C 
ATOM     22  O   LIG A   1      -6.805   4.886 128.802  0.00  0.00    -0.246 OA
BRANCH  21  23
ATOM     23  C   LIG A   1      -8.774   4.011 129.414  0.00  0.00    +0.091 C 
ATOM     24  C   LIG A   1      -9.128   5.153 129.975  0.00  0.00    +0.007 C 
BRANCH  24  25
ATOM     25  C   LIG A   1     -10.345   5.394 130.608  0.00  0.00    -0.004 C 
ATOM     26  C   LIG A   1     -10.598   6.493 131.299  0.00  0.00    -0.027 C 
BRANCH  26  27
ATOM     27  C   LIG A   1     -11.979   6.865 131.731  0.00  0.00    +0.027 C 
BRANCH  27  28
ATOM     28  C   LIG A   1     -12.941   7.248 130.595  0.00  0.00    +0.004 C 
BRANCH  28  29
ATOM     29  C   LIG A   1     -12.542   8.522 129.820  0.00  0.00    +0.000 C 
BRANCH  29  30
ATOM     30  C   LIG A   1     -12.139   8.253 128.371  0.00  0.00    -0.003 C 
ATOM     31  C   LIG A   1     -10.666   8.482 128.047  0.00  0.00    +0.004 C 
ENDBRANCH  29  30
ENDBRANCH  28  29
ENDBRANCH  27  28
ENDBRANCH  26  27
ENDBRANCH  24  25
ENDBRANCH  21  23
ENDBRANCH  20  21
ENDBRANCH   8  20
BRANCH  12  32
ATOM     32  C   LIG A   1      -6.619   2.028 131.326  0.00  0.00    +0.012 C 
BRANCH  32  33
ATOM     33  C   LIG A   1      -7.494   1.551 132.537  0.00  0.00    +0.035 C 
BRANCH  33  34
ATOM     34  C   LIG A   1      -8.936   2.071 132.645  0.00  0.00    -0.055 C 
ATOM     35  C   LIG A   1      -9.918   1.551 131.882  0.00  0.00    +0.012 C 
BRANCH  34  36
ATOM     36  C   LIG A   1      -9.235   3.229 133.478  0.00  0.00    -0.005 C 
ATOM     37  C   LIG A   1      -8.431   4.296 133.602  0.00  0.00    +0.008 C 
ENDBRANCH  34  36
ENDBRANCH  33  34
ENDBRANCH  32  33
ENDBRANCH  12  32
BRANCH   6  38
ATOM     38  O   LIG A   1      -8.603   1.474 125.944  0.00  0.00    -0.434 OA
BRANCH  38  39
ATOM     39  C   LIG A   1      -9.400   1.479 124.840  0.00  0.00    +0.306 C 
ATOM     40  C   LIG A   1      -8.871   2.433 123.778  0.00  0.00    +0.136 C 
ATOM     41  O   LIG A   1     -10.417   0.825 124.694  0.00  0.00    -0.251 OA
ENDBRANCH  38  39
ENDBRANCH   6  38
BRANCH   4  42
ATOM     42  O   LIG A   1      -6.410  -2.548 125.567  0.00  0.00    -0.431 OA
BRANCH  42  43
ATOM     43  C   LIG A   1      -7.420  -2.955 124.761  0.00  0.00    +0.306 C 
ATOM     44  C   LIG A   1      -8.529  -3.580 125.555  0.00  0.00    +0.136 C 
ATOM     45  O   LIG A   1      -7.486  -2.841 123.546  0.00  0.00    -0.251 OA
ENDBRANCH  42  43
ENDBRANCH   4  42
TORSDOF 18
ENDMDL
MODEL 2
REMARK VINA RESULT:      -7.3      2.375      8.034
REMARK  Name = NuBBE_635
REMARK  23 active torsions:
REMARK  status: ('A' for Active; 'I' for Inactive)
REMARK    1  A    between atoms: O_1  and  C_2
REMARK    2  A    between atoms: C_6  and  O_8
REMARK    3  A    between atoms: O_8  and  C_9
REMARK    4  A    between atoms: C_9  and  C_10
REMARK    5  A    between atoms: C_13  and  O_15
REMARK    6  A    between atoms: O_15  and  C_16
REMARK    7  A    between atoms: C_16  and  C_17
REMARK    8  A    between atoms: C_20  and  O_22
REMARK    9  A    between atoms: O_22  and  C_23
REMARK   10  A    between atoms: C_23  and  C_24
REMARK   11  A    between atoms: C_25  and  C_26
REMARK   12  A    between atoms: C_27  and  C_28
REMARK   13  A    between atoms: C_28  and  C_29
REMARK   14  A    between atoms: C_29  and  C_30
REMARK   15  A    between atoms: C_30  and  C_31
REMARK   16  A    between atoms: C_31  and  C_32
REMARK   17  A    between atoms: C_34  and  O_36
REMARK   18  A    between atoms: C_37  and  C_39
REMARK   19  A    between atoms: C_40  and  C_41
REMARK   20  A    between atoms: C_40  and  C_42
REMARK   21  A    between atoms: C_42  and  C_43
REMARK   22  A    between atoms: C_43  and  C_44
REMARK   23  A    between atoms: C_44  and  C_45
REMARK                            x       y       z     vdW  Elec       q    Type
REMARK                         _______ _______ _______ _____ _____    ______ ____
ROOT
ATOM      1  C   LIG A   1      -5.727   7.073 130.859  0.00  0.00    +0.138 C 
ATOM      2  C   LIG A   1      -7.216   7.115 130.996  0.00  0.00    +0.010 C 
ATOM      3  C   LIG A   1      -8.040   6.069 130.740  0.00  0.00    +0.013 C 
ATOM      4  C   LIG A   1      -9.364   6.318 130.068  0.00  0.00    +0.343 C 
ATOM      5  O   LIG A   1      -9.522   5.218 129.186  0.00  0.00    -0.297 OA
ATOM      6  C   LIG A   1      -8.245   4.531 129.011  0.00  0.00    +0.328 C 
ATOM      7  C   LIG A   1      -7.602   4.608 130.487  0.00  0.00    +0.103 C 
ATOM      8  C   LIG A   1      -8.232   3.341 131.154  0.00  0.00    +0.222 C 
ATOM      9  C   LIG A   1      -8.315   3.265 132.645  0.00  0.00    +0.159 C 
ATOM     10  C   LIG A   1      -7.241   4.071 133.349  0.00  0.00    +0.024 C 
ATOM     11  C   LIG A   1      -7.193   3.521 134.791  0.00  0.00    +0.011 C 
ATOM     12  C   LIG A   1      -5.840   4.229 132.588  0.00  0.00    -0.023 C 
ATOM     13  C   LIG A   1      -5.168   5.416 133.334  0.00  0.00    +0.012 C 
ATOM     14  C   LIG A   1      -6.083   4.554 130.927  0.00  0.00    +0.018 C 
ATOM     15  C   LIG A   1      -5.263   5.719 130.366  0.00  0.00    +0.040 C 
ENDROOT
BRANCH   1  16
ATOM     16  O   LIG A   1      -5.357   8.026 129.867  0.00  0.00    -0.388 OA
ATOM     17  H   LIG A   1      -5.857   7.811 129.063  0.00  0.00    +0.210 HD
ENDBRANCH   1  16
BRANCH   9  18
ATOM     18  O   LIG A   1      -9.597   3.771 133.071  0.00  0.00    -0.388 OA
ATOM     19  H   LIG A   1      -9.452   4.620 133.529  0.00  0.00    +0.210 HD
ENDBRANCH   9  18
BRANCH   8  20
ATOM     20  O   LIG A   1      -7.646   2.037 130.688  0.00  0.00    -0.455 OA
BRANCH  20  21
ATOM     21  C   LIG A   1      -7.839   0.731 130.935  0.00  0.00    +0.332 C 
ATOM     22  O   LIG A   1      -8.032   0.085 131.931  0.00  0.00    -0.246 OA
BRANCH  21  23
ATOM     23  C   LIG A   1      -7.681  -0.061 129.724  0.00  0.00    +0.091 C 
ATOM     24  C   LIG A   1      -7.690  -1.378 129.827  0.00  0.00    +0.007 C 
BRANCH  24  25
ATOM     25  C   LIG A   1      -7.761  -2.268 128.757  0.00  0.00    -0.004 C 
ATOM     26  C   LIG A   1      -8.571  -3.312 128.735  0.00  0.00    -0.027 C 
BRANCH  26  27
ATOM     27  C   LIG A   1      -8.840  -4.088 127.487  0.00  0.00    +0.027 C 
BRANCH  27  28
ATOM     28  C   LIG A   1      -9.076  -3.241 126.226  0.00  0.00    +0.004 C 
BRANCH  28  29
ATOM     29  C   LIG A   1      -8.462  -3.827 124.937  0.00  0.00    +0.000 C 
BRANCH  29  30
ATOM     30  C   LIG A   1      -7.049  -3.321 124.650  0.00  0.00    -0.003 C 
ATOM     31  C   LIG A   1      -6.744  -1.912 125.148  0.00  0.00    +0.004 C 
ENDBRANCH  29  30
ENDBRANCH  28  29
ENDBRANCH  27  28
ENDBRANCH  26  27
ENDBRANCH  24  25
ENDBRANCH  21  23
ENDBRANCH  20  21
ENDBRANCH   8  20
BRANCH  12  32
ATOM     32  C   LIG A   1      -4.843   3.017 132.942  0.00  0.00    +0.012 C 
BRANCH  32  33
ATOM     33  C   LIG A   1      -3.811   2.586 131.843  0.00  0.00    +0.035 C 
BRANCH  33  34
ATOM     34  C   LIG A   1      -4.165   1.397 130.937  0.00  0.00    -0.055 C 
ATOM     35  C   LIG A   1      -4.239   0.146 131.434  0.00  0.00    +0.012 C 
BRANCH  34  36
ATOM     36  C   LIG A   1      -4.294   1.586 129.498  0.00  0.00    -0.005 C 
ATOM     37  C   LIG A   1      -3.704   2.578 128.812  0.00  0.00    +0.008 C 
ENDBRANCH  34  36
ENDBRANCH  33  34
ENDBRANCH  32  33
ENDBRANCH  12  32
BRANCH   6  38
ATOM     38  O   LIG A   1      -8.629   3.181 128.600  0.00  0.00    -0.434 OA
BRANCH  38  39
ATOM     39  C   LIG A   1      -8.224   2.715 127.387  0.00  0.00    +0.306 C 
ATOM     40  C   LIG A   1      -6.857   3.268 127.008  0.00  0.00    +0.136 C 
ATOM     41  O   LIG A   1      -8.855   1.962 126.667  0.00  0.00    -0.251 OA
ENDBRANCH  38  39
ENDBRANCH   6  38
BRANCH   4  42
ATOM     42  O   LIG A   1      -9.393   7.633 129.456  0.00  0.00    -0.431 OA
BRANCH  42  43
ATOM     43  C   LIG A   1     -10.510   8.115 128.861  0.00  0.00    +0.306 C 
ATOM     44  C   LIG A   1     -11.713   7.934 129.740  0.00  0.00    +0.136 C 
ATOM     45  O   LIG A   1     -10.592   8.652 127.766  0.00  0.00    -0.251 OA
ENDBRANCH  42  43
ENDBRANCH   4  42
TORSDOF 18
ENDMDL
MODEL 3
REMARK VINA RESULT:      -7.3      2.955      7.679
REMARK  Name = NuBBE_635
REMARK  23 active torsions:
REMARK  status: ('A' for Active; 'I' for Inactive)
REMARK    1  A    between atoms: O_1  and  C_2
REMARK    2  A    between atoms: C_6  and  O_8
REMARK    3  A    between atoms: O_8  and  C_9
REMARK    4  A    between atoms: C_9  and  C_10
REMARK    5  A    between atoms: C_13  and  O_15
REMARK    6  A    between atoms: O_15  and  C_16
REMARK    7  A    between atoms: C_16  and  C_17
REMARK    8  A    between atoms: C_20  and  O_22
REMARK    9  A    between atoms: O_22  and  C_23
REMARK   10  A    between atoms: C_23  and  C_24
REMARK   11  A    between atoms: C_25  and  C_26
REMARK   12  A    between atoms: C_27  and  C_28
REMARK   13  A    between atoms: C_28  and  C_29
REMARK   14  A    between atoms: C_29  and  C_30
REMARK   15  A    between atoms: C_30  and  C_31
REMARK   16  A    between atoms: C_31  and  C_32
REMARK   17  A    between atoms: C_34  and  O_36
REMARK   18  A    between atoms: C_37  and  C_39
REMARK   19  A    between atoms: C_40  and  C_41
REMARK   20  A    between atoms: C_40  and  C_42
REMARK   21  A    between atoms: C_42  and  C_43
REMARK   22  A    between atoms: C_43  and  C_44
REMARK   23  A    between atoms: C_44  and  C_45
REMARK                            x       y       z     vdW  Elec       q    Type
REMARK                         _______ _______ _______ _____ _____    ______ ____
ROOT
ATOM      1  C   LIG A   1      -9.330   2.270 132.264  0.00  0.00    +0.138 C 
ATOM      2  C   LIG A   1      -9.992   3.128 131.234  0.00  0.00    +0.010 C 
ATOM      3  C   LIG A   1      -9.330   3.917 130.351  0.00  0.00    +0.013 C 
ATOM      4  C   LIG A   1      -9.889   5.271 130.005  0.00  0.00    +0.343 C 
ATOM      5  O   LIG A   1      -8.746   6.106 129.901  0.00  0.00    -0.297 OA
ATOM      6  C   LIG A   1      -7.591   5.450 130.509  0.00  0.00    +0.328 C 
ATOM      7  C   LIG A   1      -7.806   3.908 130.091  0.00  0.00    +0.103 C 
ATOM      8  C   LIG A   1      -7.123   3.881 128.684  0.00  0.00    +0.222 C 
ATOM      9  C   LIG A   1      -7.495   2.808 127.711  0.00  0.00    +0.159 C 
ATOM     10  C   LIG A   1      -7.969   1.531 128.378  0.00  0.00    +0.024 C 
ATOM     11  C   LIG A   1      -7.859   0.437 127.295  0.00  0.00    +0.011 C 
ATOM     12  C   LIG A   1      -7.349   1.192 129.815  0.00  0.00    -0.023 C 
ATOM     13  C   LIG A   1      -8.327   0.123 130.375  0.00  0.00    +0.012 C 
ATOM     14  C   LIG A   1      -7.279   2.592 130.794  0.00  0.00    +0.018 C 
ATOM     15  C   LIG A   1      -7.825   2.420 132.214  0.00  0.00    +0.040 C 
ENDROOT
BRANCH   1  16
ATOM     16  O   LIG A   1      -9.752   2.729 133.545  0.00  0.00    -0.388 OA
ATOM     17  H   LIG A   1      -8.963   2.764 134.110  0.00  0.00    +0.210 HD
ENDBRANCH   1  16
BRANCH   9  18
ATOM     18  O   LIG A   1      -8.560   3.287 126.866  0.00  0.00    -0.388 OA
ATOM     19  H   LIG A   1      -8.723   2.620 126.174  0.00  0.00    +0.210 HD
ENDBRANCH   9  18
BRANCH   8  20
ATOM     20  O   LIG A   1      -5.622   3.930 128.720  0.00  0.00    -0.455 OA
BRANCH  20  21
ATOM     21  C   LIG A   1      -4.629   4.229 127.867  0.00  0.00    +0.332 C 
ATOM     22  O   LIG A   1      -4.531   4.254 126.668  0.00  0.00    -0.246 OA
BRANCH  21  23
ATOM     23  C   LIG A   1      -3.384   4.485 128.578  0.00  0.00    +0.091 C 
ATOM     24  C   LIG A   1      -2.931   5.725 128.629  0.00  0.00    +0.007 C 
BRANCH  24  25
ATOM     25  C   LIG A   1      -1.885   6.167 129.435  0.00  0.00    -0.004 C 
ATOM     26  C   LIG A   1      -2.029   6.458 130.717  0.00  0.00    -0.027 C 
BRANCH  26  27
ATOM     27  C   LIG A   1      -0.862   6.657 131.627  0.00  0.00    +0.027 C 
BRANCH  27  28
ATOM     28  C   LIG A   1      -0.804   5.709 132.836  0.00  0.00    +0.004 C 
BRANCH  28  29
ATOM     29  C   LIG A   1      -2.170   5.131 133.262  0.00  0.00    +0.000 C 
BRANCH  29  30
ATOM     30  C   LIG A   1      -2.327   3.644 132.949  0.00  0.00    -0.003 C 
ATOM     31  C   LIG A   1      -3.511   3.284 132.056  0.00  0.00    +0.004 C 
ENDBRANCH  29  30
ENDBRANCH  28  29
ENDBRANCH  27  28
ENDBRANCH  26  27
ENDBRANCH  24  25
ENDBRANCH  21  23
ENDBRANCH  20  21
ENDBRANCH   8  20
BRANCH  12  32
ATOM     32  C   LIG A   1      -5.987   0.345 129.678  0.00  0.00    +0.012 C 
BRANCH  32  33
ATOM     33  C   LIG A   1      -5.938  -1.061 130.370  0.00  0.00    +0.035 C 
BRANCH  33  34
ATOM     34  C   LIG A   1      -5.781  -2.306 129.482  0.00  0.00    -0.055 C 
ATOM     35  C   LIG A   1      -5.203  -2.220 128.266  0.00  0.00    +0.012 C 
BRANCH  34  36
ATOM     36  C   LIG A   1      -6.376  -3.572 129.885  0.00  0.00    -0.005 C 
ATOM     37  C   LIG A   1      -5.700  -4.569 130.477  0.00  0.00    +0.008 C 
ENDBRANCH  34  36
ENDBRANCH  33  34
ENDBRANCH  32  33
ENDBRANCH  12  32
BRANCH   6  38
ATOM     38  O   LIG A   1      -6.447   6.087 129.860  0.00  0.00    -0.434 OA
BRANCH  38  39
ATOM     39  C   LIG A   1      -5.668   6.943 130.577  0.00  0.00    +0.306 C 
ATOM     40  C   LIG A   1      -5.474   6.452 132.005  0.00  0.00    +0.136 C 
ATOM     41  O   LIG A   1      -5.181   7.980 130.162  0.00  0.00    -0.251 OA
ENDBRANCH  38  39
ENDBRANCH   6  38
BRANCH   4  42
ATOM     42  O   LIG A   1     -10.888   5.680 130.974  0.00  0.00    -0.431 OA
BRANCH  42  43
ATOM     43  C   LIG A   1     -11.994   6.370 130.605  0.00  0.00    +0.306 C 
ATOM     44  C   LIG A   1     -12.132   6.413 129.112  0.00  0.00    +0.136 C 
ATOM     45  O   LIG A   1     -12.818   6.893 131.341  0.00  0.00    -0.251 OA
ENDBRANCH  42  43
ENDBRANCH   4  42
TORSDOF 18
ENDMDL
MODEL 4
REMARK VINA RESULT:      -7.3      2.299      7.856
REMARK  Name = NuBBE_635
REMARK  23 active torsions:
REMARK  status: ('A' for Active; 'I' for Inactive)
REMARK    1  A    between atoms: O_1  and  C_2
REMARK    2  A    between atoms: C_6  and  O_8
REMARK    3  A    between atoms: O_8  and  C_9
REMARK    4  A    between atoms: C_9  and  C_10
REMARK    5  A    between atoms: C_13  and  O_15
REMARK    6  A    between atoms: O_15  and  C_16
REMARK    7  A    between atoms: C_16  and  C_17
REMARK    8  A    between atoms: C_20  and  O_22
REMARK    9  A    between atoms: O_22  and  C_23
REMARK   10  A    between atoms: C_23  and  C_24
REMARK   11  A    between atoms: C_25  and  C_26
REMARK   12  A    between atoms: C_27  and  C_28
REMARK   13  A    between atoms: C_28  and  C_29
REMARK   14  A    between atoms: C_29  and  C_30
REMARK   15  A    between atoms: C_30  and  C_31
REMARK   16  A    between atoms: C_31  and  C_32
REMARK   17  A    between atoms: C_34  and  O_36
REMARK   18  A    between atoms: C_37  and  C_39
REMARK   19  A    between atoms: C_40  and  C_41
REMARK   20  A    between atoms: C_40  and  C_42
REMARK   21  A    between atoms: C_42  and  C_43
REMARK   22  A    between atoms: C_43  and  C_44
REMARK   23  A    between atoms: C_44  and  C_45
REMARK                            x       y       z     vdW  Elec       q    Type
REMARK                         _______ _______ _______ _____ _____    ______ ____
ROOT
ATOM      1  C   LIG A   1      -5.405   3.502 131.230  0.00  0.00    +0.138 C 
ATOM      2  C   LIG A   1      -6.889   3.526 131.407  0.00  0.00    +0.010 C 
ATOM      3  C   LIG A   1      -7.752   2.695 130.771  0.00  0.00    +0.013 C 
ATOM      4  C   LIG A   1      -9.073   3.229 130.286  0.00  0.00    +0.343 C 
ATOM      5  O   LIG A   1      -9.276   2.583 129.039  0.00  0.00    -0.297 OA
ATOM      6  C   LIG A   1      -8.026   1.990 128.574  0.00  0.00    +0.328 C 
ATOM      7  C   LIG A   1      -7.366   1.448 129.941  0.00  0.00    +0.103 C 
ATOM      8  C   LIG A   1      -8.032   0.038 130.057  0.00  0.00    +0.222 C 
ATOM      9  C   LIG A   1      -8.104  -0.630 131.393  0.00  0.00    +0.159 C 
ATOM     10  C   LIG A   1      -6.995  -0.206 132.337  0.00  0.00    +0.024 C 
ATOM     11  C   LIG A   1      -6.953  -1.290 133.434  0.00  0.00    +0.011 C 
ATOM     12  C   LIG A   1      -5.598   0.207 131.673  0.00  0.00    -0.023 C 
ATOM     13  C   LIG A   1      -4.879   0.974 132.817  0.00  0.00    +0.012 C 
ATOM     14  C   LIG A   1      -5.846   1.180 130.289  0.00  0.00    +0.018 C 
ATOM     15  C   LIG A   1      -4.991   2.450 130.225  0.00  0.00    +0.040 C 
ENDROOT
BRANCH   1  16
ATOM     16  O   LIG A   1      -5.012   4.764 130.698  0.00  0.00    -0.388 OA
ATOM     17  H   LIG A   1      -5.796   5.155 130.281  0.00  0.00    +0.210 HD
ENDBRANCH   1  16
BRANCH   9  18
ATOM     18  O   LIG A   1      -9.363  -0.303 132.015  0.00  0.00    -0.388 OA
ATOM     19  H   LIG A   1      -9.178   0.115 132.876  0.00  0.00    +0.210 HD
ENDBRANCH   9  18
BRANCH   8  20
ATOM     20  O   LIG A   1      -7.496  -0.984 129.093  0.00  0.00    -0.455 OA
BRANCH  20  21
ATOM     21  C   LIG A   1      -7.871  -2.187 128.630  0.00  0.00    +0.332 C 
ATOM     22  O   LIG A   1      -8.481  -3.114 129.096  0.00  0.00    -0.246 OA
BRANCH  21  23
ATOM     23  C   LIG A   1      -7.324  -2.433 127.303  0.00  0.00    +0.091 C 
ATOM     24  C   LIG A   1      -6.274  -1.733 126.915  0.00  0.00    +0.007 C 
BRANCH  24  25
ATOM     25  C   LIG A   1      -5.512  -1.989 125.777  0.00  0.00    -0.004 C 
ATOM     26  C   LIG A   1      -5.834  -2.905 124.880  0.00  0.00    -0.027 C 
BRANCH  26  27
ATOM     27  C   LIG A   1      -5.176  -2.980 123.541  0.00  0.00    +0.027 C 
BRANCH  27  28
ATOM     28  C   LIG A   1      -5.917  -2.257 122.404  0.00  0.00    +0.004 C 
BRANCH  28  29
ATOM     29  C   LIG A   1      -7.199  -1.519 122.844  0.00  0.00    +0.000 C 
BRANCH  29  30
ATOM     30  C   LIG A   1      -8.486  -2.223 122.413  0.00  0.00    -0.003 C 
ATOM     31  C   LIG A   1      -9.165  -3.062 123.491  0.00  0.00    +0.004 C 
ENDBRANCH  29  30
ENDBRANCH  28  29
ENDBRANCH  27  28
ENDBRANCH  26  27
ENDBRANCH  24  25
ENDBRANCH  21  23
ENDBRANCH  20  21
ENDBRANCH   8  20
BRANCH  12  32
ATOM     32  C   LIG A   1      -4.640  -1.071 131.487  0.00  0.00    +0.012 C 
BRANCH  32  33
ATOM     33  C   LIG A   1      -4.432  -1.612 130.029  0.00  0.00    +0.035 C 
BRANCH  33  34
ATOM     34  C   LIG A   1      -4.338  -3.132 129.822  0.00  0.00    -0.055 C 
ATOM     35  C   LIG A   1      -3.361  -3.669 129.064  0.00  0.00    +0.012 C 
BRANCH  34  36
ATOM     36  C   LIG A   1      -5.386  -4.006 130.333  0.00  0.00    -0.005 C 
ATOM     37  C   LIG A   1      -5.255  -4.786 131.418  0.00  0.00    +0.008 C 
ENDBRANCH  34  36
ENDBRANCH  33  34
ENDBRANCH  32  33
ENDBRANCH  12  32
BRANCH   6  38
ATOM     38  O   LIG A   1      -8.459   0.931 127.664  0.00  0.00    -0.434 OA
BRANCH  38  39
ATOM     39  C   LIG A   1      -8.823   1.255 126.393  0.00  0.00    +0.306 C 
ATOM     40  C   LIG A   1      -9.380   0.048 125.649  0.00  0.00    +0.136 C 
ATOM     41  O   LIG A   1      -8.720   2.356 125.882  0.00  0.00    -0.251 OA
ENDBRANCH  38  39
ENDBRANCH   6  38
BRANCH   4  42
ATOM     42  O   LIG A   1      -9.062   4.680 130.255  0.00  0.00    -0.431 OA
BRANCH  42  43
ATOM     43  C   LIG A   1     -10.210   5.397 130.203  0.00  0.00    +0.306 C 
ATOM     44  C   LIG A   1      -9.973   6.828 130.590  0.00  0.00    +0.136 C 
ATOM     45  O   LIG A   1     -11.318   4.997 129.876  0.00  0.00    -0.251 OA
ENDBRANCH  42  43
ENDBRANCH   4  42
TORSDOF 18
ENDMDL
MODEL 5
REMARK VINA RESULT:      -7.2      3.296      8.013
REMARK  Name = NuBBE_635
REMARK  23 active torsions:
REMARK  status: ('A' for Active; 'I' for Inactive)
REMARK    1  A    between atoms: O_1  and  C_2
REMARK    2  A    between atoms: C_6  and  O_8
REMARK    3  A    between atoms: O_8  and  C_9
REMARK    4  A    between atoms: C_9  and  C_10
REMARK    5  A    between atoms: C_13  and  O_15
REMARK    6  A    between atoms: O_15  and  C_16
REMARK    7  A    between atoms: C_16  and  C_17
REMARK    8  A    between atoms: C_20  and  O_22
REMARK    9  A    between atoms: O_22  and  C_23
REMARK   10  A    between atoms: C_23  and  C_24
REMARK   11  A    between atoms: C_25  and  C_26
REMARK   12  A    between atoms: C_27  and  C_28
REMARK   13  A    between atoms: C_28  and  C_29
REMARK   14  A    between atoms: C_29  and  C_30
REMARK   15  A    between atoms: C_30  and  C_31
REMARK   16  A    between atoms: C_31  and  C_32
REMARK   17  A    between atoms: C_34  and  O_36
REMARK   18  A    between atoms: C_37  and  C_39
REMARK   19  A    between atoms: C_40  and  C_41
REMARK   20  A    between atoms: C_40  and  C_42
REMARK   21  A    between atoms: C_42  and  C_43
REMARK   22  A    between atoms: C_43  and  C_44
REMARK   23  A    between atoms: C_44  and  C_45
REMARK                            x       y       z     vdW  Elec       q    Type
REMARK                         _______ _______ _______ _____ _____    ______ ____
ROOT
ATOM      1  C   LIG A   1      -4.258   0.448 132.700  0.00  0.00    +0.138 C 
ATOM      2  C   LIG A   1      -4.366   1.937 132.785  0.00  0.00    +0.010 C 
ATOM      3  C   LIG A   1      -4.711   2.743 131.750  0.00  0.00    +0.013 C 
ATOM      4  C   LIG A   1      -4.022   4.070 131.584  0.00  0.00    +0.343 C 
ATOM      5  O   LIG A   1      -3.859   4.207 130.181  0.00  0.00    -0.297 OA
ATOM      6  C   LIG A   1      -4.063   2.918 129.525  0.00  0.00    +0.328 C 
ATOM      7  C   LIG A   1      -5.267   2.277 130.384  0.00  0.00    +0.103 C 
ATOM      8  C   LIG A   1      -6.511   2.884 129.654  0.00  0.00    +0.222 C 
ATOM      9  C   LIG A   1      -7.816   2.967 130.380  0.00  0.00    +0.159 C 
ATOM     10  C   LIG A   1      -7.975   1.907 131.453  0.00  0.00    +0.024 C 
ATOM     11  C   LIG A   1      -9.488   1.850 131.753  0.00  0.00    +0.011 C 
ATOM     12  C   LIG A   1      -7.233   0.510 131.206  0.00  0.00    -0.023 C 
ATOM     13  C   LIG A   1      -7.229  -0.140 132.617  0.00  0.00    +0.012 C 
ATOM     14  C   LIG A   1      -5.655   0.758 130.596  0.00  0.00    +0.018 C 
ATOM     15  C   LIG A   1      -4.554  -0.041 131.299  0.00  0.00    +0.040 C 
ENDROOT
BRANCH   1  16
ATOM     16  O   LIG A   1      -2.908   0.095 132.987  0.00  0.00    -0.388 OA
ATOM     17  H   LIG A   1      -2.860  -0.875 132.990  0.00  0.00    +0.210 HD
ENDBRANCH   1  16
BRANCH   9  18
ATOM     18  O   LIG A   1      -7.920   4.258 131.015  0.00  0.00    -0.388 OA
ATOM     19  H   LIG A   1      -7.101   4.417 131.518  0.00  0.00    +0.210 HD
ENDBRANCH   9  18
BRANCH   8  20
ATOM     20  O   LIG A   1      -6.802   2.275 128.312  0.00  0.00    -0.455 OA
BRANCH  20  21
ATOM     21  C   LIG A   1      -7.862   2.161 127.495  0.00  0.00    +0.332 C 
ATOM     22  O   LIG A   1      -8.565   2.948 126.917  0.00  0.00    -0.246 OA
BRANCH  21  23
ATOM     23  C   LIG A   1      -8.288   0.774 127.377  0.00  0.00    +0.091 C 
ATOM     24  C   LIG A   1      -8.591   0.307 126.179  0.00  0.00    +0.007 C 
BRANCH  24  25
ATOM     25  C   LIG A   1      -8.809  -1.033 125.870  0.00  0.00    -0.004 C 
ATOM     26  C   LIG A   1      -8.391  -1.597 124.749  0.00  0.00    -0.027 C 
BRANCH  26  27
ATOM     27  C   LIG A   1      -8.382  -3.077 124.553  0.00  0.00    +0.027 C 
BRANCH  27  28
ATOM     28  C   LIG A   1      -6.998  -3.697 124.303  0.00  0.00    +0.004 C 
BRANCH  28  29
ATOM     29  C   LIG A   1      -5.979  -2.744 123.644  0.00  0.00    +0.000 C 
BRANCH  29  30
ATOM     30  C   LIG A   1      -4.565  -3.319 123.570  0.00  0.00    -0.003 C 
ATOM     31  C   LIG A   1      -4.476  -4.842 123.584  0.00  0.00    +0.004 C 
ENDBRANCH  29  30
ENDBRANCH  28  29
ENDBRANCH  27  28
ENDBRANCH  26  27
ENDBRANCH  24  25
ENDBRANCH  21  23
ENDBRANCH  20  21
ENDBRANCH   8  20
BRANCH  12  32
ATOM     32  C   LIG A   1      -8.167  -0.509 130.382  0.00  0.00    +0.012 C 
BRANCH  32  33
ATOM     33  C   LIG A   1      -7.793  -2.031 130.430  0.00  0.00    +0.035 C 
BRANCH  33  34
ATOM     34  C   LIG A   1      -7.396  -2.726 129.117  0.00  0.00    -0.055 C 
ATOM     35  C   LIG A   1      -8.262  -3.535 128.474  0.00  0.00    +0.012 C 
BRANCH  34  36
ATOM     36  C   LIG A   1      -6.031  -2.626 128.620  0.00  0.00    -0.005 C 
ATOM     37  C   LIG A   1      -5.668  -1.894 127.555  0.00  0.00    +0.008 C 
ENDBRANCH  34  36
ENDBRANCH  33  34
ENDBRANCH  32  33
ENDBRANCH  12  32
BRANCH   6  38
ATOM     38  O   LIG A   1      -4.434   3.278 128.158  0.00  0.00    -0.434 OA
BRANCH  38  39
ATOM     39  C   LIG A   1      -3.726   2.757 127.119  0.00  0.00    +0.306 C 
ATOM     40  C   LIG A   1      -2.290   3.264 127.117  0.00  0.00    +0.136 C 
ATOM     41  O   LIG A   1      -4.157   1.991 126.276  0.00  0.00    -0.251 OA
ENDBRANCH  38  39
ENDBRANCH   6  38
BRANCH   4  42
ATOM     42  O   LIG A   1      -2.805   4.123 132.373  0.00  0.00    -0.431 OA
BRANCH  42  43
ATOM     43  C   LIG A   1      -2.111   5.275 132.530  0.00  0.00    +0.306 C 
ATOM     44  C   LIG A   1      -3.025   6.417 132.864  0.00  0.00    +0.136 C 
ATOM     45  O   LIG A   1      -0.901   5.426 132.444  0.00  0.00    -0.251 OA
ENDBRANCH  42  43
ENDBRANCH   4  42
TORSDOF 18
ENDMDL
MODEL 6
REMARK VINA RESULT:      -7.2      2.622      8.070
REMARK  Name = NuBBE_635
REMARK  23 active torsions:
REMARK  status: ('A' for Active; 'I' for Inactive)
REMARK    1  A    between atoms: O_1  and  C_2
REMARK    2  A    between atoms: C_6  and  O_8
REMARK    3  A    between atoms: O_8  and  C_9
REMARK    4  A    between atoms: C_9  and  C_10
REMARK    5  A    between atoms: C_13  and  O_15
REMARK    6  A    between atoms: O_15  and  C_16
REMARK    7  A    between atoms: C_16  and  C_17
REMARK    8  A    between atoms: C_20  and  O_22
REMARK    9  A    between atoms: O_22  and  C_23
REMARK   10  A    between atoms: C_23  and  C_24
REMARK   11  A    between atoms: C_25  and  C_26
REMARK   12  A    between atoms: C_27  and  C_28
REMARK   13  A    between atoms: C_28  and  C_29
REMARK   14  A    between atoms: C_29  and  C_30
REMARK   15  A    between atoms: C_30  and  C_31
REMARK   16  A    between atoms: C_31  and  C_32
REMARK   17  A    between atoms: C_34  and  O_36
REMARK   18  A    between atoms: C_37  and  C_39
REMARK   19  A    between atoms: C_40  and  C_41
REMARK   20  A    between atoms: C_40  and  C_42
REMARK   21  A    between atoms: C_42  and  C_43
REMARK   22  A    between atoms: C_43  and  C_44
REMARK   23  A    between atoms: C_44  and  C_45
REMARK                            x       y       z     vdW  Elec       q    Type
REMARK                         _______ _______ _______ _____ _____    ______ ____
ROOT
ATOM      1  C   LIG A   1      -9.043   2.811 132.673  0.00  0.00    +0.138 C 
ATOM      2  C   LIG A   1      -9.620   3.731 131.644  0.00  0.00    +0.010 C 
ATOM      3  C   LIG A   1      -8.900   4.337 130.667  0.00  0.00    +0.013 C 
ATOM      4  C   LIG A   1      -9.225   5.755 130.281  0.00  0.00    +0.343 C 
ATOM      5  O   LIG A   1      -7.961   6.352 130.041  0.00  0.00    -0.297 OA
ATOM      6  C   LIG A   1      -6.900   5.518 130.600  0.00  0.00    +0.328 C 
ATOM      7  C   LIG A   1      -7.432   4.027 130.295  0.00  0.00    +0.103 C 
ATOM      8  C   LIG A   1      -6.888   3.806 128.845  0.00  0.00    +0.222 C 
ATOM      9  C   LIG A   1      -7.533   2.779 127.971  0.00  0.00    +0.159 C 
ATOM     10  C   LIG A   1      -8.178   1.647 128.748  0.00  0.00    +0.024 C 
ATOM     11  C   LIG A   1      -8.365   0.503 127.730  0.00  0.00    +0.011 C 
ATOM     12  C   LIG A   1      -7.512   1.263 130.153  0.00  0.00    -0.023 C 
ATOM     13  C   LIG A   1      -8.620   0.427 130.850  0.00  0.00    +0.012 C 
ATOM     14  C   LIG A   1      -7.100   2.668 131.036  0.00  0.00    +0.018 C 
ATOM     15  C   LIG A   1      -7.547   2.670 132.501  0.00  0.00    +0.040 C 
ENDROOT
BRANCH   1  16
ATOM     16  O   LIG A   1      -9.262   3.401 133.951  0.00  0.00    -0.388 OA
ATOM     17  H   LIG A   1     -10.140   3.115 134.251  0.00  0.00    +0.210 HD
ENDBRANCH   1  16
BRANCH   9  18
ATOM     18  O   LIG A   1      -8.560   3.411 127.180  0.00  0.00    -0.388 OA
ATOM     19  H   LIG A   1      -8.146   4.121 126.655  0.00  0.00    +0.210 HD
ENDBRANCH   9  18
BRANCH   8  20
ATOM     20  O   LIG A   1      -5.406   3.570 128.766  0.00  0.00    -0.455 OA
BRANCH  20  21
ATOM     21  C   LIG A   1      -4.476   3.484 127.801  0.00  0.00    +0.332 C 
ATOM     22  O   LIG A   1      -3.412   4.011 127.611  0.00  0.00    -0.246 OA
BRANCH  21  23
ATOM     23  C   LIG A   1      -4.927   2.627 126.713  0.00  0.00    +0.091 C 
ATOM     24  C   LIG A   1      -4.660   1.335 126.777  0.00  0.00    +0.007 C 
BRANCH  24  25
ATOM     25  C   LIG A   1      -5.195   0.361 125.937  0.00  0.00    -0.004 C 
ATOM     26  C   LIG A   1      -5.397  -0.890 126.313  0.00  0.00    -0.027 C 
BRANCH  26  27
ATOM     27  C   LIG A   1      -6.219  -1.844 125.509  0.00  0.00    +0.027 C 
BRANCH  27  28
ATOM     28  C   LIG A   1      -5.818  -1.969 124.030  0.00  0.00    +0.004 C 
BRANCH  28  29
ATOM     29  C   LIG A   1      -6.999  -1.897 123.038  0.00  0.00    +0.000 C 
BRANCH  29  30
ATOM     30  C   LIG A   1      -8.367  -1.893 123.717  0.00  0.00    -0.003 C 
ATOM     31  C   LIG A   1      -9.245  -3.107 123.428  0.00  0.00    +0.004 C 
ENDBRANCH  29  30
ENDBRANCH  28  29
ENDBRANCH  27  28
ENDBRANCH  26  27
ENDBRANCH  24  25
ENDBRANCH  21  23
ENDBRANCH  20  21
ENDBRANCH   8  20
BRANCH  12  32
ATOM     32  C   LIG A   1      -6.348   0.169 129.967  0.00  0.00    +0.012 C 
BRANCH  32  33
ATOM     33  C   LIG A   1      -6.542  -1.219 130.672  0.00  0.00    +0.035 C 
BRANCH  33  34
ATOM     34  C   LIG A   1      -6.680  -2.471 129.791  0.00  0.00    -0.055 C 
ATOM     35  C   LIG A   1      -5.594  -3.059 129.249  0.00  0.00    +0.012 C 
BRANCH  34  36
ATOM     36  C   LIG A   1      -8.000  -2.962 129.420  0.00  0.00    -0.005 C 
ATOM     37  C   LIG A   1      -8.367  -3.260 128.164  0.00  0.00    +0.008 C 
ENDBRANCH  34  36
ENDBRANCH  33  34
ENDBRANCH  32  33
ENDBRANCH  12  32
BRANCH   6  38
ATOM     38  O   LIG A   1      -5.717   5.895 129.829  0.00  0.00    -0.434 OA
BRANCH  38  39
ATOM     39  C   LIG A   1      -4.931   6.914 130.274  0.00  0.00    +0.306 C 
ATOM     40  C   LIG A   1      -4.630   6.775 131.760  0.00  0.00    +0.136 C 
ATOM     41  O   LIG A   1      -4.514   7.838 129.599  0.00  0.00    -0.251 OA
ENDBRANCH  38  39
ENDBRANCH   6  38
BRANCH   4  42
ATOM     42  O   LIG A   1     -10.045   6.391 131.295  0.00  0.00    -0.431 OA
BRANCH  42  43
ATOM     43  C   LIG A   1     -11.306   6.809 131.029  0.00  0.00    +0.306 C 
ATOM     44  C   LIG A   1     -11.349   7.643 129.782  0.00  0.00    +0.136 C 
ATOM     45  O   LIG A   1     -12.317   6.559 131.669  0.00  0.00    -0.251 OA
ENDBRANCH  42  43
ENDBRANCH   4  42
TORSDOF 18
ENDMDL
MODEL 7
REMARK VINA RESULT:      -7.1      3.146      7.659
REMARK  Name = NuBBE_635
REMARK  23 active torsions:
REMARK  status: ('A' for Active; 'I' for Inactive)
REMARK    1  A    between atoms: O_1  and  C_2
REMARK    2  A    between atoms: C_6  and  O_8
REMARK    3  A    between atoms: O_8  and  C_9
REMARK    4  A    between atoms: C_9  and  C_10
REMARK    5  A    between atoms: C_13  and  O_15
REMARK    6  A    between atoms: O_15  and  C_16
REMARK    7  A    between atoms: C_16  and  C_17
REMARK    8  A    between atoms: C_20  and  O_22
REMARK    9  A    between atoms: O_22  and  C_23
REMARK   10  A    between atoms: C_23  and  C_24
REMARK   11  A    between atoms: C_25  and  C_26
REMARK   12  A    between atoms: C_27  and  C_28
REMARK   13  A    between atoms: C_28  and  C_29
REMARK   14  A    between atoms: C_29  and  C_30
REMARK   15  A    between atoms: C_30  and  C_31
REMARK   16  A    between atoms: C_31  and  C_32
REMARK   17  A    between atoms: C_34  and  O_36
REMARK   18  A    between atoms: C_37  and  C_39
REMARK   19  A    between atoms: C_40  and  C_41
REMARK   20  A    between atoms: C_40  and  C_42
REMARK   21  A    between atoms: C_42  and  C_43
REMARK   22  A    between atoms: C_43  and  C_44
REMARK   23  A    between atoms: C_44  and  C_45
REMARK                            x       y       z     vdW  Elec       q    Type
REMARK                         _______ _______ _______ _____ _____    ______ ____
ROOT
ATOM      1  C   LIG A   1      -4.657   2.615 131.817  0.00  0.00    +0.138 C 
ATOM      2  C   LIG A   1      -4.976   4.071 131.699  0.00  0.00    +0.010 C 
ATOM      3  C   LIG A   1      -5.363   4.683 130.552  0.00  0.00    +0.013 C 
ATOM      4  C   LIG A   1      -4.856   6.065 130.242  0.00  0.00    +0.343 C 
ATOM      5  O   LIG A   1      -4.625   6.048 128.842  0.00  0.00    -0.297 OA
ATOM      6  C   LIG A   1      -4.606   4.671 128.355  0.00  0.00    +0.328 C 
ATOM      7  C   LIG A   1      -5.762   3.974 129.237  0.00  0.00    +0.103 C 
ATOM      8  C   LIG A   1      -7.029   4.297 128.378  0.00  0.00    +0.222 C 
ATOM      9  C   LIG A   1      -8.376   4.279 129.027  0.00  0.00    +0.159 C 
ATOM     10  C   LIG A   1      -8.455   3.350 130.223  0.00  0.00    +0.024 C 
ATOM     11  C   LIG A   1      -9.961   3.111 130.459  0.00  0.00    +0.011 C 
ATOM     12  C   LIG A   1      -7.512   2.056 130.197  0.00  0.00    -0.023 C 
ATOM     13  C   LIG A   1      -7.508   1.595 131.681  0.00  0.00    +0.012 C 
ATOM     14  C   LIG A   1      -5.948   2.453 129.631  0.00  0.00    +0.018 C 
ATOM     15  C   LIG A   1      -4.793   1.917 130.482  0.00  0.00    +0.040 C 
ENDROOT
BRANCH   1  16
ATOM     16  O   LIG A   1      -3.292   2.501 132.210  0.00  0.00    -0.388 OA
ATOM     17  H   LIG A   1      -3.249   2.705 133.158  0.00  0.00    +0.210 HD
ENDBRANCH   1  16
BRANCH   9  18
ATOM     18  O   LIG A   1      -8.699   5.610 129.479  0.00  0.00    -0.388 OA
ATOM     19  H   LIG A   1      -7.869   6.115 129.557  0.00  0.00    +0.210 HD
ENDBRANCH   9  18
BRANCH   8  20
ATOM     20  O   LIG A   1      -7.147   3.489 127.116  0.00  0.00    -0.455 OA
BRANCH  20  21
ATOM     21  C   LIG A   1      -7.990   3.417 126.073  0.00  0.00    +0.332 C 
ATOM     22  O   LIG A   1      -8.561   4.232 125.397  0.00  0.00    -0.246 OA
BRANCH  21  23
ATOM     23  C   LIG A   1      -8.343   2.036 125.778  0.00  0.00    +0.091 C 
ATOM     24  C   LIG A   1      -7.419   1.104 125.923  0.00  0.00    +0.007 C 
BRANCH  24  25
ATOM     25  C   LIG A   1      -7.648  -0.269 125.887  0.00  0.00    -0.004 C 
ATOM     26  C   LIG A   1      -8.821  -0.817 126.158  0.00  0.00    -0.027 C 
BRANCH  26  27
ATOM     27  C   LIG A   1      -9.128  -2.245 125.847  0.00  0.00    +0.027 C 
BRANCH  27  28
ATOM     28  C   LIG A   1      -8.680  -2.725 124.457  0.00  0.00    +0.004 C 
BRANCH  28  29
ATOM     29  C   LIG A   1      -7.564  -3.791 124.476  0.00  0.00    +0.000 C 
BRANCH  29  30
ATOM     30  C   LIG A   1      -6.156  -3.204 124.394  0.00  0.00    -0.003 C 
ATOM     31  C   LIG A   1      -5.890  -2.307 123.189  0.00  0.00    +0.004 C 
ENDBRANCH  29  30
ENDBRANCH  28  29
ENDBRANCH  27  28
ENDBRANCH  26  27
ENDBRANCH  24  25
ENDBRANCH  21  23
ENDBRANCH  20  21
ENDBRANCH   8  20
BRANCH  12  32
ATOM     32  C   LIG A   1      -8.241   0.817 129.474  0.00  0.00    +0.012 C 
BRANCH  32  33
ATOM     33  C   LIG A   1      -8.107  -0.593 130.148  0.00  0.00    +0.035 C 
BRANCH  33  34
ATOM     34  C   LIG A   1      -7.306  -1.679 129.412  0.00  0.00    -0.055 C 
ATOM     35  C   LIG A   1      -7.828  -2.905 129.208  0.00  0.00    +0.012 C 
BRANCH  34  36
ATOM     36  C   LIG A   1      -5.917  -1.439 129.042  0.00  0.00    -0.005 C 
ATOM     37  C   LIG A   1      -5.328  -1.953 127.951  0.00  0.00    +0.008 C 
ENDBRANCH  34  36
ENDBRANCH  33  34
ENDBRANCH  32  33
ENDBRANCH  12  32
BRANCH   6  38
ATOM     38  O   LIG A   1      -4.937   4.799 126.937  0.00  0.00    -0.434 OA
BRANCH  38  39
ATOM     39  C   LIG A   1      -4.231   4.078 126.023  0.00  0.00    +0.306 C 
ATOM     40  C   LIG A   1      -2.893   3.622 126.589  0.00  0.00    +0.136 C 
ATOM     41  O   LIG A   1      -4.590   3.821 124.888  0.00  0.00    -0.251 OA
ENDBRANCH  38  39
ENDBRANCH   6  38
BRANCH   4  42
ATOM     42  O   LIG A   1      -3.711   6.392 131.071  0.00  0.00    -0.431 OA
BRANCH  42  43
ATOM     43  C   LIG A   1      -2.442   6.244 130.619  0.00  0.00    +0.306 C 
ATOM     44  C   LIG A   1      -1.593   5.515 131.620  0.00  0.00    +0.136 C 
ATOM     45  O   LIG A   1      -1.992   6.614 129.545  0.00  0.00    -0.251 OA
ENDBRANCH  42  43
ENDBRANCH   4  42
TORSDOF 18
ENDMDL
MODEL 8
REMARK VINA RESULT:      -7.0      2.826      7.962
REMARK  Name = NuBBE_635
REMARK  23 active torsions:
REMARK  status: ('A' for Active; 'I' for Inactive)
REMARK    1  A    between atoms: O_1  and  C_2
REMARK    2  A    between atoms: C_6  and  O_8
REMARK    3  A    between atoms: O_8  and  C_9
REMARK    4  A    between atoms: C_9  and  C_10
REMARK    5  A    between atoms: C_13  and  O_15
REMARK    6  A    between atoms: O_15  and  C_16
REMARK    7  A    between atoms: C_16  and  C_17
REMARK    8  A    between atoms: C_20  and  O_22
REMARK    9  A    between atoms: O_22  and  C_23
REMARK   10  A    between atoms: C_23  and  C_24
REMARK   11  A    between atoms: C_25  and  C_26
REMARK   12  A    between atoms: C_27  and  C_28
REMARK   13  A    between atoms: C_28  and  C_29
REMARK   14  A    between atoms: C_29  and  C_30
REMARK   15  A    between atoms: C_30  and  C_31
REMARK   16  A    between atoms: C_31  and  C_32
REMARK   17  A    between atoms: C_34  and  O_36
REMARK   18  A    between atoms: C_37  and  C_39
REMARK   19  A    between atoms: C_40  and  C_41
REMARK   20  A    between atoms: C_40  and  C_42
REMARK   21  A    between atoms: C_42  and  C_43
REMARK   22  A    between atoms: C_43  and  C_44
REMARK   23  A    between atoms: C_44  and  C_45
REMARK                            x       y       z     vdW  Elec       q    Type
REMARK                         _______ _______ _______ _____ _____    ______ ____
ROOT
ATOM      1  C   LIG A   1      -9.326   3.269 132.681  0.00  0.00    +0.138 C 
ATOM      2  C   LIG A   1      -9.883   4.221 131.671  0.00  0.00    +0.010 C 
ATOM      3  C   LIG A   1      -9.138   4.907 130.770  0.00  0.00    +0.013 C 
ATOM      4  C   LIG A   1      -9.499   6.331 130.442  0.00  0.00    +0.343 C 
ATOM      5  O   LIG A   1      -8.248   6.987 130.304  0.00  0.00    -0.297 OA
ATOM      6  C   LIG A   1      -7.186   6.164 130.877  0.00  0.00    +0.328 C 
ATOM      7  C   LIG A   1      -7.640   4.673 130.465  0.00  0.00    +0.103 C 
ATOM      8  C   LIG A   1      -7.010   4.553 129.038  0.00  0.00    +0.222 C 
ATOM      9  C   LIG A   1      -7.565   3.551 128.076  0.00  0.00    +0.159 C 
ATOM     10  C   LIG A   1      -8.204   2.356 128.755  0.00  0.00    +0.024 C 
ATOM     11  C   LIG A   1      -8.290   1.263 127.669  0.00  0.00    +0.011 C 
ATOM     12  C   LIG A   1      -7.600   1.920 130.173  0.00  0.00    -0.023 C 
ATOM     13  C   LIG A   1      -8.709   1.006 130.762  0.00  0.00    +0.012 C 
ATOM     14  C   LIG A   1      -7.294   3.289 131.150  0.00  0.00    +0.018 C 
ATOM     15  C   LIG A   1      -7.818   3.193 132.586  0.00  0.00    +0.040 C 
ENDROOT
BRANCH   1  16
ATOM     16  O   LIG A   1      -9.637   3.778 133.975  0.00  0.00    -0.388 OA
ATOM     17  H   LIG A   1      -9.008   4.494 134.159  0.00  0.00    +0.210 HD
ENDBRANCH   1  16
BRANCH   9  18
ATOM     18  O   LIG A   1      -8.573   4.187 127.263  0.00  0.00    -0.388 OA
ATOM     19  H   LIG A   1      -8.705   3.646 126.463  0.00  0.00    +0.210 HD
ENDBRANCH   9  18
BRANCH   8  20
ATOM     20  O   LIG A   1      -5.518   4.377 129.029  0.00  0.00    -0.455 OA
BRANCH  20  21
ATOM     21  C   LIG A   1      -4.509   4.597 128.170  0.00  0.00    +0.332 C 
ATOM     22  O   LIG A   1      -3.623   5.408 128.105  0.00  0.00    -0.246 OA
BRANCH  21  23
ATOM     23  C   LIG A   1      -4.587   3.697 127.028  0.00  0.00    +0.091 C 
ATOM     24  C   LIG A   1      -4.367   2.409 127.224  0.00  0.00    +0.007 C 
BRANCH  24  25
ATOM     25  C   LIG A   1      -4.606   1.401 126.293  0.00  0.00    -0.004 C 
ATOM     26  C   LIG A   1      -5.148   0.237 126.607  0.00  0.00    -0.027 C 
BRANCH  26  27
ATOM     27  C   LIG A   1      -5.653  -0.715 125.573  0.00  0.00    +0.027 C 
BRANCH  27  28
ATOM     28  C   LIG A   1      -6.246  -2.023 126.120  0.00  0.00    +0.004 C 
BRANCH  28  29
ATOM     29  C   LIG A   1      -6.381  -2.073 127.656  0.00  0.00    +0.000 C 
BRANCH  29  30
ATOM     30  C   LIG A   1      -7.801  -2.372 128.135  0.00  0.00    -0.003 C 
ATOM     31  C   LIG A   1      -7.958  -2.557 129.641  0.00  0.00    +0.004 C 
ENDBRANCH  29  30
ENDBRANCH  28  29
ENDBRANCH  27  28
ENDBRANCH  26  27
ENDBRANCH  24  25
ENDBRANCH  21  23
ENDBRANCH  20  21
ENDBRANCH   8  20
BRANCH  12  32
ATOM     32  C   LIG A   1      -6.384   0.882 129.995  0.00  0.00    +0.012 C 
BRANCH  32  33
ATOM     33  C   LIG A   1      -5.850   0.167 131.285  0.00  0.00    +0.035 C 
BRANCH  33  34
ATOM     34  C   LIG A   1      -4.435   0.510 131.776  0.00  0.00    -0.055 C 
ATOM     35  C   LIG A   1      -3.693  -0.400 132.440  0.00  0.00    +0.012 C 
BRANCH  34  36
ATOM     36  C   LIG A   1      -3.925   1.868 131.648  0.00  0.00    -0.005 C 
ATOM     37  C   LIG A   1      -3.906   2.764 132.647  0.00  0.00    +0.008 C 
ENDBRANCH  34  36
ENDBRANCH  33  34
ENDBRANCH  32  33
ENDBRANCH  12  32
BRANCH   6  38
ATOM     38  O   LIG A   1      -5.979   6.628 130.195  0.00  0.00    -0.434 OA
BRANCH  38  39
ATOM     39  C   LIG A   1      -4.929   7.077 130.935  0.00  0.00    +0.306 C 
ATOM     40  C   LIG A   1      -4.861   6.377 132.285  0.00  0.00    +0.136 C 
ATOM     41  O   LIG A   1      -4.134   7.935 130.595  0.00  0.00    -0.251 OA
ENDBRANCH  38  39
ENDBRANCH   6  38
BRANCH   4  42
ATOM     42  O   LIG A   1     -10.397   6.879 131.441  0.00  0.00    -0.431 OA
BRANCH  42  43
ATOM     43  C   LIG A   1     -11.701   7.121 131.166  0.00  0.00    +0.306 C 
ATOM     44  C   LIG A   1     -11.849   7.931 129.911  0.00  0.00    +0.136 C 
ATOM     45  O   LIG A   1     -12.673   6.744 131.803  0.00  0.00    -0.251 OA
ENDBRANCH  42  43
ENDBRANCH   4  42
TORSDOF 18
ENDMDL
MODEL 9
REMARK VINA RESULT:      -7.0      3.558      7.590
REMARK  Name = NuBBE_635
REMARK  23 active torsions:
REMARK  status: ('A' for Active; 'I' for Inactive)
REMARK    1  A    between atoms: O_1  and  C_2
REMARK    2  A    between atoms: C_6  and  O_8
REMARK    3  A    between atoms: O_8  and  C_9
REMARK    4  A    between atoms: C_9  and  C_10
REMARK    5  A    between atoms: C_13  and  O_15
REMARK    6  A    between atoms: O_15  and  C_16
REMARK    7  A    between atoms: C_16  and  C_17
REMARK    8  A    between atoms: C_20  and  O_22
REMARK    9  A    between atoms: O_22  and  C_23
REMARK   10  A    between atoms: C_23  and  C_24
REMARK   11  A    between atoms: C_25  and  C_26
REMARK   12  A    between atoms: C_27  and  C_28
REMARK   13  A    between atoms: C_28  and  C_29
REMARK   14  A    between atoms: C_29  and  C_30
REMARK   15  A    between atoms: C_30  and  C_31
REMARK   16  A    between atoms: C_31  and  C_32
REMARK   17  A    between atoms: C_34  and  O_36
REMARK   18  A    between atoms: C_37  and  C_39
REMARK   19  A    between atoms: C_40  and  C_41
REMARK   20  A    between atoms: C_40  and  C_42
REMARK   21  A    between atoms: C_42  and  C_43
REMARK   22  A    between atoms: C_43  and  C_44
REMARK   23  A    between atoms: C_44  and  C_45
REMARK                            x       y       z     vdW  Elec       q    Type
REMARK                         _______ _______ _______ _____ _____    ______ ____
ROOT
ATOM      1  C   LIG A   1      -9.412   2.345 132.263  0.00  0.00    +0.138 C 
ATOM      2  C   LIG A   1      -9.995   3.109 131.117  0.00  0.00    +0.010 C 
ATOM      3  C   LIG A   1      -9.272   3.847 130.239  0.00  0.00    +0.013 C 
ATOM      4  C   LIG A   1      -9.822   5.158 129.745  0.00  0.00    +0.343 C 
ATOM      5  O   LIG A   1      -8.690   6.011 129.679  0.00  0.00    -0.297 OA
ATOM      6  C   LIG A   1      -7.582   5.430 130.432  0.00  0.00    +0.328 C 
ATOM      7  C   LIG A   1      -7.731   3.857 130.114  0.00  0.00    +0.103 C 
ATOM      8  C   LIG A   1      -6.926   3.744 128.777  0.00  0.00    +0.222 C 
ATOM      9  C   LIG A   1      -7.191   2.594 127.860  0.00  0.00    +0.159 C 
ATOM     10  C   LIG A   1      -7.699   1.357 128.576  0.00  0.00    +0.024 C 
ATOM     11  C   LIG A   1      -7.474   0.190 127.591  0.00  0.00    +0.011 C 
ATOM     12  C   LIG A   1      -7.202   1.139 130.082  0.00  0.00    -0.023 C 
ATOM     13  C   LIG A   1      -8.207   0.091 130.635  0.00  0.00    +0.012 C 
ATOM     14  C   LIG A   1      -7.244   2.608 130.956  0.00  0.00    +0.018 C 
ATOM     15  C   LIG A   1      -7.911   2.527 132.333  0.00  0.00    +0.040 C 
ENDROOT
BRANCH   1  16
ATOM     16  O   LIG A   1      -9.953   2.885 133.465  0.00  0.00    -0.388 OA
ATOM     17  H   LIG A   1      -9.849   2.210 134.154  0.00  0.00    +0.210 HD
ENDBRANCH   1  16
BRANCH   9  18
ATOM     18  O   LIG A   1      -8.186   2.983 126.891  0.00  0.00    -0.388 OA
ATOM     19  H   LIG A   1      -7.773   3.603 126.262  0.00  0.00    +0.210 HD
ENDBRANCH   9  18
BRANCH   8  20
ATOM     20  O   LIG A   1      -5.435   3.832 128.940  0.00  0.00    -0.455 OA
BRANCH  20  21
ATOM     21  C   LIG A   1      -4.372   4.039 128.146  0.00  0.00    +0.332 C 
ATOM     22  O   LIG A   1      -4.156   3.880 126.973  0.00  0.00    -0.246 OA
BRANCH  21  23
ATOM     23  C   LIG A   1      -3.212   4.460 128.920  0.00  0.00    +0.091 C 
ATOM     24  C   LIG A   1      -2.810   5.714 128.820  0.00  0.00    +0.007 C 
BRANCH  24  25
ATOM     25  C   LIG A   1      -1.863   6.322 129.641  0.00  0.00    -0.004 C 
ATOM     26  C   LIG A   1      -1.870   6.218 130.959  0.00  0.00    -0.027 C 
BRANCH  26  27
ATOM     27  C   LIG A   1      -0.708   6.632 131.800  0.00  0.00    +0.027 C 
BRANCH  27  28
ATOM     28  C   LIG A   1      -0.915   6.496 133.318  0.00  0.00    +0.004 C 
BRANCH  28  29
ATOM     29  C   LIG A   1      -1.057   7.837 134.068  0.00  0.00    +0.000 C 
BRANCH  29  30
ATOM     30  C   LIG A   1      -0.662   9.051 133.229  0.00  0.00    -0.003 C 
ATOM     31  C   LIG A   1       0.463   9.906 133.804  0.00  0.00    +0.004 C 
ENDBRANCH  29  30
ENDBRANCH  28  29
ENDBRANCH  27  28
ENDBRANCH  26  27
ENDBRANCH  24  25
ENDBRANCH  21  23
ENDBRANCH  20  21
ENDBRANCH   8  20
BRANCH  12  32
ATOM     32  C   LIG A   1      -5.819   0.319 130.128  0.00  0.00    +0.012 C 
BRANCH  32  33
ATOM     33  C   LIG A   1      -4.499   1.139 130.343  0.00  0.00    +0.035 C 
BRANCH  33  34
ATOM     34  C   LIG A   1      -4.062   1.452 131.783  0.00  0.00    -0.055 C 
ATOM     35  C   LIG A   1      -4.117   0.507 132.744  0.00  0.00    +0.012 C 
BRANCH  34  36
ATOM     36  C   LIG A   1      -3.709   2.814 132.161  0.00  0.00    -0.005 C 
ATOM     37  C   LIG A   1      -2.660   3.134 132.933  0.00  0.00    +0.008 C 
ENDBRANCH  34  36
ENDBRANCH  33  34
ENDBRANCH  32  33
ENDBRANCH  12  32
BRANCH   6  38
ATOM     38  O   LIG A   1      -6.396   6.046 129.839  0.00  0.00    -0.434 OA
BRANCH  38  39
ATOM     39  C   LIG A   1      -5.637   6.888 130.593  0.00  0.00    +0.306 C 
ATOM     40  C   LIG A   1      -5.478   6.368 132.015  0.00  0.00    +0.136 C 
ATOM     41  O   LIG A   1      -5.144   7.934 130.212  0.00  0.00    -0.251 OA
ENDBRANCH  38  39
ENDBRANCH   6  38
BRANCH   4  42
ATOM     42  O   LIG A   1     -10.911   5.612 130.591  0.00  0.00    -0.431 OA
BRANCH  42  43
ATOM     43  C   LIG A   1     -12.002   6.227 130.074  0.00  0.00    +0.306 C 
ATOM     44  C   LIG A   1     -12.536   7.265 131.017  0.00  0.00    +0.136 C 
ATOM     45  O   LIG A   1     -12.519   6.022 128.986  0.00  0.00    -0.251 OA
ENDBRANCH  42  43
ENDBRANCH   4  42
TORSDOF 18
ENDMDL
