MODEL 1
REMARK VINA RESULT:      -8.1      0.000      0.000
REMARK  Name = NuBBE_1626
REMARK  4 active torsions:
REMARK  status: ('A' for Active; 'I' for Inactive)
REMARK    1  A    between atoms: C_2  and  C_24
REMARK    2  A    between atoms: C_15  and  C_16
REMARK    3  A    between atoms: C_21  and  O_22
REMARK    4  A    between atoms: C_24  and  C_25
REMARK                            x       y       z     vdW  Elec       q    Type
REMARK                         _______ _______ _______ _____ _____    ______ ____
ROOT
ATOM      1  O   LIG A   1      -5.582  -2.481 122.925  0.00  0.00    -0.275 OA
ATOM      2  C   LIG A   1      -5.643  -2.826 124.108  0.00  0.00    +0.220 C 
ATOM      3  N   LIG A   1      -6.456  -2.213 125.042  0.00  0.00    -0.264 N 
ATOM      4  C   LIG A   1      -6.538  -2.537 126.496  0.00  0.00    +0.095 C 
ATOM      5  C   LIG A   1      -7.941  -2.033 126.949  0.00  0.00    +0.037 C 
ATOM      6  C   LIG A   1      -8.060  -1.674 128.445  0.00  0.00    +0.095 C 
ATOM      7  C   LIG A   1      -6.847  -0.962 128.981  0.00  0.00    -0.053 C 
ATOM      8  C   LIG A   1      -5.613  -1.801 128.776  0.00  0.00    +0.019 C 
ATOM      9  C   LIG A   1      -5.805  -3.195 129.412  0.00  0.00    +0.023 C 
ATOM     10  C   LIG A   1      -7.211  -3.413 129.993  0.00  0.00    +0.085 C 
ATOM     11  N   LIG A   1      -8.303  -2.968 129.126  0.00  0.00    -0.295 NA
ATOM     12  C   LIG A   1      -8.721  -3.956 128.125  0.00  0.00    +0.086 C 
ATOM     13  C   LIG A   1      -8.971  -3.165 126.848  0.00  0.00    +0.030 C 
ATOM     14  C   LIG A   1      -5.370  -1.871 127.261  0.00  0.00    +0.031 C 
ATOM     15  C   LIG A   1      -6.806   0.239 129.588  0.00  0.00    -0.029 C 
ATOM     16  C   LIG A   1      -7.951   1.150 129.896  0.00  0.00    +0.035 C 
ATOM     17  C   LIG A   1      -8.184  -0.957 125.924  0.00  0.00    -0.013 A 
ATOM     18  C   LIG A   1      -9.133   0.061 125.974  0.00  0.00    +0.006 A 
ATOM     19  C   LIG A   1      -9.236   0.935 124.894  0.00  0.00    +0.004 A 
ATOM     20  C   LIG A   1      -8.410   0.774 123.779  0.00  0.00    +0.047 A 
ATOM     21  C   LIG A   1      -7.469  -0.259 123.724  0.00  0.00    +0.139 A 
ATOM     22  C   LIG A   1      -7.341  -1.123 124.807  0.00  0.00    +0.082 A 
ENDROOT
BRANCH  21  23
ATOM     23  O   LIG A   1      -6.720  -0.296 122.588  0.00  0.00    -0.505 OA
ATOM     24  H   LIG A   1      -7.241  -0.755 121.894  0.00  0.00    +0.292 HD
ENDBRANCH  21  23
BRANCH   2  25
ATOM     25  C   LIG A   1      -4.842  -4.043 124.543  0.00  0.00    +0.093 C 
ATOM     26  C   LIG A   1      -4.223  -4.759 123.355  0.00  0.00    +0.013 C 
ENDBRANCH   2  25
TORSDOF 2
ENDMDL
MODEL 2
REMARK VINA RESULT:      -7.9      2.557      5.652
REMARK  Name = NuBBE_1626
REMARK  4 active torsions:
REMARK  status: ('A' for Active; 'I' for Inactive)
REMARK    1  A    between atoms: C_2  and  C_24
REMARK    2  A    between atoms: C_15  and  C_16
REMARK    3  A    between atoms: C_21  and  O_22
REMARK    4  A    between atoms: C_24  and  C_25
REMARK                            x       y       z     vdW  Elec       q    Type
REMARK                         _______ _______ _______ _____ _____    ______ ____
ROOT
ATOM      1  O   LIG A   1      -6.966   2.180 128.114  0.00  0.00    -0.275 OA
ATOM      2  C   LIG A   1      -7.387   1.536 127.150  0.00  0.00    +0.220 C 
ATOM      3  N   LIG A   1      -7.022   0.231 126.883  0.00  0.00    -0.264 N 
ATOM      4  C   LIG A   1      -7.444  -0.587 125.709  0.00  0.00    +0.095 C 
ATOM      5  C   LIG A   1      -7.282  -2.068 126.162  0.00  0.00    +0.037 C 
ATOM      6  C   LIG A   1      -7.049  -3.083 125.023  0.00  0.00    +0.095 C 
ATOM      7  C   LIG A   1      -6.127  -2.569 123.951  0.00  0.00    -0.053 C 
ATOM      8  C   LIG A   1      -6.666  -1.291 123.364  0.00  0.00    +0.019 C 
ATOM      9  C   LIG A   1      -8.106  -1.508 122.847  0.00  0.00    +0.023 C 
ATOM     10  C   LIG A   1      -8.656  -2.912 123.145  0.00  0.00    +0.085 C 
ATOM     11  N   LIG A   1      -8.404  -3.388 124.505  0.00  0.00    -0.295 NA
ATOM     12  C   LIG A   1      -9.396  -2.949 125.493  0.00  0.00    +0.086 C 
ATOM     13  C   LIG A   1      -8.600  -2.595 126.743  0.00  0.00    +0.030 C 
ATOM     14  C   LIG A   1      -6.591  -0.227 124.469  0.00  0.00    +0.031 C 
ATOM     15  C   LIG A   1      -4.984  -3.132 123.516  0.00  0.00    -0.029 C 
ATOM     16  C   LIG A   1      -4.361  -4.413 123.973  0.00  0.00    +0.035 C 
ATOM     17  C   LIG A   1      -6.223  -1.912 127.221  0.00  0.00    -0.013 A 
ATOM     18  C   LIG A   1      -5.438  -2.912 127.788  0.00  0.00    +0.006 A 
ATOM     19  C   LIG A   1      -4.543  -2.570 128.798  0.00  0.00    +0.004 A 
ATOM     20  C   LIG A   1      -4.454  -1.247 129.240  0.00  0.00    +0.047 A 
ATOM     21  C   LIG A   1      -5.254  -0.247 128.681  0.00  0.00    +0.139 A 
ATOM     22  C   LIG A   1      -6.135  -0.574 127.654  0.00  0.00    +0.082 A 
ENDROOT
BRANCH  21  23
ATOM     23  O   LIG A   1      -5.060   1.000 129.192  0.00  0.00    -0.505 OA
ATOM     24  H   LIG A   1      -5.577   1.072 130.023  0.00  0.00    +0.292 HD
ENDBRANCH  21  23
BRANCH   2  25
ATOM     25  C   LIG A   1      -8.428   2.187 126.253  0.00  0.00    +0.093 C 
ATOM     26  C   LIG A   1      -7.806   3.222 125.332  0.00  0.00    +0.013 C 
ENDBRANCH   2  25
TORSDOF 2
ENDMDL
MODEL 3
REMARK VINA RESULT:      -7.6      2.489      4.699
REMARK  Name = NuBBE_1626
REMARK  4 active torsions:
REMARK  status: ('A' for Active; 'I' for Inactive)
REMARK    1  A    between atoms: C_2  and  C_24
REMARK    2  A    between atoms: C_15  and  C_16
REMARK    3  A    between atoms: C_21  and  O_22
REMARK    4  A    between atoms: C_24  and  C_25
REMARK                            x       y       z     vdW  Elec       q    Type
REMARK                         _______ _______ _______ _____ _____    ______ ____
ROOT
ATOM      1  O   LIG A   1      -9.493  -1.543 123.735  0.00  0.00    -0.275 OA
ATOM      2  C   LIG A   1      -8.948  -0.590 124.297  0.00  0.00    +0.220 C 
ATOM      3  N   LIG A   1      -8.464  -0.639 125.591  0.00  0.00    -0.264 N 
ATOM      4  C   LIG A   1      -7.849   0.486 126.352  0.00  0.00    +0.095 C 
ATOM      5  C   LIG A   1      -6.970  -0.192 127.445  0.00  0.00    +0.037 C 
ATOM      6  C   LIG A   1      -6.725   0.655 128.711  0.00  0.00    +0.095 C 
ATOM      7  C   LIG A   1      -7.942   1.419 129.158  0.00  0.00    -0.053 C 
ATOM      8  C   LIG A   1      -8.431   2.320 128.054  0.00  0.00    +0.019 C 
ATOM      9  C   LIG A   1      -7.293   3.251 127.583  0.00  0.00    +0.023 C 
ATOM     10  C   LIG A   1      -5.947   2.967 128.270  0.00  0.00    +0.085 C 
ATOM     11  N   LIG A   1      -5.597   1.549 128.356  0.00  0.00    -0.295 NA
ATOM     12  C   LIG A   1      -4.933   1.017 127.160  0.00  0.00    +0.086 C 
ATOM     13  C   LIG A   1      -5.532  -0.366 126.940  0.00  0.00    +0.030 C 
ATOM     14  C   LIG A   1      -8.948   1.407 126.932  0.00  0.00    +0.031 C 
ATOM     15  C   LIG A   1      -8.543   1.368 130.362  0.00  0.00    -0.029 C 
ATOM     16  C   LIG A   1      -8.140   0.561 131.554  0.00  0.00    +0.035 C 
ATOM     17  C   LIG A   1      -7.682  -1.511 127.583  0.00  0.00    -0.013 A 
ATOM     18  C   LIG A   1      -7.556  -2.437 128.615  0.00  0.00    +0.006 A 
ATOM     19  C   LIG A   1      -8.268  -3.632 128.534  0.00  0.00    +0.004 A 
ATOM     20  C   LIG A   1      -9.076  -3.895 127.425  0.00  0.00    +0.047 A 
ATOM     21  C   LIG A   1      -9.188  -2.971 126.382  0.00  0.00    +0.139 A 
ATOM     22  C   LIG A   1      -8.501  -1.763 126.465  0.00  0.00    +0.082 A 
ENDROOT
BRANCH  21  23
ATOM     23  O   LIG A   1     -10.018  -3.343 125.369  0.00  0.00    -0.505 OA
ATOM     24  H   LIG A   1      -9.645  -2.999 124.529  0.00  0.00    +0.292 HD
ENDBRANCH  21  23
BRANCH   2  25
ATOM     25  C   LIG A   1      -8.721   0.682 123.496  0.00  0.00    +0.093 C 
ATOM     26  C   LIG A   1      -9.964   1.086 122.723  0.00  0.00    +0.013 C 
ENDBRANCH   2  25
TORSDOF 2
ENDMDL
MODEL 4
REMARK VINA RESULT:      -7.5      2.374      4.515
REMARK  Name = NuBBE_1626
REMARK  4 active torsions:
REMARK  status: ('A' for Active; 'I' for Inactive)
REMARK    1  A    between atoms: C_2  and  C_24
REMARK    2  A    between atoms: C_15  and  C_16
REMARK    3  A    between atoms: C_21  and  O_22
REMARK    4  A    between atoms: C_24  and  C_25
REMARK                            x       y       z     vdW  Elec       q    Type
REMARK                         _______ _______ _______ _____ _____    ______ ____
ROOT
ATOM      1  O   LIG A   1      -9.817   0.609 122.583  0.00  0.00    -0.275 OA
ATOM      2  C   LIG A   1      -9.197   1.058 123.551  0.00  0.00    +0.220 C 
ATOM      3  N   LIG A   1      -8.565   0.264 124.489  0.00  0.00    -0.264 N 
ATOM      4  C   LIG A   1      -7.850   0.732 125.711  0.00  0.00    +0.095 C 
ATOM      5  C   LIG A   1      -6.857  -0.414 126.069  0.00  0.00    +0.037 C 
ATOM      6  C   LIG A   1      -6.453  -0.495 127.556  0.00  0.00    +0.095 C 
ATOM      7  C   LIG A   1      -7.600  -0.237 128.495  0.00  0.00    -0.053 C 
ATOM      8  C   LIG A   1      -8.205   1.116 128.227  0.00  0.00    +0.019 C 
ATOM      9  C   LIG A   1      -7.118   2.211 128.310  0.00  0.00    +0.023 C 
ATOM     10  C   LIG A   1      -5.704   1.652 128.540  0.00  0.00    +0.085 C 
ATOM     11  N   LIG A   1      -5.364   0.498 127.707  0.00  0.00    -0.295 NA
ATOM     12  C   LIG A   1      -4.853   0.844 126.376  0.00  0.00    +0.086 C 
ATOM     13  C   LIG A   1      -5.491  -0.156 125.420  0.00  0.00    +0.030 C 
ATOM     14  C   LIG A   1      -8.862   1.042 126.840  0.00  0.00    +0.031 C 
ATOM     15  C   LIG A   1      -8.055  -1.045 129.472  0.00  0.00    -0.029 C 
ATOM     16  C   LIG A   1      -7.524  -2.383 129.876  0.00  0.00    +0.035 C 
ATOM     17  C   LIG A   1      -7.564  -1.588 125.445  0.00  0.00    -0.013 A 
ATOM     18  C   LIG A   1      -7.329  -2.940 125.679  0.00  0.00    +0.006 A 
ATOM     19  C   LIG A   1      -8.060  -3.881 124.958  0.00  0.00    +0.004 A 
ATOM     20  C   LIG A   1      -8.997  -3.467 124.008  0.00  0.00    +0.047 A 
ATOM     21  C   LIG A   1      -9.220  -2.109 123.763  0.00  0.00    +0.139 A 
ATOM     22  C   LIG A   1      -8.512  -1.159 124.494  0.00  0.00    +0.082 A 
ENDROOT
BRANCH  21  23
ATOM     23  O   LIG A   1     -10.167  -1.841 122.824  0.00  0.00    -0.505 OA
ATOM     24  H   LIG A   1     -11.018  -1.680 123.287  0.00  0.00    +0.292 HD
ENDBRANCH  21  23
BRANCH   2  25
ATOM     25  C   LIG A   1      -9.051   2.566 123.674  0.00  0.00    +0.093 C 
ATOM     26  C   LIG A   1      -8.058   3.116 122.665  0.00  0.00    +0.013 C 
ENDBRANCH   2  25
TORSDOF 2
ENDMDL
MODEL 5
REMARK VINA RESULT:      -7.4      2.995      6.127
REMARK  Name = NuBBE_1626
REMARK  4 active torsions:
REMARK  status: ('A' for Active; 'I' for Inactive)
REMARK    1  A    between atoms: C_2  and  C_24
REMARK    2  A    between atoms: C_15  and  C_16
REMARK    3  A    between atoms: C_21  and  O_22
REMARK    4  A    between atoms: C_24  and  C_25
REMARK                            x       y       z     vdW  Elec       q    Type
REMARK                         _______ _______ _______ _____ _____    ______ ____
ROOT
ATOM      1  O   LIG A   1      -6.462   0.632 131.669  0.00  0.00    -0.275 OA
ATOM      2  C   LIG A   1      -7.147   0.290 130.702  0.00  0.00    +0.220 C 
ATOM      3  N   LIG A   1      -6.740  -0.644 129.769  0.00  0.00    -0.264 N 
ATOM      4  C   LIG A   1      -7.488  -1.062 128.548  0.00  0.00    +0.095 C 
ATOM      5  C   LIG A   1      -6.940  -2.477 128.197  0.00  0.00    +0.037 C 
ATOM      6  C   LIG A   1      -7.055  -2.878 126.711  0.00  0.00    +0.095 C 
ATOM      7  C   LIG A   1      -6.745  -1.748 125.767  0.00  0.00    -0.053 C 
ATOM      8  C   LIG A   1      -7.659  -0.579 126.030  0.00  0.00    +0.019 C 
ATOM      9  C   LIG A   1      -9.134  -1.027 125.948  0.00  0.00    +0.023 C 
ATOM     10  C   LIG A   1      -9.302  -2.539 125.723  0.00  0.00    +0.085 C 
ATOM     11  N   LIG A   1      -8.442  -3.377 126.561  0.00  0.00    -0.295 NA
ATOM     12  C   LIG A   1      -8.989  -3.661 127.893  0.00  0.00    +0.086 C 
ATOM     13  C   LIG A   1      -7.807  -3.561 128.849  0.00  0.00    +0.030 C 
ATOM     14  C   LIG A   1      -7.287  -0.027 127.415  0.00  0.00    +0.031 C 
ATOM     15  C   LIG A   1      -5.817  -1.728 124.792  0.00  0.00    -0.029 C 
ATOM     16  C   LIG A   1      -4.883  -2.825 124.393  0.00  0.00    +0.035 C 
ATOM     17  C   LIG A   1      -5.571  -2.399 128.822  0.00  0.00    -0.013 A 
ATOM     18  C   LIG A   1      -4.486  -3.240 128.592  0.00  0.00    +0.006 A 
ATOM     19  C   LIG A   1      -3.313  -3.032 129.313  0.00  0.00    +0.004 A 
ATOM     20  C   LIG A   1      -3.242  -2.006 130.259  0.00  0.00    +0.047 A 
ATOM     21  C   LIG A   1      -4.338  -1.173 130.499  0.00  0.00    +0.139 A 
ATOM     22  C   LIG A   1      -5.508  -1.357 129.768  0.00  0.00    +0.082 A 
ENDROOT
BRANCH  21  23
ATOM     23  O   LIG A   1      -4.132  -0.206 131.435  0.00  0.00    -0.505 OA
ATOM     24  H   LIG A   1      -4.352  -0.582 132.315  0.00  0.00    +0.292 HD
ENDBRANCH  21  23
BRANCH   2  25
ATOM     25  C   LIG A   1      -8.549   0.866 130.576  0.00  0.00    +0.093 C 
ATOM     26  C   LIG A   1      -9.282   0.851 131.906  0.00  0.00    +0.013 C 
ENDBRANCH   2  25
TORSDOF 2
ENDMDL
MODEL 6
REMARK VINA RESULT:      -7.3      3.111      5.571
REMARK  Name = NuBBE_1626
REMARK  4 active torsions:
REMARK  status: ('A' for Active; 'I' for Inactive)
REMARK    1  A    between atoms: C_2  and  C_24
REMARK    2  A    between atoms: C_15  and  C_16
REMARK    3  A    between atoms: C_21  and  O_22
REMARK    4  A    between atoms: C_24  and  C_25
REMARK                            x       y       z     vdW  Elec       q    Type
REMARK                         _______ _______ _______ _____ _____    ______ ____
ROOT
ATOM      1  O   LIG A   1      -5.925   4.927 124.312  0.00  0.00    -0.275 OA
ATOM      2  C   LIG A   1      -6.287   3.841 123.851  0.00  0.00    +0.220 C 
ATOM      3  N   LIG A   1      -6.954   2.882 124.590  0.00  0.00    -0.264 N 
ATOM      4  C   LIG A   1      -7.369   1.529 124.118  0.00  0.00    +0.095 C 
ATOM      5  C   LIG A   1      -8.543   1.112 125.053  0.00  0.00    +0.037 C 
ATOM      6  C   LIG A   1      -8.749  -0.409 125.213  0.00  0.00    +0.095 C 
ATOM      7  C   LIG A   1      -7.458  -1.174 125.317  0.00  0.00    -0.053 C 
ATOM      8  C   LIG A   1      -6.598  -0.922 124.106  0.00  0.00    +0.019 C 
ATOM      9  C   LIG A   1      -7.380  -1.261 122.818  0.00  0.00    +0.023 C 
ATOM     10  C   LIG A   1      -8.840  -1.665 123.078  0.00  0.00    +0.085 C 
ATOM     11  N   LIG A   1      -9.548  -0.807 124.030  0.00  0.00    -0.295 NA
ATOM     12  C   LIG A   1     -10.141   0.395 123.433  0.00  0.00    +0.086 C 
ATOM     13  C   LIG A   1      -9.887   1.516 124.434  0.00  0.00    +0.030 C 
ATOM     14  C   LIG A   1      -6.170   0.552 124.165  0.00  0.00    +0.031 C 
ATOM     15  C   LIG A   1      -7.075  -2.000 126.310  0.00  0.00    -0.029 C 
ATOM     16  C   LIG A   1      -7.841  -2.375 127.537  0.00  0.00    +0.035 C 
ATOM     17  C   LIG A   1      -8.217   1.930 126.275  0.00  0.00    -0.013 A 
ATOM     18  C   LIG A   1      -8.725   1.770 127.561  0.00  0.00    +0.006 A 
ATOM     19  C   LIG A   1      -8.336   2.669 128.552  0.00  0.00    +0.004 A 
ATOM     20  C   LIG A   1      -7.467   3.719 128.247  0.00  0.00    +0.047 A 
ATOM     21  C   LIG A   1      -6.970   3.887 126.951  0.00  0.00    +0.139 A 
ATOM     22  C   LIG A   1      -7.334   2.981 125.959  0.00  0.00    +0.082 A 
ENDROOT
BRANCH  21  23
ATOM     23  O   LIG A   1      -6.122   4.940 126.791  0.00  0.00    -0.505 OA
ATOM     24  H   LIG A   1      -6.033   5.115 125.829  0.00  0.00    +0.292 HD
ENDBRANCH  21  23
BRANCH   2  25
ATOM     25  C   LIG A   1      -6.063   3.578 122.371  0.00  0.00    +0.093 C 
ATOM     26  C   LIG A   1      -4.951   4.448 121.811  0.00  0.00    +0.013 C 
ENDBRANCH   2  25
TORSDOF 2
ENDMDL
MODEL 7
REMARK VINA RESULT:      -7.3      2.628      5.411
REMARK  Name = NuBBE_1626
REMARK  4 active torsions:
REMARK  status: ('A' for Active; 'I' for Inactive)
REMARK    1  A    between atoms: C_2  and  C_24
REMARK    2  A    between atoms: C_15  and  C_16
REMARK    3  A    between atoms: C_21  and  O_22
REMARK    4  A    between atoms: C_24  and  C_25
REMARK                            x       y       z     vdW  Elec       q    Type
REMARK                         _______ _______ _______ _____ _____    ______ ____
ROOT
ATOM      1  O   LIG A   1      -7.237  -2.658 129.487  0.00  0.00    -0.275 OA
ATOM      2  C   LIG A   1      -7.514  -2.781 128.291  0.00  0.00    +0.220 C 
ATOM      3  N   LIG A   1      -7.127  -1.877 127.320  0.00  0.00    -0.264 N 
ATOM      4  C   LIG A   1      -7.473  -1.929 125.870  0.00  0.00    +0.095 C 
ATOM      5  C   LIG A   1      -6.364  -1.100 125.155  0.00  0.00    +0.037 C 
ATOM      6  C   LIG A   1      -6.776  -0.477 123.805  0.00  0.00    +0.095 C 
ATOM      7  C   LIG A   1      -8.177   0.073 123.809  0.00  0.00    -0.053 C 
ATOM      8  C   LIG A   1      -9.164  -1.006 124.171  0.00  0.00    +0.019 C 
ATOM      9  C   LIG A   1      -9.008  -2.211 123.218  0.00  0.00    +0.023 C 
ATOM     10  C   LIG A   1      -7.846  -2.058 122.224  0.00  0.00    +0.085 C 
ATOM     11  N   LIG A   1      -6.600  -1.568 122.816  0.00  0.00    -0.295 NA
ATOM     12  C   LIG A   1      -5.762  -2.614 123.412  0.00  0.00    +0.086 C 
ATOM     13  C   LIG A   1      -5.220  -2.017 124.705  0.00  0.00    +0.030 C 
ATOM     14  C   LIG A   1      -8.899  -1.376 125.638  0.00  0.00    +0.031 C 
ATOM     15  C   LIG A   1      -8.562   1.330 123.518  0.00  0.00    -0.029 C 
ATOM     16  C   LIG A   1      -7.702   2.480 123.101  0.00  0.00    +0.035 C 
ATOM     17  C   LIG A   1      -5.946  -0.186 126.276  0.00  0.00    -0.013 A 
ATOM     18  C   LIG A   1      -5.201   0.986 126.180  0.00  0.00    +0.006 A 
ATOM     19  C   LIG A   1      -4.870   1.668 127.348  0.00  0.00    +0.004 A 
ATOM     20  C   LIG A   1      -5.269   1.168 128.591  0.00  0.00    +0.047 A 
ATOM     21  C   LIG A   1      -6.003  -0.018 128.686  0.00  0.00    +0.139 A 
ATOM     22  C   LIG A   1      -6.359  -0.694 127.523  0.00  0.00    +0.082 A 
ENDROOT
BRANCH  21  23
ATOM     23  O   LIG A   1      -6.339  -0.387 129.953  0.00  0.00    -0.505 OA
ATOM     24  H   LIG A   1      -5.520  -0.668 130.415  0.00  0.00    +0.292 HD
ENDBRANCH  21  23
BRANCH   2  25
ATOM     25  C   LIG A   1      -8.249  -4.036 127.849  0.00  0.00    +0.093 C 
ATOM     26  C   LIG A   1      -9.676  -4.061 128.367  0.00  0.00    +0.013 C 
ENDBRANCH   2  25
TORSDOF 2
ENDMDL
MODEL 8
REMARK VINA RESULT:      -7.3      2.806      4.835
REMARK  Name = NuBBE_1626
REMARK  4 active torsions:
REMARK  status: ('A' for Active; 'I' for Inactive)
REMARK    1  A    between atoms: C_2  and  C_24
REMARK    2  A    between atoms: C_15  and  C_16
REMARK    3  A    between atoms: C_21  and  O_22
REMARK    4  A    between atoms: C_24  and  C_25
REMARK                            x       y       z     vdW  Elec       q    Type
REMARK                         _______ _______ _______ _____ _____    ______ ____
ROOT
ATOM      1  O   LIG A   1      -4.164  -1.245 129.769  0.00  0.00    -0.275 OA
ATOM      2  C   LIG A   1      -4.932  -1.811 128.987  0.00  0.00    +0.220 C 
ATOM      3  N   LIG A   1      -5.496  -1.192 127.888  0.00  0.00    -0.264 N 
ATOM      4  C   LIG A   1      -6.475  -1.794 126.936  0.00  0.00    +0.095 C 
ATOM      5  C   LIG A   1      -6.330  -0.967 125.624  0.00  0.00    +0.037 C 
ATOM      6  C   LIG A   1      -7.581  -0.941 124.721  0.00  0.00    +0.095 C 
ATOM      7  C   LIG A   1      -8.866  -0.819 125.494  0.00  0.00    -0.053 C 
ATOM      8  C   LIG A   1      -8.998  -1.952 126.478  0.00  0.00    +0.019 C 
ATOM      9  C   LIG A   1      -8.876  -3.308 125.748  0.00  0.00    +0.023 C 
ATOM     10  C   LIG A   1      -8.559  -3.169 124.250  0.00  0.00    +0.085 C 
ATOM     11  N   LIG A   1      -7.509  -2.198 123.939  0.00  0.00    -0.295 NA
ATOM     12  C   LIG A   1      -6.146  -2.732 124.030  0.00  0.00    +0.086 C 
ATOM     13  C   LIG A   1      -5.318  -1.633 124.684  0.00  0.00    +0.030 C 
ATOM     14  C   LIG A   1      -7.901  -1.751 127.535  0.00  0.00    +0.031 C 
ATOM     15  C   LIG A   1      -9.816   0.127 125.358  0.00  0.00    -0.029 C 
ATOM     16  C   LIG A   1      -9.838   1.272 124.397  0.00  0.00    +0.035 C 
ATOM     17  C   LIG A   1      -5.812   0.333 126.180  0.00  0.00    -0.013 A 
ATOM     18  C   LIG A   1      -5.768   1.570 125.542  0.00  0.00    +0.006 A 
ATOM     19  C   LIG A   1      -5.199   2.650 126.212  0.00  0.00    +0.004 A 
ATOM     20  C   LIG A   1      -4.668   2.482 127.494  0.00  0.00    +0.047 A 
ATOM     21  C   LIG A   1      -4.699   1.236 128.126  0.00  0.00    +0.139 A 
ATOM     22  C   LIG A   1      -5.287   0.155 127.475  0.00  0.00    +0.082 A 
ENDROOT
BRANCH  21  23
ATOM     23  O   LIG A   1      -4.162   1.211 129.377  0.00  0.00    -0.505 OA
ATOM     24  H   LIG A   1      -4.759   1.712 129.974  0.00  0.00    +0.292 HD
ENDBRANCH  21  23
BRANCH   2  25
ATOM     25  C   LIG A   1      -5.208  -3.291 129.197  0.00  0.00    +0.093 C 
ATOM     26  C   LIG A   1      -6.210  -3.520 130.315  0.00  0.00    +0.013 C 
ENDBRANCH   2  25
TORSDOF 2
ENDMDL
MODEL 9
REMARK VINA RESULT:      -7.2      6.077      7.841
REMARK  Name = NuBBE_1626
REMARK  4 active torsions:
REMARK  status: ('A' for Active; 'I' for Inactive)
REMARK    1  A    between atoms: C_2  and  C_24
REMARK    2  A    between atoms: C_15  and  C_16
REMARK    3  A    between atoms: C_21  and  O_22
REMARK    4  A    between atoms: C_24  and  C_25
REMARK                            x       y       z     vdW  Elec       q    Type
REMARK                         _______ _______ _______ _____ _____    ______ ____
ROOT
ATOM      1  O   LIG A   1      -8.421   4.959 127.155  0.00  0.00    -0.275 OA
ATOM      2  C   LIG A   1      -7.947   4.271 128.062  0.00  0.00    +0.220 C 
ATOM      3  N   LIG A   1      -8.333   4.379 129.385  0.00  0.00    -0.264 N 
ATOM      4  C   LIG A   1      -7.765   3.624 130.539  0.00  0.00    +0.095 C 
ATOM      5  C   LIG A   1      -8.878   3.645 131.629  0.00  0.00    +0.037 C 
ATOM      6  C   LIG A   1      -8.379   3.503 133.083  0.00  0.00    +0.095 C 
ATOM      7  C   LIG A   1      -7.114   4.272 133.352  0.00  0.00    -0.053 C 
ATOM      8  C   LIG A   1      -6.021   3.829 132.415  0.00  0.00    +0.019 C 
ATOM      9  C   LIG A   1      -5.815   2.302 132.520  0.00  0.00    +0.023 C 
ATOM     10  C   LIG A   1      -6.820   1.613 133.458  0.00  0.00    +0.085 C 
ATOM     11  N   LIG A   1      -8.208   2.045 133.283  0.00  0.00    -0.295 NA
ATOM     12  C   LIG A   1      -8.932   1.335 132.222  0.00  0.00    +0.086 C 
ATOM     13  C   LIG A   1      -9.762   2.397 131.512  0.00  0.00    +0.030 C 
ATOM     14  C   LIG A   1      -6.438   4.271 131.004  0.00  0.00    +0.031 C 
ATOM     15  C   LIG A   1      -6.914   5.214 134.293  0.00  0.00    -0.029 C 
ATOM     16  C   LIG A   1      -7.888   5.713 135.312  0.00  0.00    +0.035 C 
ATOM     17  C   LIG A   1      -9.617   4.897 131.236  0.00  0.00    -0.013 A 
ATOM     18  C   LIG A   1     -10.531   5.616 132.001  0.00  0.00    +0.006 A 
ATOM     19  C   LIG A   1     -11.151   6.727 131.435  0.00  0.00    +0.004 A 
ATOM     20  C   LIG A   1     -10.867   7.096 130.117  0.00  0.00    +0.047 A 
ATOM     21  C   LIG A   1      -9.960   6.363 129.346  0.00  0.00    +0.139 A 
ATOM     22  C   LIG A   1      -9.317   5.264 129.909  0.00  0.00    +0.082 A 
ENDROOT
BRANCH  21  23
ATOM     23  O   LIG A   1      -9.762   6.835 128.084  0.00  0.00    -0.505 OA
ATOM     24  H   LIG A   1      -9.842   6.081 127.461  0.00  0.00    +0.292 HD
ENDBRANCH  21  23
BRANCH   2  25
ATOM     25  C   LIG A   1      -6.945   3.188 127.694  0.00  0.00    +0.093 C 
ATOM     26  C   LIG A   1      -5.582   3.774 127.372  0.00  0.00    +0.013 C 
ENDBRANCH   2  25
TORSDOF 2
ENDMDL
