MODEL 1
REMARK VINA RESULT:      -7.0      0.000      0.000
REMARK  Name = NuBBE_2093
REMARK  8 active torsions:
REMARK  status: ('A' for Active; 'I' for Inactive)
REMARK    1  A    between atoms: C_1  and  C_2
REMARK    2  A    between atoms: C_2  and  C_3
REMARK    3  A    between atoms: C_2  and  O_4
REMARK    4  A    between atoms: C_2  and  C_5
REMARK    5  A    between atoms: C_5  and  N_6
REMARK    6  A    between atoms: C_7  and  C_9
REMARK    7  A    between atoms: C_10  and  C_11
REMARK    8  A    between atoms: C_12  and  C_13
REMARK                            x       y       z     vdW  Elec       q    Type
REMARK                         _______ _______ _______ _____ _____    ______ ____
ROOT
ATOM      1  C   LIG A   1      -8.461  -2.338 126.435  0.00  0.00    +0.067 C 
ATOM      2  C   LIG A   1      -8.949  -3.381 127.122  0.00  0.00    +0.005 C 
ENDROOT
BRANCH   1   4
ATOM      3  N   LIG A   1      -8.479  -0.870 124.565  0.00  0.00    -0.309 N 
ATOM      4  C   LIG A   1      -8.936  -2.064 125.062  0.00  0.00    +0.237 C 
ATOM      5  O   LIG A   1      -9.668  -2.840 124.454  0.00  0.00    -0.271 OA
ATOM      6  H   LIG A   1      -8.026  -0.210 125.184  0.00  0.00    +0.149 HD
BRANCH   3   7
ATOM      7  C   LIG A   1      -8.856  -0.387 123.246  0.00  0.00    +0.138 C 
BRANCH   7   9
ATOM      8  C   LIG A   1      -9.190   2.045 122.523  0.00  0.00    +0.042 C 
ATOM      9  C   LIG A   1      -9.789   0.849 123.264  0.00  0.00    +0.076 C 
ATOM     10  C   LIG A   1     -10.098   1.243 124.713  0.00  0.00    +0.042 C 
BRANCH   9  11
ATOM     11  O   LIG A   1     -11.032   0.494 122.638  0.00  0.00    -0.388 OA
ATOM     12  H   LIG A   1     -11.533   1.317 122.502  0.00  0.00    +0.210 HD
ENDBRANCH   9  11
ENDBRANCH   7   9
ENDBRANCH   3   7
ENDBRANCH   1   4
BRANCH   2  13
ATOM     13  C   LIG A   1      -8.439  -3.727 128.428  0.00  0.00    +0.001 C 
ATOM     14  C   LIG A   1      -7.315  -3.223 128.961  0.00  0.00    +0.008 C 
BRANCH  14  15
ATOM     15  C   LIG A   1      -6.841  -3.589 130.307  0.00  0.00    -0.021 A 
ATOM     16  C   LIG A   1      -5.847  -4.580 130.494  0.00  0.00    +0.012 A 
ATOM     17  C   LIG A   1      -5.395  -4.930 131.768  0.00  0.00    +0.050 A 
ATOM     18  C   LIG A   1      -5.935  -4.260 132.840  0.00  0.00    +0.166 A 
ATOM     19  O   LIG A   1      -5.609  -4.461 134.143  0.00  0.00    -0.453 OA
ATOM     20  C   LIG A   1      -6.465  -3.496 134.787  0.00  0.00    +0.466 C 
ATOM     21  O   LIG A   1      -7.281  -2.744 133.863  0.00  0.00    -0.453 OA
ATOM     22  C   LIG A   1      -6.887  -3.281 132.676  0.00  0.00    +0.167 A 
ATOM     23  C   LIG A   1      -7.358  -2.921 131.428  0.00  0.00    +0.057 A 
ENDBRANCH  14  15
ENDBRANCH   2  13
TORSDOF 6
ENDMDL
MODEL 2
REMARK VINA RESULT:      -6.9      9.931     10.406
REMARK  Name = NuBBE_2093
REMARK  8 active torsions:
REMARK  status: ('A' for Active; 'I' for Inactive)
REMARK    1  A    between atoms: C_1  and  C_2
REMARK    2  A    between atoms: C_2  and  C_3
REMARK    3  A    between atoms: C_2  and  O_4
REMARK    4  A    between atoms: C_2  and  C_5
REMARK    5  A    between atoms: C_5  and  N_6
REMARK    6  A    between atoms: C_7  and  C_9
REMARK    7  A    between atoms: C_10  and  C_11
REMARK    8  A    between atoms: C_12  and  C_13
REMARK                            x       y       z     vdW  Elec       q    Type
REMARK                         _______ _______ _______ _____ _____    ______ ____
ROOT
ATOM      1  C   LIG A   1     -10.107   6.102 131.750  0.00  0.00    +0.067 C 
ATOM      2  C   LIG A   1      -8.992   6.546 131.151  0.00  0.00    +0.005 C 
ENDROOT
BRANCH   1   4
ATOM      3  N   LIG A   1     -11.424   6.319 129.783  0.00  0.00    -0.309 N 
ATOM      4  C   LIG A   1     -11.431   6.376 131.153  0.00  0.00    +0.237 C 
ATOM      5  O   LIG A   1     -12.419   6.630 131.837  0.00  0.00    -0.271 OA
ATOM      6  H   LIG A   1     -10.543   6.275 129.288  0.00  0.00    +0.149 HD
BRANCH   3   7
ATOM      7  C   LIG A   1     -12.613   6.593 128.992  0.00  0.00    +0.138 C 
BRANCH   7   9
ATOM      8  C   LIG A   1     -12.511   7.099 126.486  0.00  0.00    +0.042 C 
ATOM      9  C   LIG A   1     -12.415   7.673 127.900  0.00  0.00    +0.076 C 
ATOM     10  C   LIG A   1     -11.056   8.355 128.087  0.00  0.00    +0.042 C 
BRANCH   9  11
ATOM     11  O   LIG A   1     -13.430   8.677 128.059  0.00  0.00    -0.388 OA
ATOM     12  H   LIG A   1     -13.861   8.792 127.195  0.00  0.00    +0.210 HD
ENDBRANCH   9  11
ENDBRANCH   7   9
ENDBRANCH   3   7
ENDBRANCH   1   4
BRANCH   2  13
ATOM     13  C   LIG A   1      -7.692   6.372 131.757  0.00  0.00    +0.001 C 
ATOM     14  C   LIG A   1      -6.537   6.765 131.198  0.00  0.00    +0.008 C 
BRANCH  14  15
ATOM     15  C   LIG A   1      -5.233   6.585 131.861  0.00  0.00    -0.021 A 
ATOM     16  C   LIG A   1      -5.145   6.135 133.202  0.00  0.00    +0.012 A 
ATOM     17  C   LIG A   1      -3.912   5.963 133.834  0.00  0.00    +0.050 A 
ATOM     18  C   LIG A   1      -2.780   6.227 133.101  0.00  0.00    +0.166 A 
ATOM     19  O   LIG A   1      -1.503   6.106 133.548  0.00  0.00    -0.453 OA
ATOM     20  C   LIG A   1      -0.767   6.497 132.371  0.00  0.00    +0.466 C 
ATOM     21  O   LIG A   1      -1.613   6.843 131.253  0.00  0.00    -0.453 OA
ATOM     22  C   LIG A   1      -2.847   6.646 131.793  0.00  0.00    +0.167 A 
ATOM     23  C   LIG A   1      -4.053   6.832 131.145  0.00  0.00    +0.057 A 
ENDBRANCH  14  15
ENDBRANCH   2  13
TORSDOF 6
ENDMDL
MODEL 3
REMARK VINA RESULT:      -6.9     10.012     10.768
REMARK  Name = NuBBE_2093
REMARK  8 active torsions:
REMARK  status: ('A' for Active; 'I' for Inactive)
REMARK    1  A    between atoms: C_1  and  C_2
REMARK    2  A    between atoms: C_2  and  C_3
REMARK    3  A    between atoms: C_2  and  O_4
REMARK    4  A    between atoms: C_2  and  C_5
REMARK    5  A    between atoms: C_5  and  N_6
REMARK    6  A    between atoms: C_7  and  C_9
REMARK    7  A    between atoms: C_10  and  C_11
REMARK    8  A    between atoms: C_12  and  C_13
REMARK                            x       y       z     vdW  Elec       q    Type
REMARK                         _______ _______ _______ _____ _____    ______ ____
ROOT
ATOM      1  C   LIG A   1      -8.297   5.715 130.814  0.00  0.00    +0.067 C 
ATOM      2  C   LIG A   1      -7.531   6.815 130.868  0.00  0.00    +0.005 C 
ENDROOT
BRANCH   1   4
ATOM      3  N   LIG A   1     -10.245   7.039 130.490  0.00  0.00    -0.309 N 
ATOM      4  C   LIG A   1      -9.685   5.800 130.313  0.00  0.00    +0.237 C 
ATOM      5  O   LIG A   1     -10.257   4.842 129.800  0.00  0.00    -0.271 OA
ATOM      6  H   LIG A   1      -9.777   7.722 131.072  0.00  0.00    +0.149 HD
BRANCH   3   7
ATOM      7  C   LIG A   1     -11.616   7.331 130.103  0.00  0.00    +0.138 C 
BRANCH   7   9
ATOM      8  C   LIG A   1     -10.565   8.504 128.086  0.00  0.00    +0.042 C 
ATOM      9  C   LIG A   1     -11.784   7.750 128.621  0.00  0.00    +0.076 C 
ATOM     10  C   LIG A   1     -13.035   8.622 128.469  0.00  0.00    +0.042 C 
BRANCH   9  11
ATOM     11  O   LIG A   1     -11.979   6.568 127.829  0.00  0.00    -0.388 OA
ATOM     12  H   LIG A   1     -12.327   6.853 126.967  0.00  0.00    +0.210 HD
ENDBRANCH   9  11
ENDBRANCH   7   9
ENDBRANCH   3   7
ENDBRANCH   1   4
BRANCH   2  13
ATOM     13  C   LIG A   1      -6.204   6.780 131.436  0.00  0.00    +0.001 C 
ATOM     14  C   LIG A   1      -5.071   6.820 130.718  0.00  0.00    +0.008 C 
BRANCH  14  15
ATOM     15  C   LIG A   1      -3.735   6.802 131.341  0.00  0.00    -0.021 A 
ATOM     16  C   LIG A   1      -2.967   5.613 131.401  0.00  0.00    +0.012 A 
ATOM     17  C   LIG A   1      -1.701   5.592 131.990  0.00  0.00    +0.050 A 
ATOM     18  C   LIG A   1      -1.214   6.774 132.494  0.00  0.00    +0.166 A 
ATOM     19  O   LIG A   1      -0.005   6.940 133.091  0.00  0.00    -0.453 OA
ATOM     20  C   LIG A   1      -0.046   8.349 133.394  0.00  0.00    +0.466 C 
ATOM     21  O   LIG A   1      -1.271   8.992 132.979  0.00  0.00    -0.453 OA
ATOM     22  C   LIG A   1      -1.939   7.941 132.428  0.00  0.00    +0.167 A 
ATOM     23  C   LIG A   1      -3.196   7.990 131.858  0.00  0.00    +0.057 A 
ENDBRANCH  14  15
ENDBRANCH   2  13
TORSDOF 6
ENDMDL
MODEL 4
REMARK VINA RESULT:      -6.8     10.718     13.233
REMARK  Name = NuBBE_2093
REMARK  8 active torsions:
REMARK  status: ('A' for Active; 'I' for Inactive)
REMARK    1  A    between atoms: C_1  and  C_2
REMARK    2  A    between atoms: C_2  and  C_3
REMARK    3  A    between atoms: C_2  and  O_4
REMARK    4  A    between atoms: C_2  and  C_5
REMARK    5  A    between atoms: C_5  and  N_6
REMARK    6  A    between atoms: C_7  and  C_9
REMARK    7  A    between atoms: C_10  and  C_11
REMARK    8  A    between atoms: C_12  and  C_13
REMARK                            x       y       z     vdW  Elec       q    Type
REMARK                         _______ _______ _______ _____ _____    ______ ____
ROOT
ATOM      1  C   LIG A   1      -4.565   7.349 130.542  0.00  0.00    +0.067 C 
ATOM      2  C   LIG A   1      -5.545   6.920 131.351  0.00  0.00    +0.005 C 
ENDROOT
BRANCH   1   4
ATOM      3  N   LIG A   1      -2.868   7.928 132.103  0.00  0.00    -0.309 N 
ATOM      4  C   LIG A   1      -3.152   7.229 130.958  0.00  0.00    +0.237 C 
ATOM      5  O   LIG A   1      -2.335   6.568 130.322  0.00  0.00    -0.271 OA
ATOM      6  H   LIG A   1      -3.545   8.584 132.470  0.00  0.00    +0.149 HD
BRANCH   3   7
ATOM      7  C   LIG A   1      -1.529   7.977 132.667  0.00  0.00    +0.138 C 
BRANCH   7   9
ATOM      8  C   LIG A   1      -2.009  10.471 132.981  0.00  0.00    +0.042 C 
ATOM      9  C   LIG A   1      -1.231   9.256 133.489  0.00  0.00    +0.076 C 
ATOM     10  C   LIG A   1       0.272   9.556 133.453  0.00  0.00    +0.042 C 
BRANCH   9  11
ATOM     11  O   LIG A   1      -1.593   9.016 134.858  0.00  0.00    -0.388 OA
ATOM     12  H   LIG A   1      -0.968   9.513 135.413  0.00  0.00    +0.210 HD
ENDBRANCH   9  11
ENDBRANCH   7   9
ENDBRANCH   3   7
ENDBRANCH   1   4
BRANCH   2  13
ATOM     13  C   LIG A   1      -6.937   7.107 131.011  0.00  0.00    +0.001 C 
ATOM     14  C   LIG A   1      -7.945   6.384 131.522  0.00  0.00    +0.008 C 
BRANCH  14  15
ATOM     15  C   LIG A   1      -9.354   6.622 131.161  0.00  0.00    -0.021 A 
ATOM     16  C   LIG A   1     -10.411   6.214 132.013  0.00  0.00    +0.012 A 
ATOM     17  C   LIG A   1     -11.747   6.438 131.675  0.00  0.00    +0.050 A 
ATOM     18  C   LIG A   1     -12.004   7.090 130.493  0.00  0.00    +0.166 A 
ATOM     19  O   LIG A   1     -13.236   7.399 130.012  0.00  0.00    -0.453 OA
ATOM     20  C   LIG A   1     -12.886   8.064 128.782  0.00  0.00    +0.466 C 
ATOM     21  O   LIG A   1     -11.462   8.137 128.552  0.00  0.00    -0.453 OA
ATOM     22  C   LIG A   1     -10.990   7.510 129.664  0.00  0.00    +0.167 A 
ATOM     23  C   LIG A   1      -9.659   7.295 129.969  0.00  0.00    +0.057 A 
ENDBRANCH  14  15
ENDBRANCH   2  13
TORSDOF 6
ENDMDL
MODEL 5
REMARK VINA RESULT:      -6.7      2.431      2.895
REMARK  Name = NuBBE_2093
REMARK  8 active torsions:
REMARK  status: ('A' for Active; 'I' for Inactive)
REMARK    1  A    between atoms: C_1  and  C_2
REMARK    2  A    between atoms: C_2  and  C_3
REMARK    3  A    between atoms: C_2  and  O_4
REMARK    4  A    between atoms: C_2  and  C_5
REMARK    5  A    between atoms: C_5  and  N_6
REMARK    6  A    between atoms: C_7  and  C_9
REMARK    7  A    between atoms: C_10  and  C_11
REMARK    8  A    between atoms: C_12  and  C_13
REMARK                            x       y       z     vdW  Elec       q    Type
REMARK                         _______ _______ _______ _____ _____    ______ ____
ROOT
ATOM      1  C   LIG A   1      -8.781  -3.470 127.543  0.00  0.00    +0.067 C 
ATOM      2  C   LIG A   1      -7.721  -3.079 128.265  0.00  0.00    +0.005 C 
ENDROOT
BRANCH   1   4
ATOM      3  N   LIG A   1      -7.674  -3.307 125.446  0.00  0.00    -0.309 N 
ATOM      4  C   LIG A   1      -8.864  -3.139 126.105  0.00  0.00    +0.237 C 
ATOM      5  O   LIG A   1      -9.905  -2.751 125.580  0.00  0.00    -0.271 OA
ATOM      6  H   LIG A   1      -6.825  -3.461 125.975  0.00  0.00    +0.149 HD
BRANCH   3   7
ATOM      7  C   LIG A   1      -7.522  -3.001 124.032  0.00  0.00    +0.138 C 
BRANCH   7   9
ATOM      8  C   LIG A   1      -5.028  -3.254 123.519  0.00  0.00    +0.042 C 
ATOM      9  C   LIG A   1      -6.199  -2.282 123.674  0.00  0.00    +0.076 C 
ATOM     10  C   LIG A   1      -5.866  -1.245 124.753  0.00  0.00    +0.042 C 
BRANCH   9  11
ATOM     11  O   LIG A   1      -6.379  -1.577 122.436  0.00  0.00    -0.388 OA
ATOM     12  H   LIG A   1      -5.943  -0.713 122.529  0.00  0.00    +0.210 HD
ENDBRANCH   9  11
ENDBRANCH   7   9
ENDBRANCH   3   7
ENDBRANCH   1   4
BRANCH   2  13
ATOM     13  C   LIG A   1      -7.654  -3.309 129.689  0.00  0.00    +0.001 C 
ATOM     14  C   LIG A   1      -6.539  -3.656 130.350  0.00  0.00    +0.008 C 
BRANCH  14  15
ATOM     15  C   LIG A   1      -6.513  -3.862 131.809  0.00  0.00    -0.021 A 
ATOM     16  C   LIG A   1      -5.613  -4.778 132.407  0.00  0.00    +0.012 A 
ATOM     17  C   LIG A   1      -5.585  -4.977 133.789  0.00  0.00    +0.050 A 
ATOM     18  C   LIG A   1      -6.448  -4.232 134.556  0.00  0.00    +0.166 A 
ATOM     19  O   LIG A   1      -6.551  -4.286 135.909  0.00  0.00    -0.453 OA
ATOM     20  C   LIG A   1      -7.582  -3.305 136.141  0.00  0.00    +0.466 C 
ATOM     21  O   LIG A   1      -8.074  -2.691 134.930  0.00  0.00    -0.453 OA
ATOM     22  C   LIG A   1      -7.314  -3.323 133.994  0.00  0.00    +0.167 A 
ATOM     23  C   LIG A   1      -7.370  -3.112 132.629  0.00  0.00    +0.057 A 
ENDBRANCH  14  15
ENDBRANCH   2  13
TORSDOF 6
ENDMDL
MODEL 6
REMARK VINA RESULT:      -6.6     10.197     13.152
REMARK  Name = NuBBE_2093
REMARK  8 active torsions:
REMARK  status: ('A' for Active; 'I' for Inactive)
REMARK    1  A    between atoms: C_1  and  C_2
REMARK    2  A    between atoms: C_2  and  C_3
REMARK    3  A    between atoms: C_2  and  O_4
REMARK    4  A    between atoms: C_2  and  C_5
REMARK    5  A    between atoms: C_5  and  N_6
REMARK    6  A    between atoms: C_7  and  C_9
REMARK    7  A    between atoms: C_10  and  C_11
REMARK    8  A    between atoms: C_12  and  C_13
REMARK                            x       y       z     vdW  Elec       q    Type
REMARK                         _______ _______ _______ _____ _____    ______ ____
ROOT
ATOM      1  C   LIG A   1      -4.707   6.525 131.659  0.00  0.00    +0.067 C 
ATOM      2  C   LIG A   1      -5.883   6.016 132.057  0.00  0.00    +0.005 C 
ENDROOT
BRANCH   1   4
ATOM      3  N   LIG A   1      -3.113   6.947 133.371  0.00  0.00    -0.309 N 
ATOM      4  C   LIG A   1      -3.455   6.120 132.333  0.00  0.00    +0.237 C 
ATOM      5  O   LIG A   1      -2.806   5.141 131.976  0.00  0.00    -0.271 OA
ATOM      6  H   LIG A   1      -3.600   7.826 133.493  0.00  0.00    +0.149 HD
BRANCH   3   7
ATOM      7  C   LIG A   1      -1.897   6.753 134.145  0.00  0.00    +0.138 C 
BRANCH   7   9
ATOM      8  C   LIG A   1       0.412   7.718 134.682  0.00  0.00    +0.042 C 
ATOM      9  C   LIG A   1      -0.674   7.544 133.619  0.00  0.00    +0.076 C 
ATOM     10  C   LIG A   1      -1.125   8.920 133.115  0.00  0.00    +0.042 C 
BRANCH   9  11
ATOM     11  O   LIG A   1      -0.115   6.835 132.501  0.00  0.00    -0.388 OA
ATOM     12  H   LIG A   1       0.780   7.186 132.354  0.00  0.00    +0.210 HD
ENDBRANCH   9  11
ENDBRANCH   7   9
ENDBRANCH   3   7
ENDBRANCH   1   4
BRANCH   2  13
ATOM     13  C   LIG A   1      -7.129   6.461 131.479  0.00  0.00    +0.001 C 
ATOM     14  C   LIG A   1      -8.342   6.068 131.898  0.00  0.00    +0.008 C 
BRANCH  14  15
ATOM     15  C   LIG A   1      -9.590   6.564 131.292  0.00  0.00    -0.021 A 
ATOM     16  C   LIG A   1     -10.847   6.340 131.907  0.00  0.00    +0.012 A 
ATOM     17  C   LIG A   1     -12.032   6.808 131.335  0.00  0.00    +0.050 A 
ATOM     18  C   LIG A   1     -11.936   7.515 130.161  0.00  0.00    +0.166 A 
ATOM     19  O   LIG A   1     -12.978   8.050 129.472  0.00  0.00    -0.453 OA
ATOM     20  C   LIG A   1     -12.284   8.661 128.366  0.00  0.00    +0.466 C 
ATOM     21  O   LIG A   1     -10.853   8.478 128.413  0.00  0.00    -0.453 OA
ATOM     22  C   LIG A   1     -10.723   7.757 129.560  0.00  0.00    +0.167 A 
ATOM     23  C   LIG A   1      -9.535   7.300 130.099  0.00  0.00    +0.057 A 
ENDBRANCH  14  15
ENDBRANCH   2  13
TORSDOF 6
ENDMDL
MODEL 7
REMARK VINA RESULT:      -6.3      5.816      8.351
REMARK  Name = NuBBE_2093
REMARK  8 active torsions:
REMARK  status: ('A' for Active; 'I' for Inactive)
REMARK    1  A    between atoms: C_1  and  C_2
REMARK    2  A    between atoms: C_2  and  C_3
REMARK    3  A    between atoms: C_2  and  O_4
REMARK    4  A    between atoms: C_2  and  C_5
REMARK    5  A    between atoms: C_5  and  N_6
REMARK    6  A    between atoms: C_7  and  C_9
REMARK    7  A    between atoms: C_10  and  C_11
REMARK    8  A    between atoms: C_12  and  C_13
REMARK                            x       y       z     vdW  Elec       q    Type
REMARK                         _______ _______ _______ _____ _____    ______ ____
ROOT
ATOM      1  C   LIG A   1      -9.754   3.200 129.954  0.00  0.00    +0.067 C 
ATOM      2  C   LIG A   1      -8.675   2.973 129.190  0.00  0.00    +0.005 C 
ENDROOT
BRANCH   1   4
ATOM      3  N   LIG A   1     -11.250   4.824 130.834  0.00  0.00    -0.309 N 
ATOM      4  C   LIG A   1      -9.934   4.509 130.617  0.00  0.00    +0.237 C 
ATOM      5  O   LIG A   1      -8.984   5.223 130.926  0.00  0.00    -0.271 OA
ATOM      6  H   LIG A   1     -11.977   4.270 130.399  0.00  0.00    +0.149 HD
BRANCH   3   7
ATOM      7  C   LIG A   1     -11.655   6.082 131.439  0.00  0.00    +0.138 C 
BRANCH   7   9
ATOM      8  C   LIG A   1     -12.848   8.311 131.043  0.00  0.00    +0.042 C 
ATOM      9  C   LIG A   1     -12.011   7.193 130.420  0.00  0.00    +0.076 C 
ATOM     10  C   LIG A   1     -12.767   6.584 129.234  0.00  0.00    +0.042 C 
BRANCH   9  11
ATOM     11  O   LIG A   1     -10.791   7.758 129.913  0.00  0.00    -0.388 OA
ATOM     12  H   LIG A   1     -10.924   7.928 128.964  0.00  0.00    +0.210 HD
ENDBRANCH   9  11
ENDBRANCH   7   9
ENDBRANCH   3   7
ENDBRANCH   1   4
BRANCH   2  13
ATOM     13  C   LIG A   1      -8.428   1.676 128.605  0.00  0.00    +0.001 C 
ATOM     14  C   LIG A   1      -8.665   1.366 127.321  0.00  0.00    +0.008 C 
BRANCH  14  15
ATOM     15  C   LIG A   1      -8.379   0.034 126.760  0.00  0.00    -0.021 A 
ATOM     16  C   LIG A   1      -7.344  -0.779 127.284  0.00  0.00    +0.012 A 
ATOM     17  C   LIG A   1      -7.070  -2.042 126.756  0.00  0.00    +0.050 A 
ATOM     18  C   LIG A   1      -7.856  -2.482 125.718  0.00  0.00    +0.166 A 
ATOM     19  O   LIG A   1      -7.739  -3.681 125.090  0.00  0.00    -0.453 OA
ATOM     20  C   LIG A   1      -8.806  -3.584 124.125  0.00  0.00    +0.466 C 
ATOM     21  O   LIG A   1      -9.532  -2.338 124.192  0.00  0.00    -0.453 OA
ATOM     22  C   LIG A   1      -8.877  -1.714 125.209  0.00  0.00    +0.167 A 
ATOM     23  C   LIG A   1      -9.166  -0.458 125.707  0.00  0.00    +0.057 A 
ENDBRANCH  14  15
ENDBRANCH   2  13
TORSDOF 6
ENDMDL
MODEL 8
REMARK VINA RESULT:      -6.2      2.346      9.311
REMARK  Name = NuBBE_2093
REMARK  8 active torsions:
REMARK  status: ('A' for Active; 'I' for Inactive)
REMARK    1  A    between atoms: C_1  and  C_2
REMARK    2  A    between atoms: C_2  and  C_3
REMARK    3  A    between atoms: C_2  and  O_4
REMARK    4  A    between atoms: C_2  and  C_5
REMARK    5  A    between atoms: C_5  and  N_6
REMARK    6  A    between atoms: C_7  and  C_9
REMARK    7  A    between atoms: C_10  and  C_11
REMARK    8  A    between atoms: C_12  and  C_13
REMARK                            x       y       z     vdW  Elec       q    Type
REMARK                         _______ _______ _______ _____ _____    ______ ____
ROOT
ATOM      1  C   LIG A   1      -6.454  -3.928 129.948  0.00  0.00    +0.067 C 
ATOM      2  C   LIG A   1      -7.739  -3.585 129.774  0.00  0.00    +0.005 C 
ENDROOT
BRANCH   1   4
ATOM      3  N   LIG A   1      -6.248  -3.170 132.191  0.00  0.00    -0.309 N 
ATOM      4  C   LIG A   1      -5.925  -4.167 131.307  0.00  0.00    +0.237 C 
ATOM      5  O   LIG A   1      -5.263  -5.162 131.588  0.00  0.00    -0.271 OA
ATOM      6  H   LIG A   1      -6.645  -2.305 131.848  0.00  0.00    +0.149 HD
BRANCH   3   7
ATOM      7  C   LIG A   1      -5.797  -3.186 133.574  0.00  0.00    +0.138 C 
BRANCH   7   9
ATOM      8  C   LIG A   1      -6.796  -5.179 134.830  0.00  0.00    +0.042 C 
ATOM      9  C   LIG A   1      -6.864  -3.670 134.586  0.00  0.00    +0.076 C 
ATOM     10  C   LIG A   1      -8.262  -3.293 134.084  0.00  0.00    +0.042 C 
BRANCH   9  11
ATOM     11  O   LIG A   1      -6.654  -2.992 135.835  0.00  0.00    -0.388 OA
ATOM     12  H   LIG A   1      -5.903  -2.386 135.711  0.00  0.00    +0.210 HD
ENDBRANCH   9  11
ENDBRANCH   7   9
ENDBRANCH   3   7
ENDBRANCH   1   4
BRANCH   2  13
ATOM     13  C   LIG A   1      -8.260  -3.258 128.468  0.00  0.00    +0.001 C 
ATOM     14  C   LIG A   1      -7.599  -2.542 127.545  0.00  0.00    +0.008 C 
BRANCH  14  15
ATOM     15  C   LIG A   1      -8.162  -2.247 126.216  0.00  0.00    -0.021 A 
ATOM     16  C   LIG A   1      -8.481  -3.285 125.305  0.00  0.00    +0.012 A 
ATOM     17  C   LIG A   1      -9.014  -3.010 124.044  0.00  0.00    +0.050 A 
ATOM     18  C   LIG A   1      -9.241  -1.694 123.723  0.00  0.00    +0.166 A 
ATOM     19  O   LIG A   1      -9.760  -1.244 122.551  0.00  0.00    -0.453 OA
ATOM     20  C   LIG A   1      -9.772   0.178 122.789  0.00  0.00    +0.466 C 
ATOM     21  O   LIG A   1      -9.260   0.548 124.088  0.00  0.00    -0.453 OA
ATOM     22  C   LIG A   1      -8.955  -0.675 124.602  0.00  0.00    +0.167 A 
ATOM     23  C   LIG A   1      -8.419  -0.917 125.852  0.00  0.00    +0.057 A 
ENDBRANCH  14  15
ENDBRANCH   2  13
TORSDOF 6
ENDMDL
MODEL 9
REMARK VINA RESULT:      -6.2      6.405      7.514
REMARK  Name = NuBBE_2093
REMARK  8 active torsions:
REMARK  status: ('A' for Active; 'I' for Inactive)
REMARK    1  A    between atoms: C_1  and  C_2
REMARK    2  A    between atoms: C_2  and  C_3
REMARK    3  A    between atoms: C_2  and  O_4
REMARK    4  A    between atoms: C_2  and  C_5
REMARK    5  A    between atoms: C_5  and  N_6
REMARK    6  A    between atoms: C_7  and  C_9
REMARK    7  A    between atoms: C_10  and  C_11
REMARK    8  A    between atoms: C_12  and  C_13
REMARK                            x       y       z     vdW  Elec       q    Type
REMARK                         _______ _______ _______ _____ _____    ______ ____
ROOT
ATOM      1  C   LIG A   1     -10.597   4.343 130.539  0.00  0.00    +0.067 C 
ATOM      2  C   LIG A   1      -9.823   3.671 131.403  0.00  0.00    +0.005 C 
ENDROOT
BRANCH   1   4
ATOM      3  N   LIG A   1     -11.791   6.284 129.861  0.00  0.00    -0.309 N 
ATOM      4  C   LIG A   1     -11.124   5.677 130.895  0.00  0.00    +0.237 C 
ATOM      5  O   LIG A   1     -10.964   6.171 132.008  0.00  0.00    -0.271 OA
ATOM      6  H   LIG A   1     -11.732   5.894 128.930  0.00  0.00    +0.149 HD
BRANCH   3   7
ATOM      7  C   LIG A   1     -12.356   7.618 129.983  0.00  0.00    +0.138 C 
BRANCH   7   9
ATOM      8  C   LIG A   1     -13.490   7.838 127.699  0.00  0.00    +0.042 C 
ATOM      9  C   LIG A   1     -12.432   8.401 128.650  0.00  0.00    +0.076 C 
ATOM     10  C   LIG A   1     -11.062   8.385 127.962  0.00  0.00    +0.042 C 
BRANCH   9  11
ATOM     11  O   LIG A   1     -12.755   9.771 128.939  0.00  0.00    -0.388 OA
ATOM     12  H   LIG A   1     -13.718   9.818 129.073  0.00  0.00    +0.210 HD
ENDBRANCH   9  11
ENDBRANCH   7   9
ENDBRANCH   3   7
ENDBRANCH   1   4
BRANCH   2  13
ATOM     13  C   LIG A   1      -9.368   2.330 131.120  0.00  0.00    +0.001 C 
ATOM     14  C   LIG A   1      -8.627   1.588 131.957  0.00  0.00    +0.008 C 
BRANCH  14  15
ATOM     15  C   LIG A   1      -8.201   0.214 131.636  0.00  0.00    -0.021 A 
ATOM     16  C   LIG A   1      -7.824  -0.697 132.653  0.00  0.00    +0.012 A 
ATOM     17  C   LIG A   1      -7.421  -1.999 132.353  0.00  0.00    +0.050 A 
ATOM     18  C   LIG A   1      -7.422  -2.377 131.032  0.00  0.00    +0.166 A 
ATOM     19  O   LIG A   1      -7.071  -3.601 130.559  0.00  0.00    -0.453 OA
ATOM     20  C   LIG A   1      -7.275  -3.412 129.144  0.00  0.00    +0.466 C 
ATOM     21  O   LIG A   1      -7.737  -2.087 128.801  0.00  0.00    -0.453 OA
ATOM     22  C   LIG A   1      -7.804  -1.511 130.033  0.00  0.00    +0.167 A 
ATOM     23  C   LIG A   1      -8.200  -0.215 130.300  0.00  0.00    +0.057 A 
ENDBRANCH  14  15
ENDBRANCH   2  13
TORSDOF 6
ENDMDL
