MODEL 1
REMARK VINA RESULT:      -6.9      0.000      0.000
REMARK  Name = NuBBE_2207
REMARK  15 active torsions:
REMARK  status: ('A' for Active; 'I' for Inactive)
REMARK    1  A    between atoms: C_1  and  C_3
REMARK    2  A    between atoms: C_1  and  C_7
REMARK    3  A    between atoms: C_4  and  C_5
REMARK    4  A    between atoms: C_4  and  C_6
REMARK    5  A    between atoms: C_9  and  C_10
REMARK    6  A    between atoms: C_10  and  O_11
REMARK    7  A    between atoms: C_10  and  C_22
REMARK    8  A    between atoms: O_11  and  C_12
REMARK    9  A    between atoms: C_12  and  C_14
REMARK   10  A    between atoms: C_14  and  C_17
REMARK   11  A    between atoms: C_15  and  C_16
REMARK   12  A    between atoms: C_17  and  O_18
REMARK   13  A    between atoms: O_18  and  C_19
REMARK   14  A    between atoms: C_19  and  C_21
REMARK   15  A    between atoms: C_25  and  O_26
REMARK                            x       y       z     vdW  Elec       q    Type
REMARK                         _______ _______ _______ _____ _____    ______ ____
ROOT
ATOM      1  C   LIG A   1      -8.226   0.733 123.216  0.00  0.00    +0.063 A 
ATOM      2  C   LIG A   1      -7.062   0.113 123.717  0.00  0.00    +0.022 A 
ATOM      3  C   LIG A   1      -6.992  -1.284 123.894  0.00  0.00    -0.007 A 
ATOM      4  C   LIG A   1      -8.097  -2.056 123.514  0.00  0.00    +0.011 A 
ATOM      5  C   LIG A   1      -9.260  -1.458 123.037  0.00  0.00    +0.046 A 
ATOM      6  C   LIG A   1      -9.333  -0.071 122.912  0.00  0.00    +0.128 A 
ENDROOT
BRANCH   1   7
ATOM      7  C   LIG A   1      -8.198   2.224 123.057  0.00  0.00    +0.190 C 
ATOM      8  O   LIG A   1      -9.177   2.885 123.389  0.00  0.00    -0.287 OA
BRANCH   7   9
ATOM      9  C   LIG A   1      -6.926   2.850 122.575  0.00  0.00    +0.050 C 
ATOM     10  C   LIG A   1      -6.688   3.558 121.452  0.00  0.00    -0.072 C 
ATOM     11  C   LIG A   1      -7.680   3.912 120.381  0.00  0.00    +0.039 C 
ATOM     12  C   LIG A   1      -5.298   4.095 121.218  0.00  0.00    +0.039 C 
ENDBRANCH   7   9
ENDBRANCH   1   7
BRANCH   3  13
ATOM     13  C   LIG A   1      -5.771  -2.010 124.438  0.00  0.00    +0.204 C 
ATOM     14  C   LIG A   1      -5.127  -2.961 123.427  0.00  0.00    +0.057 C 
BRANCH  13  15
ATOM     15  O   LIG A   1      -6.201  -2.744 125.588  0.00  0.00    -0.454 OA
BRANCH  15  16
ATOM     16  C   LIG A   1      -6.118  -2.128 126.803  0.00  0.00    +0.339 C 
ATOM     17  O   LIG A   1      -5.117  -1.677 127.317  0.00  0.00    -0.245 OA
BRANCH  16  18
ATOM     18  C   LIG A   1      -7.501  -1.929 127.339  0.00  0.00    +0.070 C 
ATOM     19  C   LIG A   1      -8.076  -0.718 127.480  0.00  0.00    -0.016 C 
ATOM     20  C   LIG A   1      -7.515   0.620 127.127  0.00  0.00    +0.036 C 
BRANCH  18  21
ATOM     21  C   LIG A   1      -8.225  -3.185 127.769  0.00  0.00    +0.274 C 
BRANCH  21  22
ATOM     22  O   LIG A   1      -8.524  -3.136 129.179  0.00  0.00    -0.460 OA
BRANCH  22  23
ATOM     23  C   LIG A   1      -7.464  -3.307 130.015  0.00  0.00    +0.304 C 
ATOM     24  O   LIG A   1      -6.603  -4.170 129.915  0.00  0.00    -0.251 OA
ATOM     25  C   LIG A   1      -7.452  -2.275 131.098  0.00  0.00    +0.136 C 
ENDBRANCH  22  23
ENDBRANCH  21  22
ENDBRANCH  18  21
ENDBRANCH  16  18
ENDBRANCH  15  16
ENDBRANCH  13  15
ENDBRANCH   3  13
BRANCH   6  26
ATOM     26  O   LIG A   1     -10.524   0.473 122.513  0.00  0.00    -0.506 OA
ATOM     27  H   LIG A   1     -11.190  -0.230 122.427  0.00  0.00    +0.292 HD
ENDBRANCH   6  26
TORSDOF 10
ENDMDL
MODEL 2
REMARK VINA RESULT:      -6.9      1.393      2.594
REMARK  Name = NuBBE_2207
REMARK  15 active torsions:
REMARK  status: ('A' for Active; 'I' for Inactive)
REMARK    1  A    between atoms: C_1  and  C_3
REMARK    2  A    between atoms: C_1  and  C_7
REMARK    3  A    between atoms: C_4  and  C_5
REMARK    4  A    between atoms: C_4  and  C_6
REMARK    5  A    between atoms: C_9  and  C_10
REMARK    6  A    between atoms: C_10  and  O_11
REMARK    7  A    between atoms: C_10  and  C_22
REMARK    8  A    between atoms: O_11  and  C_12
REMARK    9  A    between atoms: C_12  and  C_14
REMARK   10  A    between atoms: C_14  and  C_17
REMARK   11  A    between atoms: C_15  and  C_16
REMARK   12  A    between atoms: C_17  and  O_18
REMARK   13  A    between atoms: O_18  and  C_19
REMARK   14  A    between atoms: C_19  and  C_21
REMARK   15  A    between atoms: C_25  and  O_26
REMARK                            x       y       z     vdW  Elec       q    Type
REMARK                         _______ _______ _______ _____ _____    ______ ____
ROOT
ATOM      1  C   LIG A   1      -8.218   0.699 123.196  0.00  0.00    +0.063 A 
ATOM      2  C   LIG A   1      -7.066   0.096 123.743  0.00  0.00    +0.022 A 
ATOM      3  C   LIG A   1      -7.003  -1.295 123.969  0.00  0.00    -0.007 A 
ATOM      4  C   LIG A   1      -8.100  -2.078 123.592  0.00  0.00    +0.011 A 
ATOM      5  C   LIG A   1      -9.252  -1.496 123.070  0.00  0.00    +0.046 A 
ATOM      6  C   LIG A   1      -9.320  -0.113 122.895  0.00  0.00    +0.128 A 
ENDROOT
BRANCH   1   7
ATOM      7  C   LIG A   1      -8.184   2.184 122.986  0.00  0.00    +0.190 C 
ATOM      8  O   LIG A   1      -9.178   2.854 123.248  0.00  0.00    -0.287 OA
BRANCH   7   9
ATOM      9  C   LIG A   1      -6.891   2.796 122.544  0.00  0.00    +0.050 C 
ATOM     10  C   LIG A   1      -6.617   3.524 121.442  0.00  0.00    -0.072 C 
ATOM     11  C   LIG A   1      -7.580   3.921 120.360  0.00  0.00    +0.039 C 
ATOM     12  C   LIG A   1      -5.213   4.040 121.248  0.00  0.00    +0.039 C 
ENDBRANCH   7   9
ENDBRANCH   1   7
BRANCH   3  13
ATOM     13  C   LIG A   1      -5.795  -2.004 124.564  0.00  0.00    +0.204 C 
ATOM     14  C   LIG A   1      -5.060  -2.899 123.565  0.00  0.00    +0.057 C 
BRANCH  13  15
ATOM     15  O   LIG A   1      -6.272  -2.790 125.660  0.00  0.00    -0.454 OA
BRANCH  15  16
ATOM     16  C   LIG A   1      -5.958  -2.378 126.923  0.00  0.00    +0.339 C 
ATOM     17  O   LIG A   1      -4.877  -2.469 127.464  0.00  0.00    -0.245 OA
BRANCH  16  18
ATOM     18  C   LIG A   1      -7.120  -1.623 127.487  0.00  0.00    +0.070 C 
ATOM     19  C   LIG A   1      -8.308  -2.193 127.772  0.00  0.00    -0.016 C 
ATOM     20  C   LIG A   1      -8.706  -3.625 127.630  0.00  0.00    +0.036 C 
BRANCH  18  21
ATOM     21  C   LIG A   1      -6.906  -0.140 127.685  0.00  0.00    +0.274 C 
BRANCH  21  22
ATOM     22  O   LIG A   1      -8.164   0.525 127.916  0.00  0.00    -0.460 OA
BRANCH  22  23
ATOM     23  C   LIG A   1      -8.606   1.323 126.905  0.00  0.00    +0.304 C 
ATOM     24  O   LIG A   1      -9.634   1.162 126.261  0.00  0.00    -0.251 OA
ATOM     25  C   LIG A   1      -7.677   2.471 126.669  0.00  0.00    +0.136 C 
ENDBRANCH  22  23
ENDBRANCH  21  22
ENDBRANCH  18  21
ENDBRANCH  16  18
ENDBRANCH  15  16
ENDBRANCH  13  15
ENDBRANCH   3  13
BRANCH   6  26
ATOM     26  O   LIG A   1     -10.501   0.417 122.453  0.00  0.00    -0.506 OA
ATOM     27  H   LIG A   1     -11.108  -0.301 122.206  0.00  0.00    +0.292 HD
ENDBRANCH   6  26
TORSDOF 10
ENDMDL
MODEL 3
REMARK VINA RESULT:      -6.9      1.435      1.815
REMARK  Name = NuBBE_2207
REMARK  15 active torsions:
REMARK  status: ('A' for Active; 'I' for Inactive)
REMARK    1  A    between atoms: C_1  and  C_3
REMARK    2  A    between atoms: C_1  and  C_7
REMARK    3  A    between atoms: C_4  and  C_5
REMARK    4  A    between atoms: C_4  and  C_6
REMARK    5  A    between atoms: C_9  and  C_10
REMARK    6  A    between atoms: C_10  and  O_11
REMARK    7  A    between atoms: C_10  and  C_22
REMARK    8  A    between atoms: O_11  and  C_12
REMARK    9  A    between atoms: C_12  and  C_14
REMARK   10  A    between atoms: C_14  and  C_17
REMARK   11  A    between atoms: C_15  and  C_16
REMARK   12  A    between atoms: C_17  and  O_18
REMARK   13  A    between atoms: O_18  and  C_19
REMARK   14  A    between atoms: C_19  and  C_21
REMARK   15  A    between atoms: C_25  and  O_26
REMARK                            x       y       z     vdW  Elec       q    Type
REMARK                         _______ _______ _______ _____ _____    ______ ____
ROOT
ATOM      1  C   LIG A   1      -8.265   0.383 123.296  0.00  0.00    +0.063 A 
ATOM      2  C   LIG A   1      -7.032  -0.109 123.773  0.00  0.00    +0.022 A 
ATOM      3  C   LIG A   1      -6.786  -1.493 123.882  0.00  0.00    -0.007 A 
ATOM      4  C   LIG A   1      -7.784  -2.379 123.458  0.00  0.00    +0.011 A 
ATOM      5  C   LIG A   1      -9.014  -1.911 123.004  0.00  0.00    +0.046 A 
ATOM      6  C   LIG A   1      -9.262  -0.539 122.946  0.00  0.00    +0.128 A 
ENDROOT
BRANCH   1   7
ATOM      7  C   LIG A   1      -8.426   1.871 123.209  0.00  0.00    +0.190 C 
ATOM      8  O   LIG A   1      -9.363   2.412 123.788  0.00  0.00    -0.287 OA
BRANCH   7   9
ATOM      9  C   LIG A   1      -7.370   2.645 122.483  0.00  0.00    +0.050 C 
ATOM     10  C   LIG A   1      -7.480   3.442 121.401  0.00  0.00    -0.072 C 
ATOM     11  C   LIG A   1      -8.734   3.767 120.642  0.00  0.00    +0.039 C 
ATOM     12  C   LIG A   1      -6.240   4.125 120.877  0.00  0.00    +0.039 C 
ENDBRANCH   7   9
ENDBRANCH   1   7
BRANCH   3  13
ATOM     13  C   LIG A   1      -5.482  -2.086 124.397  0.00  0.00    +0.204 C 
ATOM     14  C   LIG A   1      -4.945  -3.225 123.529  0.00  0.00    +0.057 C 
BRANCH  13  15
ATOM     15  O   LIG A   1      -5.737  -2.563 125.722  0.00  0.00    -0.454 OA
BRANCH  15  16
ATOM     16  C   LIG A   1      -5.630  -1.672 126.750  0.00  0.00    +0.339 C 
ATOM     17  O   LIG A   1      -5.243  -0.526 126.675  0.00  0.00    -0.245 OA
BRANCH  16  18
ATOM     18  C   LIG A   1      -6.239  -2.275 127.976  0.00  0.00    +0.070 C 
ATOM     19  C   LIG A   1      -7.511  -2.715 128.034  0.00  0.00    -0.016 C 
ATOM     20  C   LIG A   1      -8.536  -2.733 126.947  0.00  0.00    +0.036 C 
BRANCH  18  21
ATOM     21  C   LIG A   1      -5.346  -2.326 129.196  0.00  0.00    +0.274 C 
BRANCH  21  22
ATOM     22  O   LIG A   1      -4.790  -3.646 129.359  0.00  0.00    -0.460 OA
BRANCH  22  23
ATOM     23  C   LIG A   1      -4.395  -3.970 130.621  0.00  0.00    +0.304 C 
ATOM     24  O   LIG A   1      -3.374  -3.586 131.175  0.00  0.00    -0.251 OA
ATOM     25  C   LIG A   1      -5.389  -4.865 131.290  0.00  0.00    +0.136 C 
ENDBRANCH  22  23
ENDBRANCH  21  22
ENDBRANCH  18  21
ENDBRANCH  16  18
ENDBRANCH  15  16
ENDBRANCH  13  15
ENDBRANCH   3  13
BRANCH   6  26
ATOM     26  O   LIG A   1     -10.511  -0.131 122.567  0.00  0.00    -0.506 OA
ATOM     27  H   LIG A   1     -10.895  -0.782 121.955  0.00  0.00    +0.292 HD
ENDBRANCH   6  26
TORSDOF 10
ENDMDL
MODEL 4
REMARK VINA RESULT:      -6.8      2.093      7.285
REMARK  Name = NuBBE_2207
REMARK  15 active torsions:
REMARK  status: ('A' for Active; 'I' for Inactive)
REMARK    1  A    between atoms: C_1  and  C_3
REMARK    2  A    between atoms: C_1  and  C_7
REMARK    3  A    between atoms: C_4  and  C_5
REMARK    4  A    between atoms: C_4  and  C_6
REMARK    5  A    between atoms: C_9  and  C_10
REMARK    6  A    between atoms: C_10  and  O_11
REMARK    7  A    between atoms: C_10  and  C_22
REMARK    8  A    between atoms: O_11  and  C_12
REMARK    9  A    between atoms: C_12  and  C_14
REMARK   10  A    between atoms: C_14  and  C_17
REMARK   11  A    between atoms: C_15  and  C_16
REMARK   12  A    between atoms: C_17  and  O_18
REMARK   13  A    between atoms: O_18  and  C_19
REMARK   14  A    between atoms: C_19  and  C_21
REMARK   15  A    between atoms: C_25  and  O_26
REMARK                            x       y       z     vdW  Elec       q    Type
REMARK                         _______ _______ _______ _____ _____    ______ ____
ROOT
ATOM      1  C   LIG A   1      -7.293  -2.402 127.434  0.00  0.00    +0.063 A 
ATOM      2  C   LIG A   1      -6.790  -1.947 126.196  0.00  0.00    +0.022 A 
ATOM      3  C   LIG A   1      -7.497  -2.155 124.995  0.00  0.00    -0.007 A 
ATOM      4  C   LIG A   1      -8.744  -2.789 125.060  0.00  0.00    +0.011 A 
ATOM      5  C   LIG A   1      -9.245  -3.263 126.270  0.00  0.00    +0.046 A 
ATOM      6  C   LIG A   1      -8.514  -3.092 127.446  0.00  0.00    +0.128 A 
ENDROOT
BRANCH   1   7
ATOM      7  C   LIG A   1      -6.471  -2.124 128.656  0.00  0.00    +0.190 C 
ATOM      8  O   LIG A   1      -7.009  -1.645 129.650  0.00  0.00    -0.287 OA
BRANCH   7   9
ATOM      9  C   LIG A   1      -5.030  -2.530 128.635  0.00  0.00    +0.050 C 
ATOM     10  C   LIG A   1      -4.392  -3.473 129.358  0.00  0.00    -0.072 C 
ATOM     11  C   LIG A   1      -4.997  -4.384 130.388  0.00  0.00    +0.039 C 
ATOM     12  C   LIG A   1      -2.918  -3.692 129.121  0.00  0.00    +0.039 C 
ENDBRANCH   7   9
ENDBRANCH   1   7
BRANCH   3  13
ATOM     13  C   LIG A   1      -7.004  -1.698 123.630  0.00  0.00    +0.204 C 
ATOM     14  C   LIG A   1      -5.771  -2.460 123.140  0.00  0.00    +0.057 C 
BRANCH  13  15
ATOM     15  O   LIG A   1      -6.701  -0.305 123.741  0.00  0.00    -0.454 OA
BRANCH  15  16
ATOM     16  C   LIG A   1      -7.739   0.579 123.682  0.00  0.00    +0.339 C 
ATOM     17  O   LIG A   1      -8.775   0.436 123.070  0.00  0.00    -0.245 OA
BRANCH  16  18
ATOM     18  C   LIG A   1      -7.479   1.695 124.645  0.00  0.00    +0.070 C 
ATOM     19  C   LIG A   1      -8.099   1.808 125.836  0.00  0.00    -0.016 C 
ATOM     20  C   LIG A   1      -9.102   0.887 126.449  0.00  0.00    +0.036 C 
BRANCH  18  21
ATOM     21  C   LIG A   1      -6.493   2.744 124.183  0.00  0.00    +0.274 C 
BRANCH  21  22
ATOM     22  O   LIG A   1      -6.762   3.122 122.817  0.00  0.00    -0.460 OA
BRANCH  22  23
ATOM     23  C   LIG A   1      -5.804   3.878 122.213  0.00  0.00    +0.304 C 
ATOM     24  O   LIG A   1      -5.193   4.806 122.725  0.00  0.00    -0.251 OA
ATOM     25  C   LIG A   1      -5.556   3.424 120.809  0.00  0.00    +0.136 C 
ENDBRANCH  22  23
ENDBRANCH  21  22
ENDBRANCH  18  21
ENDBRANCH  16  18
ENDBRANCH  15  16
ENDBRANCH  13  15
ENDBRANCH   3  13
BRANCH   6  26
ATOM     26  O   LIG A   1      -9.012  -3.643 128.594  0.00  0.00    -0.506 OA
ATOM     27  H   LIG A   1      -8.657  -4.542 128.705  0.00  0.00    +0.292 HD
ENDBRANCH   6  26
TORSDOF 10
ENDMDL
MODEL 5
REMARK VINA RESULT:      -6.8      1.411      2.092
REMARK  Name = NuBBE_2207
REMARK  15 active torsions:
REMARK  status: ('A' for Active; 'I' for Inactive)
REMARK    1  A    between atoms: C_1  and  C_3
REMARK    2  A    between atoms: C_1  and  C_7
REMARK    3  A    between atoms: C_4  and  C_5
REMARK    4  A    between atoms: C_4  and  C_6
REMARK    5  A    between atoms: C_9  and  C_10
REMARK    6  A    between atoms: C_10  and  O_11
REMARK    7  A    between atoms: C_10  and  C_22
REMARK    8  A    between atoms: O_11  and  C_12
REMARK    9  A    between atoms: C_12  and  C_14
REMARK   10  A    between atoms: C_14  and  C_17
REMARK   11  A    between atoms: C_15  and  C_16
REMARK   12  A    between atoms: C_17  and  O_18
REMARK   13  A    between atoms: O_18  and  C_19
REMARK   14  A    between atoms: C_19  and  C_21
REMARK   15  A    between atoms: C_25  and  O_26
REMARK                            x       y       z     vdW  Elec       q    Type
REMARK                         _______ _______ _______ _____ _____    ______ ____
ROOT
ATOM      1  C   LIG A   1      -8.173   0.621 123.167  0.00  0.00    +0.063 A 
ATOM      2  C   LIG A   1      -6.965   0.083 123.659  0.00  0.00    +0.022 A 
ATOM      3  C   LIG A   1      -6.792  -1.307 123.818  0.00  0.00    -0.007 A 
ATOM      4  C   LIG A   1      -7.837  -2.155 123.430  0.00  0.00    +0.011 A 
ATOM      5  C   LIG A   1      -9.042  -1.638 122.961  0.00  0.00    +0.046 A 
ATOM      6  C   LIG A   1      -9.218  -0.258 122.853  0.00  0.00    +0.128 A 
ENDROOT
BRANCH   1   7
ATOM      7  C   LIG A   1      -8.255   2.112 123.026  0.00  0.00    +0.190 C 
ATOM      8  O   LIG A   1      -9.307   2.686 123.291  0.00  0.00    -0.287 OA
BRANCH   7   9
ATOM      9  C   LIG A   1      -7.007   2.846 122.647  0.00  0.00    +0.050 C 
ATOM     10  C   LIG A   1      -6.742   3.580 121.547  0.00  0.00    -0.072 C 
ATOM     11  C   LIG A   1      -7.672   3.858 120.401  0.00  0.00    +0.039 C 
ATOM     12  C   LIG A   1      -5.388   4.235 121.424  0.00  0.00    +0.039 C 
ENDBRANCH   7   9
ENDBRANCH   1   7
BRANCH   3  13
ATOM     13  C   LIG A   1      -5.519  -1.949 124.352  0.00  0.00    +0.204 C 
ATOM     14  C   LIG A   1      -5.025  -3.122 123.503  0.00  0.00    +0.057 C 
BRANCH  13  15
ATOM     15  O   LIG A   1      -5.804  -2.397 125.680  0.00  0.00    -0.454 OA
BRANCH  15  16
ATOM     16  C   LIG A   1      -5.601  -1.520 126.705  0.00  0.00    +0.339 C 
ATOM     17  O   LIG A   1      -5.186  -0.385 126.612  0.00  0.00    -0.245 OA
BRANCH  16  18
ATOM     18  C   LIG A   1      -6.142  -2.116 127.966  0.00  0.00    +0.070 C 
ATOM     19  C   LIG A   1      -5.408  -2.873 128.805  0.00  0.00    -0.016 C 
ATOM     20  C   LIG A   1      -3.965  -3.243 128.696  0.00  0.00    +0.036 C 
BRANCH  18  21
ATOM     21  C   LIG A   1      -7.607  -1.859 128.237  0.00  0.00    +0.274 C 
BRANCH  21  22
ATOM     22  O   LIG A   1      -8.364  -1.915 127.011  0.00  0.00    -0.460 OA
BRANCH  22  23
ATOM     23  C   LIG A   1      -9.094  -3.049 126.817  0.00  0.00    +0.304 C 
ATOM     24  O   LIG A   1      -9.803  -3.288 125.850  0.00  0.00    -0.251 OA
ATOM     25  C   LIG A   1      -8.913  -4.014 127.945  0.00  0.00    +0.136 C 
ENDBRANCH  22  23
ENDBRANCH  21  22
ENDBRANCH  18  21
ENDBRANCH  16  18
ENDBRANCH  15  16
ENDBRANCH  13  15
ENDBRANCH   3  13
BRANCH   6  26
ATOM     26  O   LIG A   1     -10.446   0.200 122.463  0.00  0.00    -0.506 OA
ATOM     27  H   LIG A   1     -10.950  -0.525 122.056  0.00  0.00    +0.292 HD
ENDBRANCH   6  26
TORSDOF 10
ENDMDL
MODEL 6
REMARK VINA RESULT:      -6.7      2.937      6.319
REMARK  Name = NuBBE_2207
REMARK  15 active torsions:
REMARK  status: ('A' for Active; 'I' for Inactive)
REMARK    1  A    between atoms: C_1  and  C_3
REMARK    2  A    between atoms: C_1  and  C_7
REMARK    3  A    between atoms: C_4  and  C_5
REMARK    4  A    between atoms: C_4  and  C_6
REMARK    5  A    between atoms: C_9  and  C_10
REMARK    6  A    between atoms: C_10  and  O_11
REMARK    7  A    between atoms: C_10  and  C_22
REMARK    8  A    between atoms: O_11  and  C_12
REMARK    9  A    between atoms: C_12  and  C_14
REMARK   10  A    between atoms: C_14  and  C_17
REMARK   11  A    between atoms: C_15  and  C_16
REMARK   12  A    between atoms: C_17  and  O_18
REMARK   13  A    between atoms: O_18  and  C_19
REMARK   14  A    between atoms: C_19  and  C_21
REMARK   15  A    between atoms: C_25  and  O_26
REMARK                            x       y       z     vdW  Elec       q    Type
REMARK                         _______ _______ _______ _____ _____    ______ ____
ROOT
ATOM      1  C   LIG A   1      -7.988  -0.576 123.581  0.00  0.00    +0.063 A 
ATOM      2  C   LIG A   1      -7.346   0.678 123.669  0.00  0.00    +0.022 A 
ATOM      3  C   LIG A   1      -7.994   1.864 123.269  0.00  0.00    -0.007 A 
ATOM      4  C   LIG A   1      -9.317   1.778 122.820  0.00  0.00    +0.011 A 
ATOM      5  C   LIG A   1      -9.958   0.547 122.707  0.00  0.00    +0.046 A 
ATOM      6  C   LIG A   1      -9.289  -0.625 123.062  0.00  0.00    +0.128 A 
ENDROOT
BRANCH   1   7
ATOM      7  C   LIG A   1      -7.218  -1.778 124.040  0.00  0.00    +0.190 C 
ATOM      8  O   LIG A   1      -6.676  -2.501 123.210  0.00  0.00    -0.287 OA
BRANCH   7   9
ATOM      9  C   LIG A   1      -7.072  -1.990 125.515  0.00  0.00    +0.050 C 
ATOM     10  C   LIG A   1      -7.955  -2.492 126.402  0.00  0.00    -0.072 C 
ATOM     11  C   LIG A   1      -9.343  -2.986 126.113  0.00  0.00    +0.039 C 
ATOM     12  C   LIG A   1      -7.538  -2.613 127.847  0.00  0.00    +0.039 C 
ENDBRANCH   7   9
ENDBRANCH   1   7
BRANCH   3  13
ATOM     13  C   LIG A   1      -7.354   3.243 123.331  0.00  0.00    +0.204 C 
ATOM     14  C   LIG A   1      -6.213   3.432 122.330  0.00  0.00    +0.057 C 
BRANCH  13  15
ATOM     15  O   LIG A   1      -6.863   3.415 124.664  0.00  0.00    -0.454 OA
BRANCH  15  16
ATOM     16  C   LIG A   1      -7.742   3.847 125.615  0.00  0.00    +0.339 C 
ATOM     17  O   LIG A   1      -8.755   4.484 125.425  0.00  0.00    -0.245 OA
BRANCH  16  18
ATOM     18  C   LIG A   1      -7.355   3.256 126.934  0.00  0.00    +0.070 C 
ATOM     19  C   LIG A   1      -7.873   2.108 127.414  0.00  0.00    -0.016 C 
ATOM     20  C   LIG A   1      -8.866   1.199 126.768  0.00  0.00    +0.036 C 
BRANCH  18  21
ATOM     21  C   LIG A   1      -6.361   4.056 127.746  0.00  0.00    +0.274 C 
BRANCH  21  22
ATOM     22  O   LIG A   1      -5.723   5.052 126.921  0.00  0.00    -0.460 OA
BRANCH  22  23
ATOM     23  C   LIG A   1      -4.439   5.361 127.253  0.00  0.00    +0.304 C 
ATOM     24  O   LIG A   1      -4.067   6.389 127.801  0.00  0.00    -0.251 OA
ATOM     25  C   LIG A   1      -3.499   4.258 126.882  0.00  0.00    +0.136 C 
ENDBRANCH  22  23
ENDBRANCH  21  22
ENDBRANCH  18  21
ENDBRANCH  16  18
ENDBRANCH  15  16
ENDBRANCH  13  15
ENDBRANCH   3  13
BRANCH   6  26
ATOM     26  O   LIG A   1      -9.933  -1.815 122.859  0.00  0.00    -0.506 OA
ATOM     27  H   LIG A   1      -9.291  -2.490 122.581  0.00  0.00    +0.292 HD
ENDBRANCH   6  26
TORSDOF 10
ENDMDL
MODEL 7
REMARK VINA RESULT:      -6.6      3.008      6.684
REMARK  Name = NuBBE_2207
REMARK  15 active torsions:
REMARK  status: ('A' for Active; 'I' for Inactive)
REMARK    1  A    between atoms: C_1  and  C_3
REMARK    2  A    between atoms: C_1  and  C_7
REMARK    3  A    between atoms: C_4  and  C_5
REMARK    4  A    between atoms: C_4  and  C_6
REMARK    5  A    between atoms: C_9  and  C_10
REMARK    6  A    between atoms: C_10  and  O_11
REMARK    7  A    between atoms: C_10  and  C_22
REMARK    8  A    between atoms: O_11  and  C_12
REMARK    9  A    between atoms: C_12  and  C_14
REMARK   10  A    between atoms: C_14  and  C_17
REMARK   11  A    between atoms: C_15  and  C_16
REMARK   12  A    between atoms: C_17  and  O_18
REMARK   13  A    between atoms: O_18  and  C_19
REMARK   14  A    between atoms: C_19  and  C_21
REMARK   15  A    between atoms: C_25  and  O_26
REMARK                            x       y       z     vdW  Elec       q    Type
REMARK                         _______ _______ _______ _____ _____    ______ ____
ROOT
ATOM      1  C   LIG A   1      -8.772  -0.806 124.466  0.00  0.00    +0.063 A 
ATOM      2  C   LIG A   1      -8.079  -0.209 125.541  0.00  0.00    +0.022 A 
ATOM      3  C   LIG A   1      -8.084   1.187 125.733  0.00  0.00    -0.007 A 
ATOM      4  C   LIG A   1      -8.837   1.975 124.854  0.00  0.00    +0.011 A 
ATOM      5  C   LIG A   1      -9.510   1.405 123.776  0.00  0.00    +0.046 A 
ATOM      6  C   LIG A   1      -9.458   0.026 123.570  0.00  0.00    +0.128 A 
ENDROOT
BRANCH   1   7
ATOM      7  C   LIG A   1      -8.713  -2.300 124.353  0.00  0.00    +0.190 C 
ATOM      8  O   LIG A   1      -9.739  -2.928 124.109  0.00  0.00    -0.287 OA
BRANCH   7   9
ATOM      9  C   LIG A   1      -7.371  -2.954 124.456  0.00  0.00    +0.050 C 
ATOM     10  C   LIG A   1      -6.279  -2.803 123.680  0.00  0.00    -0.072 C 
ATOM     11  C   LIG A   1      -6.137  -1.901 122.487  0.00  0.00    +0.039 C 
ATOM     12  C   LIG A   1      -5.034  -3.583 124.023  0.00  0.00    +0.039 C 
ENDBRANCH   7   9
ENDBRANCH   1   7
BRANCH   3  13
ATOM     13  C   LIG A   1      -7.350   1.891 126.866  0.00  0.00    +0.204 C 
ATOM     14  C   LIG A   1      -7.790   1.430 128.257  0.00  0.00    +0.057 C 
BRANCH  13  15
ATOM     15  O   LIG A   1      -7.601   3.292 126.717  0.00  0.00    -0.454 OA
BRANCH  15  16
ATOM     16  C   LIG A   1      -6.566   4.151 126.950  0.00  0.00    +0.339 C 
ATOM     17  O   LIG A   1      -6.391   4.817 127.947  0.00  0.00    -0.245 OA
BRANCH  16  18
ATOM     18  C   LIG A   1      -5.567   4.014 125.844  0.00  0.00    +0.070 C 
ATOM     19  C   LIG A   1      -4.318   3.541 126.026  0.00  0.00    -0.016 C 
ATOM     20  C   LIG A   1      -3.690   3.043 127.286  0.00  0.00    +0.036 C 
BRANCH  18  21
ATOM     21  C   LIG A   1      -6.025   4.489 124.483  0.00  0.00    +0.274 C 
BRANCH  21  22
ATOM     22  O   LIG A   1      -5.221   3.894 123.445  0.00  0.00    -0.460 OA
BRANCH  22  23
ATOM     23  C   LIG A   1      -5.531   4.263 122.171  0.00  0.00    +0.304 C 
ATOM     24  O   LIG A   1      -4.926   5.083 121.495  0.00  0.00    -0.251 OA
ATOM     25  C   LIG A   1      -6.723   3.516 121.662  0.00  0.00    +0.136 C 
ENDBRANCH  22  23
ENDBRANCH  21  22
ENDBRANCH  18  21
ENDBRANCH  16  18
ENDBRANCH  15  16
ENDBRANCH  13  15
ENDBRANCH   3  13
BRANCH   6  26
ATOM     26  O   LIG A   1     -10.070  -0.476 122.454  0.00  0.00    -0.506 OA
ATOM     27  H   LIG A   1      -9.848  -1.418 122.356  0.00  0.00    +0.292 HD
ENDBRANCH   6  26
TORSDOF 10
ENDMDL
MODEL 8
REMARK VINA RESULT:      -6.6      2.967      5.733
REMARK  Name = NuBBE_2207
REMARK  15 active torsions:
REMARK  status: ('A' for Active; 'I' for Inactive)
REMARK    1  A    between atoms: C_1  and  C_3
REMARK    2  A    between atoms: C_1  and  C_7
REMARK    3  A    between atoms: C_4  and  C_5
REMARK    4  A    between atoms: C_4  and  C_6
REMARK    5  A    between atoms: C_9  and  C_10
REMARK    6  A    between atoms: C_10  and  O_11
REMARK    7  A    between atoms: C_10  and  C_22
REMARK    8  A    between atoms: O_11  and  C_12
REMARK    9  A    between atoms: C_12  and  C_14
REMARK   10  A    between atoms: C_14  and  C_17
REMARK   11  A    between atoms: C_15  and  C_16
REMARK   12  A    between atoms: C_17  and  O_18
REMARK   13  A    between atoms: O_18  and  C_19
REMARK   14  A    between atoms: C_19  and  C_21
REMARK   15  A    between atoms: C_25  and  O_26
REMARK                            x       y       z     vdW  Elec       q    Type
REMARK                         _______ _______ _______ _____ _____    ______ ____
ROOT
ATOM      1  C   LIG A   1      -7.729   0.329 123.470  0.00  0.00    +0.063 A 
ATOM      2  C   LIG A   1      -6.772   1.340 123.703  0.00  0.00    +0.022 A 
ATOM      3  C   LIG A   1      -7.132   2.703 123.713  0.00  0.00    -0.007 A 
ATOM      4  C   LIG A   1      -8.481   3.034 123.530  0.00  0.00    +0.011 A 
ATOM      5  C   LIG A   1      -9.433   2.050 123.278  0.00  0.00    +0.046 A 
ATOM      6  C   LIG A   1      -9.056   0.707 123.225  0.00  0.00    +0.128 A 
ENDROOT
BRANCH   1   7
ATOM      7  C   LIG A   1      -7.248  -1.092 123.489  0.00  0.00    +0.190 C 
ATOM      8  O   LIG A   1      -6.549  -1.505 122.569  0.00  0.00    -0.287 OA
BRANCH   7   9
ATOM      9  C   LIG A   1      -7.576  -1.922 124.690  0.00  0.00    +0.050 C 
ATOM     10  C   LIG A   1      -8.492  -2.902 124.834  0.00  0.00    -0.072 C 
ATOM     11  C   LIG A   1      -9.429  -3.423 123.783  0.00  0.00    +0.039 C 
ATOM     12  C   LIG A   1      -8.603  -3.597 126.169  0.00  0.00    +0.039 C 
ENDBRANCH   7   9
ENDBRANCH   1   7
BRANCH   3  13
ATOM     13  C   LIG A   1      -6.148   3.839 123.948  0.00  0.00    +0.204 C 
ATOM     14  C   LIG A   1      -5.417   4.285 122.681  0.00  0.00    +0.057 C 
BRANCH  13  15
ATOM     15  O   LIG A   1      -5.202   3.377 124.916  0.00  0.00    -0.454 OA
BRANCH  15  16
ATOM     16  C   LIG A   1      -5.104   4.067 126.090  0.00  0.00    +0.339 C 
ATOM     17  O   LIG A   1      -5.421   5.221 126.277  0.00  0.00    -0.245 OA
BRANCH  16  18
ATOM     18  C   LIG A   1      -4.704   3.118 127.175  0.00  0.00    +0.070 C 
ATOM     19  C   LIG A   1      -3.422   2.833 127.478  0.00  0.00    -0.016 C 
ATOM     20  C   LIG A   1      -2.180   3.386 126.861  0.00  0.00    +0.036 C 
BRANCH  18  21
ATOM     21  C   LIG A   1      -5.841   2.441 127.907  0.00  0.00    +0.274 C 
BRANCH  21  22
ATOM     22  O   LIG A   1      -7.109   2.841 127.348  0.00  0.00    -0.460 OA
BRANCH  22  23
ATOM     23  C   LIG A   1      -8.188   2.112 127.748  0.00  0.00    +0.304 C 
ATOM     24  O   LIG A   1      -9.080   2.500 128.490  0.00  0.00    -0.251 OA
ATOM     25  C   LIG A   1      -8.176   0.743 127.146  0.00  0.00    +0.136 C 
ENDBRANCH  22  23
ENDBRANCH  21  22
ENDBRANCH  18  21
ENDBRANCH  16  18
ENDBRANCH  15  16
ENDBRANCH  13  15
ENDBRANCH   3  13
BRANCH   6  26
ATOM     26  O   LIG A   1     -10.014  -0.213 122.898  0.00  0.00    -0.506 OA
ATOM     27  H   LIG A   1      -9.591  -1.003 122.520  0.00  0.00    +0.292 HD
ENDBRANCH   6  26
TORSDOF 10
ENDMDL
MODEL 9
REMARK VINA RESULT:      -6.6      1.927      7.145
REMARK  Name = NuBBE_2207
REMARK  15 active torsions:
REMARK  status: ('A' for Active; 'I' for Inactive)
REMARK    1  A    between atoms: C_1  and  C_3
REMARK    2  A    between atoms: C_1  and  C_7
REMARK    3  A    between atoms: C_4  and  C_5
REMARK    4  A    between atoms: C_4  and  C_6
REMARK    5  A    between atoms: C_9  and  C_10
REMARK    6  A    between atoms: C_10  and  O_11
REMARK    7  A    between atoms: C_10  and  C_22
REMARK    8  A    between atoms: O_11  and  C_12
REMARK    9  A    between atoms: C_12  and  C_14
REMARK   10  A    between atoms: C_14  and  C_17
REMARK   11  A    between atoms: C_15  and  C_16
REMARK   12  A    between atoms: C_17  and  O_18
REMARK   13  A    between atoms: O_18  and  C_19
REMARK   14  A    between atoms: C_19  and  C_21
REMARK   15  A    between atoms: C_25  and  O_26
REMARK                            x       y       z     vdW  Elec       q    Type
REMARK                         _______ _______ _______ _____ _____    ______ ____
ROOT
ATOM      1  C   LIG A   1      -7.920  -1.622 126.589  0.00  0.00    +0.063 A 
ATOM      2  C   LIG A   1      -7.911  -0.230 126.359  0.00  0.00    +0.022 A 
ATOM      3  C   LIG A   1      -7.812   0.690 127.422  0.00  0.00    -0.007 A 
ATOM      4  C   LIG A   1      -7.675   0.188 128.723  0.00  0.00    +0.011 A 
ATOM      5  C   LIG A   1      -7.702  -1.182 128.969  0.00  0.00    +0.046 A 
ATOM      6  C   LIG A   1      -7.848  -2.081 127.912  0.00  0.00    +0.128 A 
ENDROOT
BRANCH   1   7
ATOM      7  C   LIG A   1      -8.019  -2.518 125.391  0.00  0.00    +0.190 C 
ATOM      8  O   LIG A   1      -9.118  -2.735 124.889  0.00  0.00    -0.287 OA
BRANCH   7   9
ATOM      9  C   LIG A   1      -6.745  -3.041 124.804  0.00  0.00    +0.050 C 
ATOM     10  C   LIG A   1      -6.065  -2.623 123.716  0.00  0.00    -0.072 C 
ATOM     11  C   LIG A   1      -6.428  -1.485 122.806  0.00  0.00    +0.039 C 
ATOM     12  C   LIG A   1      -4.781  -3.327 123.353  0.00  0.00    +0.039 C 
ENDBRANCH   7   9
ENDBRANCH   1   7
BRANCH   3  13
ATOM     13  C   LIG A   1      -7.807   2.201 127.241  0.00  0.00    +0.204 C 
ATOM     14  C   LIG A   1      -8.338   2.963 128.456  0.00  0.00    +0.057 C 
BRANCH  13  15
ATOM     15  O   LIG A   1      -8.618   2.486 126.097  0.00  0.00    -0.454 OA
BRANCH  15  16
ATOM     16  C   LIG A   1      -8.285   3.568 125.335  0.00  0.00    +0.339 C 
ATOM     17  O   LIG A   1      -8.648   4.711 125.508  0.00  0.00    -0.245 OA
BRANCH  16  18
ATOM     18  C   LIG A   1      -7.246   3.157 124.340  0.00  0.00    +0.070 C 
ATOM     19  C   LIG A   1      -5.931   3.405 124.494  0.00  0.00    -0.016 C 
ATOM     20  C   LIG A   1      -5.242   4.076 125.637  0.00  0.00    +0.036 C 
BRANCH  18  21
ATOM     21  C   LIG A   1      -7.764   2.472 123.095  0.00  0.00    +0.274 C 
BRANCH  21  22
ATOM     22  O   LIG A   1      -8.712   3.317 122.412  0.00  0.00    -0.460 OA
BRANCH  22  23
ATOM     23  C   LIG A   1      -8.413   3.614 121.117  0.00  0.00    +0.304 C 
ATOM     24  O   LIG A   1      -9.222   3.803 120.219  0.00  0.00    -0.251 OA
ATOM     25  C   LIG A   1      -6.935   3.709 120.906  0.00  0.00    +0.136 C 
ENDBRANCH  22  23
ENDBRANCH  21  22
ENDBRANCH  18  21
ENDBRANCH  16  18
ENDBRANCH  15  16
ENDBRANCH  13  15
ENDBRANCH   3  13
BRANCH   6  26
ATOM     26  O   LIG A   1      -7.947  -3.411 128.214  0.00  0.00    -0.506 OA
ATOM     27  H   LIG A   1      -7.786  -3.543 129.163  0.00  0.00    +0.292 HD
ENDBRANCH   6  26
TORSDOF 10
ENDMDL
