MODEL 1
REMARK VINA RESULT:      -3.2      0.000      0.000
REMARK  Name = NuBBE_1972
REMARK  4 active torsions:
REMARK  status: ('A' for Active; 'I' for Inactive)
REMARK    1  A    between atoms: C_1  and  S_2
REMARK    2  A    between atoms: C_1  and  C_5
REMARK    3  A    between atoms: S_2  and  S_3
REMARK    4  A    between atoms: S_3  and  C_4
REMARK                            x       y       z     vdW  Elec       q    Type
REMARK                         _______ _______ _______ _____ _____    ______ ____
ROOT
ATOM      1  C   LIG A   1     -12.979   9.579 129.994  0.00  0.00    +0.107 C 
ENDROOT
BRANCH   1   2
ATOM      2  C   LIG A   1     -13.563  10.892 129.558  0.00  0.00    -0.023 C 
ATOM      3  C   LIG A   1     -13.683  11.969 130.344  0.00  0.00    +0.005 C 
ENDBRANCH   1   2
BRANCH   1   4
ATOM      4  S   LIG A   1     -12.935   8.442 128.574  0.00  0.00    -0.089 S 
BRANCH   4   5
ATOM      5  S   LIG A   1     -10.927   8.373 128.127  0.00  0.00    -0.096 S 
ATOM      6  C   LIG A   1     -10.926   7.539 126.519  0.00  0.00    +0.097 C 
ENDBRANCH   4   5
ENDBRANCH   1   4
TORSDOF 3
ENDMDL
MODEL 2
REMARK VINA RESULT:      -3.2     13.929     15.302
REMARK  Name = NuBBE_1972
REMARK  4 active torsions:
REMARK  status: ('A' for Active; 'I' for Inactive)
REMARK    1  A    between atoms: C_1  and  S_2
REMARK    2  A    between atoms: C_1  and  C_5
REMARK    3  A    between atoms: S_2  and  S_3
REMARK    4  A    between atoms: S_3  and  C_4
REMARK                            x       y       z     vdW  Elec       q    Type
REMARK                         _______ _______ _______ _____ _____    ______ ____
ROOT
ATOM      1  C   LIG A   1      -6.183  -3.088 123.919  0.00  0.00    +0.107 C 
ENDROOT
BRANCH   1   2
ATOM      2  C   LIG A   1      -4.766  -3.510 123.653  0.00  0.00    -0.023 C 
ATOM      3  C   LIG A   1      -4.353  -4.782 123.580  0.00  0.00    +0.005 C 
ENDBRANCH   1   2
BRANCH   1   4
ATOM      4  S   LIG A   1      -6.614  -1.710 122.813  0.00  0.00    -0.089 S 
BRANCH   4   5
ATOM      5  S   LIG A   1      -8.619  -1.445 123.200  0.00  0.00    -0.096 S 
ATOM      6  C   LIG A   1      -9.173  -3.141 123.507  0.00  0.00    +0.097 C 
ENDBRANCH   4   5
ENDBRANCH   1   4
TORSDOF 3
ENDMDL
MODEL 3
REMARK VINA RESULT:      -3.1      2.068      2.731
REMARK  Name = NuBBE_1972
REMARK  4 active torsions:
REMARK  status: ('A' for Active; 'I' for Inactive)
REMARK    1  A    between atoms: C_1  and  S_2
REMARK    2  A    between atoms: C_1  and  C_5
REMARK    3  A    between atoms: S_2  and  S_3
REMARK    4  A    between atoms: S_3  and  C_4
REMARK                            x       y       z     vdW  Elec       q    Type
REMARK                         _______ _______ _______ _____ _____    ______ ____
ROOT
ATOM      1  C   LIG A   1     -13.290   8.541 128.374  0.00  0.00    +0.107 C 
ENDROOT
BRANCH   1   2
ATOM      2  C   LIG A   1     -12.876   9.499 129.454  0.00  0.00    -0.023 C 
ATOM      3  C   LIG A   1     -13.472  10.673 129.698  0.00  0.00    +0.005 C 
ENDBRANCH   1   2
BRANCH   1   4
ATOM      4  S   LIG A   1     -12.896   6.844 128.896  0.00  0.00    -0.089 S 
BRANCH   4   5
ATOM      5  S   LIG A   1     -11.217   7.118 130.056  0.00  0.00    -0.096 S 
ATOM      6  C   LIG A   1     -11.784   6.553 131.681  0.00  0.00    +0.097 C 
ENDBRANCH   4   5
ENDBRANCH   1   4
TORSDOF 3
ENDMDL
MODEL 4
REMARK VINA RESULT:      -3.0     12.688     15.205
REMARK  Name = NuBBE_1972
REMARK  4 active torsions:
REMARK  status: ('A' for Active; 'I' for Inactive)
REMARK    1  A    between atoms: C_1  and  S_2
REMARK    2  A    between atoms: C_1  and  C_5
REMARK    3  A    between atoms: S_2  and  S_3
REMARK    4  A    between atoms: S_3  and  C_4
REMARK                            x       y       z     vdW  Elec       q    Type
REMARK                         _______ _______ _______ _____ _____    ______ ____
ROOT
ATOM      1  C   LIG A   1      -5.730  -2.835 124.053  0.00  0.00    +0.107 C 
ENDROOT
BRANCH   1   2
ATOM      2  C   LIG A   1      -4.530  -3.524 123.471  0.00  0.00    -0.023 C 
ATOM      3  C   LIG A   1      -4.316  -4.845 123.515  0.00  0.00    +0.005 C 
ENDBRANCH   1   2
BRANCH   1   4
ATOM      4  S   LIG A   1      -6.486  -1.772 122.785  0.00  0.00    -0.089 S 
BRANCH   4   5
ATOM      5  S   LIG A   1      -8.493  -2.166 123.018  0.00  0.00    -0.096 S 
ATOM      6  C   LIG A   1      -9.194  -0.501 123.139  0.00  0.00    +0.097 C 
ENDBRANCH   4   5
ENDBRANCH   1   4
TORSDOF 3
ENDMDL
MODEL 5
REMARK VINA RESULT:      -3.0      2.427      3.988
REMARK  Name = NuBBE_1972
REMARK  4 active torsions:
REMARK  status: ('A' for Active; 'I' for Inactive)
REMARK    1  A    between atoms: C_1  and  S_2
REMARK    2  A    between atoms: C_1  and  C_5
REMARK    3  A    between atoms: S_2  and  S_3
REMARK    4  A    between atoms: S_3  and  C_4
REMARK                            x       y       z     vdW  Elec       q    Type
REMARK                         _______ _______ _______ _____ _____    ______ ____
ROOT
ATOM      1  C   LIG A   1     -12.098   8.620 129.013  0.00  0.00    +0.107 C 
ENDROOT
BRANCH   1   2
ATOM      2  C   LIG A   1     -10.893   8.467 128.130  0.00  0.00    -0.023 C 
ATOM      3  C   LIG A   1     -10.913   7.931 126.903  0.00  0.00    +0.005 C 
ENDBRANCH   1   2
BRANCH   1   4
ATOM      4  S   LIG A   1     -12.967   7.026 129.123  0.00  0.00    -0.089 S 
BRANCH   4   5
ATOM      5  S   LIG A   1     -11.585   5.834 130.076  0.00  0.00    -0.096 S 
ATOM      6  C   LIG A   1     -11.594   6.513 131.754  0.00  0.00    +0.097 C 
ENDBRANCH   4   5
ENDBRANCH   1   4
TORSDOF 3
ENDMDL
MODEL 6
REMARK VINA RESULT:      -2.8      2.797      3.425
REMARK  Name = NuBBE_1972
REMARK  4 active torsions:
REMARK  status: ('A' for Active; 'I' for Inactive)
REMARK    1  A    between atoms: C_1  and  S_2
REMARK    2  A    between atoms: C_1  and  C_5
REMARK    3  A    between atoms: S_2  and  S_3
REMARK    4  A    between atoms: S_3  and  C_4
REMARK                            x       y       z     vdW  Elec       q    Type
REMARK                         _______ _______ _______ _____ _____    ______ ____
ROOT
ATOM      1  C   LIG A   1     -11.499   6.171 130.096  0.00  0.00    +0.107 C 
ENDROOT
BRANCH   1   2
ATOM      2  C   LIG A   1     -12.089   6.707 131.368  0.00  0.00    -0.023 C 
ATOM      3  C   LIG A   1     -12.982   7.703 131.432  0.00  0.00    +0.005 C 
ENDBRANCH   1   2
BRANCH   1   4
ATOM      4  S   LIG A   1     -10.022   7.141 129.665  0.00  0.00    -0.089 S 
BRANCH   4   5
ATOM      5  S   LIG A   1     -10.712   8.344 128.144  0.00  0.00    -0.096 S 
ATOM      6  C   LIG A   1     -12.084   7.365 127.481  0.00  0.00    +0.097 C 
ENDBRANCH   4   5
ENDBRANCH   1   4
TORSDOF 3
ENDMDL
MODEL 7
REMARK VINA RESULT:      -2.8      3.501      4.393
REMARK  Name = NuBBE_1972
REMARK  4 active torsions:
REMARK  status: ('A' for Active; 'I' for Inactive)
REMARK    1  A    between atoms: C_1  and  S_2
REMARK    2  A    between atoms: C_1  and  C_5
REMARK    3  A    between atoms: S_2  and  S_3
REMARK    4  A    between atoms: S_3  and  C_4
REMARK                            x       y       z     vdW  Elec       q    Type
REMARK                         _______ _______ _______ _____ _____    ______ ____
ROOT
ATOM      1  C   LIG A   1     -11.607   6.496 131.644  0.00  0.00    +0.107 C 
ENDROOT
BRANCH   1   2
ATOM      2  C   LIG A   1     -10.157   6.227 131.925  0.00  0.00    -0.023 C 
ATOM      3  C   LIG A   1      -9.143   6.653 131.162  0.00  0.00    +0.005 C 
ENDBRANCH   1   2
BRANCH   1   4
ATOM      4  S   LIG A   1     -11.908   6.352 129.856  0.00  0.00    -0.089 S 
BRANCH   4   5
ATOM      5  S   LIG A   1     -12.055   8.321 129.274  0.00  0.00    -0.096 S 
ATOM      6  C   LIG A   1     -10.673   8.478 128.115  0.00  0.00    +0.097 C 
ENDBRANCH   4   5
ENDBRANCH   1   4
TORSDOF 3
ENDMDL
MODEL 8
REMARK VINA RESULT:      -2.8      2.212      2.761
REMARK  Name = NuBBE_1972
REMARK  4 active torsions:
REMARK  status: ('A' for Active; 'I' for Inactive)
REMARK    1  A    between atoms: C_1  and  S_2
REMARK    2  A    between atoms: C_1  and  C_5
REMARK    3  A    between atoms: S_2  and  S_3
REMARK    4  A    between atoms: S_3  and  C_4
REMARK                            x       y       z     vdW  Elec       q    Type
REMARK                         _______ _______ _______ _____ _____    ______ ____
ROOT
ATOM      1  C   LIG A   1     -12.465   6.450 129.689  0.00  0.00    +0.107 C 
ENDROOT
BRANCH   1   2
ATOM      2  C   LIG A   1     -12.870   7.295 130.862  0.00  0.00    -0.023 C 
ATOM      3  C   LIG A   1     -12.895   8.634 130.863  0.00  0.00    +0.005 C 
ENDBRANCH   1   2
BRANCH   1   4
ATOM      4  S   LIG A   1     -13.394   6.982 128.218  0.00  0.00    -0.089 S 
BRANCH   4   5
ATOM      5  S   LIG A   1     -11.899   7.285 126.837  0.00  0.00    -0.096 S 
ATOM      6  C   LIG A   1     -10.748   8.342 127.752  0.00  0.00    +0.097 C 
ENDBRANCH   4   5
ENDBRANCH   1   4
TORSDOF 3
ENDMDL
MODEL 9
REMARK VINA RESULT:      -2.7      3.224      3.968
REMARK  Name = NuBBE_1972
REMARK  4 active torsions:
REMARK  status: ('A' for Active; 'I' for Inactive)
REMARK    1  A    between atoms: C_1  and  S_2
REMARK    2  A    between atoms: C_1  and  C_5
REMARK    3  A    between atoms: S_2  and  S_3
REMARK    4  A    between atoms: S_3  and  C_4
REMARK                            x       y       z     vdW  Elec       q    Type
REMARK                         _______ _______ _______ _____ _____    ______ ____
ROOT
ATOM      1  C   LIG A   1     -11.413   7.191 128.110  0.00  0.00    +0.107 C 
ENDROOT
BRANCH   1   2
ATOM      2  C   LIG A   1     -12.664   7.069 127.288  0.00  0.00    -0.023 C 
ATOM      3  C   LIG A   1     -13.887   7.414 127.709  0.00  0.00    +0.005 C 
ENDBRANCH   1   2
BRANCH   1   4
ATOM      4  S   LIG A   1     -11.767   8.174 129.598  0.00  0.00    -0.089 S 
BRANCH   4   5
ATOM      5  S   LIG A   1     -12.082   6.722 131.023  0.00  0.00    -0.096 S 
ATOM      6  C   LIG A   1     -11.196   5.306 130.322  0.00  0.00    +0.097 C 
ENDBRANCH   4   5
ENDBRANCH   1   4
TORSDOF 3
ENDMDL
