MODEL 1
REMARK VINA RESULT:      -6.3      0.000      0.000
REMARK  Name = NuBBE_1795
REMARK  18 active torsions:
REMARK  status: ('A' for Active; 'I' for Inactive)
REMARK    1  A    between atoms: C_2  and  C_3
REMARK    2  A    between atoms: C_3  and  C_4
REMARK    3  A    between atoms: C_4  and  C_5
REMARK    4  A    between atoms: C_5  and  C_6
REMARK    5  A    between atoms: C_6  and  C_7
REMARK    6  A    between atoms: C_7  and  C_8
REMARK    7  A    between atoms: C_8  and  C_9
REMARK    8  A    between atoms: C_9  and  C_10
REMARK    9  A    between atoms: C_10  and  C_11
REMARK   10  A    between atoms: C_13  and  C_14
REMARK   11  A    between atoms: C_14  and  C_15
REMARK   12  A    between atoms: C_15  and  O_16
REMARK   13  A    between atoms: C_15  and  C_20
REMARK   14  A    between atoms: O_16  and  C_17
REMARK   15  A    between atoms: C_17  and  C_18
REMARK   16  A    between atoms: C_20  and  O_21
REMARK   17  A    between atoms: O_21  and  C_22
REMARK   18  A    between atoms: C_22  and  C_23
REMARK                            x       y       z     vdW  Elec       q    Type
REMARK                         _______ _______ _______ _____ _____    ______ ____
ROOT
ATOM      1  C   LIG A   1      -9.054  -1.475 123.774  0.00  0.00    +0.177 C 
ATOM      2  C   LIG A   1      -7.847  -0.617 123.474  0.00  0.00    +0.059 C 
ATOM      3  C   LIG A   1      -8.438   0.740 123.149  0.00  0.00    +0.105 C 
ATOM      4  C   LIG A   1      -9.825   0.367 122.682  0.00  0.00    +0.311 C 
ATOM      5  O   LIG A   1     -10.106  -0.934 122.980  0.00  0.00    -0.461 OA
ATOM      6  O   LIG A   1     -10.591   1.115 122.098  0.00  0.00    -0.251 OA
ENDROOT
BRANCH   1   7
ATOM      7  C   LIG A   1      -8.781  -2.936 123.429  0.00  0.00    +0.045 C 
BRANCH   7   8
ATOM      8  C   LIG A   1      -8.516  -3.783 124.671  0.00  0.00    +0.003 C 
BRANCH   8   9
ATOM      9  C   LIG A   1      -9.078  -3.100 125.913  0.00  0.00    +0.000 C 
BRANCH   9  10
ATOM     10  C   LIG A   1      -7.989  -2.877 126.962  0.00  0.00    -0.000 C 
BRANCH  10  11
ATOM     11  C   LIG A   1      -7.635  -1.400 127.138  0.00  0.00    +0.000 C 
BRANCH  11  12
ATOM     12  C   LIG A   1      -6.250  -1.061 126.591  0.00  0.00    +0.001 C 
BRANCH  12  13
ATOM     13  C   LIG A   1      -5.515  -2.307 126.096  0.00  0.00    +0.013 C 
BRANCH  13  14
ATOM     14  C   LIG A   1      -5.175  -2.219 124.607  0.00  0.00    +0.088 C 
BRANCH  14  16
ATOM     15  C   LIG A   1      -4.515  -4.620 123.647  0.00  0.00    +0.004 C 
ATOM     16  C   LIG A   1      -4.808  -3.535 124.054  0.00  0.00    -0.106 C 
ENDBRANCH  14  16
ENDBRANCH  13  14
ENDBRANCH  12  13
ENDBRANCH  11  12
ENDBRANCH  10  11
ENDBRANCH   9  10
ENDBRANCH   8   9
ENDBRANCH   7   8
ENDBRANCH   1   7
BRANCH   3  17
ATOM     17  C   LIG A   1      -8.423   1.679 124.356  0.00  0.00    +0.063 C 
BRANCH  17  18
ATOM     18  C   LIG A   1      -8.070   3.143 124.043  0.00  0.00    +0.214 C 
BRANCH  18  19
ATOM     19  C   LIG A   1      -7.341   3.337 122.696  0.00  0.00    +0.276 C 
BRANCH  19  20
ATOM     20  O   LIG A   1      -6.126   4.085 122.924  0.00  0.00    -0.461 OA
BRANCH  20  21
ATOM     21  C   LIG A   1      -5.357   4.288 121.820  0.00  0.00    +0.304 C 
ATOM     22  C   LIG A   1      -5.555   3.172 120.842  0.00  0.00    +0.136 C 
ATOM     23  O   LIG A   1      -4.537   5.182 121.678  0.00  0.00    -0.251 OA
ENDBRANCH  20  21
ENDBRANCH  19  20
ENDBRANCH  18  19
BRANCH  18  24
ATOM     24  O   LIG A   1      -7.187   3.657 125.073  0.00  0.00    -0.458 OA
BRANCH  24  25
ATOM     25  C   LIG A   1      -7.792   4.271 126.128  0.00  0.00    +0.304 C 
ATOM     26  C   LIG A   1      -7.339   3.637 127.408  0.00  0.00    +0.136 C 
ATOM     27  O   LIG A   1      -8.507   5.259 126.061  0.00  0.00    -0.251 OA
ENDBRANCH  24  25
ENDBRANCH  18  24
ENDBRANCH  17  18
ENDBRANCH   3  17
TORSDOF 16
ENDMDL
MODEL 2
REMARK VINA RESULT:      -6.1      1.711      2.222
REMARK  Name = NuBBE_1795
REMARK  18 active torsions:
REMARK  status: ('A' for Active; 'I' for Inactive)
REMARK    1  A    between atoms: C_2  and  C_3
REMARK    2  A    between atoms: C_3  and  C_4
REMARK    3  A    between atoms: C_4  and  C_5
REMARK    4  A    between atoms: C_5  and  C_6
REMARK    5  A    between atoms: C_6  and  C_7
REMARK    6  A    between atoms: C_7  and  C_8
REMARK    7  A    between atoms: C_8  and  C_9
REMARK    8  A    between atoms: C_9  and  C_10
REMARK    9  A    between atoms: C_10  and  C_11
REMARK   10  A    between atoms: C_13  and  C_14
REMARK   11  A    between atoms: C_14  and  C_15
REMARK   12  A    between atoms: C_15  and  O_16
REMARK   13  A    between atoms: C_15  and  C_20
REMARK   14  A    between atoms: O_16  and  C_17
REMARK   15  A    between atoms: C_17  and  C_18
REMARK   16  A    between atoms: C_20  and  O_21
REMARK   17  A    between atoms: O_21  and  C_22
REMARK   18  A    between atoms: C_22  and  C_23
REMARK                            x       y       z     vdW  Elec       q    Type
REMARK                         _______ _______ _______ _____ _____    ______ ____
ROOT
ATOM      1  C   LIG A   1      -8.650  -1.740 124.348  0.00  0.00    +0.177 C 
ATOM      2  C   LIG A   1      -7.641  -0.668 124.006  0.00  0.00    +0.059 C 
ATOM      3  C   LIG A   1      -8.488   0.472 123.477  0.00  0.00    +0.105 C 
ATOM      4  C   LIG A   1      -9.715  -0.259 122.988  0.00  0.00    +0.311 C 
ATOM      5  O   LIG A   1      -9.727  -1.547 123.436  0.00  0.00    -0.461 OA
ATOM      6  O   LIG A   1     -10.577   0.223 122.272  0.00  0.00    -0.251 OA
ENDROOT
BRANCH   1   7
ATOM      7  C   LIG A   1      -8.035  -3.129 124.210  0.00  0.00    +0.045 C 
BRANCH   7   8
ATOM      8  C   LIG A   1      -8.156  -3.945 125.494  0.00  0.00    +0.003 C 
BRANCH   8   9
ATOM      9  C   LIG A   1      -8.931  -3.166 126.551  0.00  0.00    +0.000 C 
BRANCH   9  10
ATOM     10  C   LIG A   1      -9.020  -3.947 127.861  0.00  0.00    -0.000 C 
BRANCH  10  11
ATOM     11  C   LIG A   1      -8.509  -3.146 129.059  0.00  0.00    +0.000 C 
BRANCH  11  12
ATOM     12  C   LIG A   1      -7.138  -3.621 129.538  0.00  0.00    +0.001 C 
BRANCH  12  13
ATOM     13  C   LIG A   1      -6.133  -2.470 129.610  0.00  0.00    +0.013 C 
BRANCH  13  14
ATOM     14  C   LIG A   1      -5.134  -2.508 128.452  0.00  0.00    +0.088 C 
BRANCH  14  16
ATOM     15  C   LIG A   1      -2.941  -3.895 129.071  0.00  0.00    +0.004 C 
ATOM     16  C   LIG A   1      -3.915  -3.255 128.809  0.00  0.00    -0.106 C 
ENDBRANCH  14  16
ENDBRANCH  13  14
ENDBRANCH  12  13
ENDBRANCH  11  12
ENDBRANCH  10  11
ENDBRANCH   9  10
ENDBRANCH   8   9
ENDBRANCH   7   8
ENDBRANCH   1   7
BRANCH   3  17
ATOM     17  C   LIG A   1      -8.778   1.520 124.552  0.00  0.00    +0.063 C 
BRANCH  17  18
ATOM     18  C   LIG A   1      -8.643   2.982 124.095  0.00  0.00    +0.214 C 
BRANCH  18  19
ATOM     19  C   LIG A   1      -8.316   3.142 122.594  0.00  0.00    +0.276 C 
BRANCH  19  20
ATOM     20  O   LIG A   1      -6.928   3.514 122.453  0.00  0.00    -0.461 OA
BRANCH  20  21
ATOM     21  C   LIG A   1      -6.536   3.811 121.185  0.00  0.00    +0.304 C 
ATOM     22  C   LIG A   1      -5.062   4.071 121.148  0.00  0.00    +0.136 C 
ATOM     23  O   LIG A   1      -7.278   3.958 120.226  0.00  0.00    -0.251 OA
ENDBRANCH  20  21
ENDBRANCH  19  20
ENDBRANCH  18  19
BRANCH  18  24
ATOM     24  O   LIG A   1      -7.563   3.619 124.826  0.00  0.00    -0.458 OA
BRANCH  24  25
ATOM     25  C   LIG A   1      -7.932   4.400 125.879  0.00  0.00    +0.304 C 
ATOM     26  C   LIG A   1      -7.207   3.957 127.114  0.00  0.00    +0.136 C 
ATOM     27  O   LIG A   1      -8.655   5.382 125.818  0.00  0.00    -0.251 OA
ENDBRANCH  24  25
ENDBRANCH  18  24
ENDBRANCH  17  18
ENDBRANCH   3  17
TORSDOF 16
ENDMDL
MODEL 3
REMARK VINA RESULT:      -6.0      2.701      4.328
REMARK  Name = NuBBE_1795
REMARK  18 active torsions:
REMARK  status: ('A' for Active; 'I' for Inactive)
REMARK    1  A    between atoms: C_2  and  C_3
REMARK    2  A    between atoms: C_3  and  C_4
REMARK    3  A    between atoms: C_4  and  C_5
REMARK    4  A    between atoms: C_5  and  C_6
REMARK    5  A    between atoms: C_6  and  C_7
REMARK    6  A    between atoms: C_7  and  C_8
REMARK    7  A    between atoms: C_8  and  C_9
REMARK    8  A    between atoms: C_9  and  C_10
REMARK    9  A    between atoms: C_10  and  C_11
REMARK   10  A    between atoms: C_13  and  C_14
REMARK   11  A    between atoms: C_14  and  C_15
REMARK   12  A    between atoms: C_15  and  O_16
REMARK   13  A    between atoms: C_15  and  C_20
REMARK   14  A    between atoms: O_16  and  C_17
REMARK   15  A    between atoms: C_17  and  C_18
REMARK   16  A    between atoms: C_20  and  O_21
REMARK   17  A    between atoms: O_21  and  C_22
REMARK   18  A    between atoms: C_22  and  C_23
REMARK                            x       y       z     vdW  Elec       q    Type
REMARK                         _______ _______ _______ _____ _____    ______ ____
ROOT
ATOM      1  C   LIG A   1      -7.259  -1.871 127.142  0.00  0.00    +0.177 C 
ATOM      2  C   LIG A   1      -7.628  -0.463 126.736  0.00  0.00    +0.059 C 
ATOM      3  C   LIG A   1      -6.670   0.406 127.529  0.00  0.00    +0.105 C 
ATOM      4  C   LIG A   1      -6.344  -0.488 128.701  0.00  0.00    +0.311 C 
ATOM      5  O   LIG A   1      -6.775  -1.763 128.478  0.00  0.00    -0.461 OA
ATOM      6  O   LIG A   1      -5.788  -0.124 129.724  0.00  0.00    -0.251 OA
ENDROOT
BRANCH   1   7
ATOM      7  C   LIG A   1      -8.468  -2.797 127.053  0.00  0.00    +0.045 C 
BRANCH   7   8
ATOM      8  C   LIG A   1      -9.258  -2.593 125.763  0.00  0.00    +0.003 C 
BRANCH   8   9
ATOM      9  C   LIG A   1      -8.795  -3.575 124.693  0.00  0.00    +0.000 C 
BRANCH   9  10
ATOM     10  C   LIG A   1      -8.779  -2.921 123.312  0.00  0.00    -0.000 C 
BRANCH  10  11
ATOM     11  C   LIG A   1      -8.699  -1.396 123.385  0.00  0.00    +0.000 C 
BRANCH  11  12
ATOM     12  C   LIG A   1      -7.276  -0.874 123.196  0.00  0.00    +0.001 C 
BRANCH  12  13
ATOM     13  C   LIG A   1      -6.313  -1.989 122.784  0.00  0.00    +0.013 C 
BRANCH  13  14
ATOM     14  C   LIG A   1      -5.358  -2.369 123.917  0.00  0.00    +0.088 C 
BRANCH  14  16
ATOM     15  C   LIG A   1      -4.323  -4.798 123.528  0.00  0.00    +0.004 C 
ATOM     16  C   LIG A   1      -4.795  -3.718 123.725  0.00  0.00    -0.106 C 
ENDBRANCH  14  16
ENDBRANCH  13  14
ENDBRANCH  12  13
ENDBRANCH  11  12
ENDBRANCH  10  11
ENDBRANCH   9  10
ENDBRANCH   8   9
ENDBRANCH   7   8
ENDBRANCH   1   7
BRANCH   3  17
ATOM     17  C   LIG A   1      -5.450   0.816 126.704  0.00  0.00    +0.063 C 
BRANCH  17  18
ATOM     18  C   LIG A   1      -5.436   2.283 126.240  0.00  0.00    +0.214 C 
BRANCH  18  19
ATOM     19  C   LIG A   1      -6.231   2.536 124.940  0.00  0.00    +0.276 C 
BRANCH  19  20
ATOM     20  O   LIG A   1      -7.521   3.090 125.280  0.00  0.00    -0.461 OA
BRANCH  20  21
ATOM     21  C   LIG A   1      -8.568   2.589 124.571  0.00  0.00    +0.304 C 
ATOM     22  C   LIG A   1      -8.400   2.897 123.116  0.00  0.00    +0.136 C 
ATOM     23  O   LIG A   1      -9.562   2.063 125.046  0.00  0.00    -0.251 OA
ENDBRANCH  20  21
ENDBRANCH  19  20
ENDBRANCH  18  19
BRANCH  18  24
ATOM     24  O   LIG A   1      -4.069   2.693 125.979  0.00  0.00    -0.458 OA
BRANCH  24  25
ATOM     25  C   LIG A   1      -3.413   3.285 127.016  0.00  0.00    +0.304 C 
ATOM     26  C   LIG A   1      -1.937   3.087 126.857  0.00  0.00    +0.136 C 
ATOM     27  O   LIG A   1      -3.929   3.969 127.887  0.00  0.00    -0.251 OA
ENDBRANCH  24  25
ENDBRANCH  18  24
ENDBRANCH  17  18
ENDBRANCH   3  17
TORSDOF 16
ENDMDL
MODEL 4
REMARK VINA RESULT:      -5.9      1.802      3.435
REMARK  Name = NuBBE_1795
REMARK  18 active torsions:
REMARK  status: ('A' for Active; 'I' for Inactive)
REMARK    1  A    between atoms: C_2  and  C_3
REMARK    2  A    between atoms: C_3  and  C_4
REMARK    3  A    between atoms: C_4  and  C_5
REMARK    4  A    between atoms: C_5  and  C_6
REMARK    5  A    between atoms: C_6  and  C_7
REMARK    6  A    between atoms: C_7  and  C_8
REMARK    7  A    between atoms: C_8  and  C_9
REMARK    8  A    between atoms: C_9  and  C_10
REMARK    9  A    between atoms: C_10  and  C_11
REMARK   10  A    between atoms: C_13  and  C_14
REMARK   11  A    between atoms: C_14  and  C_15
REMARK   12  A    between atoms: C_15  and  O_16
REMARK   13  A    between atoms: C_15  and  C_20
REMARK   14  A    between atoms: O_16  and  C_17
REMARK   15  A    between atoms: C_17  and  C_18
REMARK   16  A    between atoms: C_20  and  O_21
REMARK   17  A    between atoms: O_21  and  C_22
REMARK   18  A    between atoms: C_22  and  C_23
REMARK                            x       y       z     vdW  Elec       q    Type
REMARK                         _______ _______ _______ _____ _____    ______ ____
ROOT
ATOM      1  C   LIG A   1      -8.669  -1.816 124.116  0.00  0.00    +0.177 C 
ATOM      2  C   LIG A   1      -7.582  -0.890 123.622  0.00  0.00    +0.059 C 
ATOM      3  C   LIG A   1      -8.335   0.350 123.180  0.00  0.00    +0.105 C 
ATOM      4  C   LIG A   1      -9.700  -0.216 122.869  0.00  0.00    +0.311 C 
ATOM      5  O   LIG A   1      -9.821  -1.488 123.345  0.00  0.00    -0.461 OA
ATOM      6  O   LIG A   1     -10.578   0.372 122.258  0.00  0.00    -0.251 OA
ENDROOT
BRANCH   1   7
ATOM      7  C   LIG A   1      -8.264  -3.275 123.932  0.00  0.00    +0.045 C 
BRANCH   7   8
ATOM      8  C   LIG A   1      -8.237  -4.039 125.254  0.00  0.00    +0.003 C 
BRANCH   8   9
ATOM      9  C   LIG A   1      -9.164  -3.379 126.269  0.00  0.00    +0.000 C 
BRANCH   9  10
ATOM     10  C   LIG A   1      -8.718  -3.677 127.700  0.00  0.00    -0.000 C 
BRANCH  10  11
ATOM     11  C   LIG A   1      -7.966  -2.507 128.337  0.00  0.00    +0.000 C 
BRANCH  11  12
ATOM     12  C   LIG A   1      -6.647  -2.938 128.976  0.00  0.00    +0.001 C 
BRANCH  12  13
ATOM     13  C   LIG A   1      -5.449  -2.234 128.335  0.00  0.00    +0.013 C 
BRANCH  13  14
ATOM     14  C   LIG A   1      -5.639  -2.037 126.830  0.00  0.00    +0.088 C 
BRANCH  14  16
ATOM     15  C   LIG A   1      -5.218   0.509 126.152  0.00  0.00    +0.004 C 
ATOM     16  C   LIG A   1      -5.415  -0.635 126.432  0.00  0.00    -0.106 C 
ENDBRANCH  14  16
ENDBRANCH  13  14
ENDBRANCH  12  13
ENDBRANCH  11  12
ENDBRANCH  10  11
ENDBRANCH   9  10
ENDBRANCH   8   9
ENDBRANCH   7   8
ENDBRANCH   1   7
BRANCH   3  17
ATOM     17  C   LIG A   1      -8.344   1.433 124.259  0.00  0.00    +0.063 C 
BRANCH  17  18
ATOM     18  C   LIG A   1      -7.937   2.837 123.780  0.00  0.00    +0.214 C 
BRANCH  18  19
ATOM     19  C   LIG A   1      -7.927   3.902 124.898  0.00  0.00    +0.276 C 
BRANCH  19  20
ATOM     20  O   LIG A   1      -6.919   3.551 125.872  0.00  0.00    -0.461 OA
BRANCH  20  21
ATOM     21  C   LIG A   1      -7.283   3.733 127.170  0.00  0.00    +0.304 C 
ATOM     22  C   LIG A   1      -7.981   2.514 127.686  0.00  0.00    +0.136 C 
ATOM     23  O   LIG A   1      -7.165   4.771 127.803  0.00  0.00    -0.251 OA
ENDBRANCH  20  21
ENDBRANCH  19  20
ENDBRANCH  18  19
BRANCH  18  24
ATOM     24  O   LIG A   1      -8.878   3.296 122.776  0.00  0.00    -0.458 OA
BRANCH  24  25
ATOM     25  C   LIG A   1      -8.361   3.546 121.541  0.00  0.00    +0.304 C 
ATOM     26  C   LIG A   1      -6.865   3.491 121.599  0.00  0.00    +0.136 C 
ATOM     27  O   LIG A   1      -9.008   3.686 120.514  0.00  0.00    -0.251 OA
ENDBRANCH  24  25
ENDBRANCH  18  24
ENDBRANCH  17  18
ENDBRANCH   3  17
TORSDOF 16
ENDMDL
MODEL 5
REMARK VINA RESULT:      -5.8      5.092      7.627
REMARK  Name = NuBBE_1795
REMARK  18 active torsions:
REMARK  status: ('A' for Active; 'I' for Inactive)
REMARK    1  A    between atoms: C_2  and  C_3
REMARK    2  A    between atoms: C_3  and  C_4
REMARK    3  A    between atoms: C_4  and  C_5
REMARK    4  A    between atoms: C_5  and  C_6
REMARK    5  A    between atoms: C_6  and  C_7
REMARK    6  A    between atoms: C_7  and  C_8
REMARK    7  A    between atoms: C_8  and  C_9
REMARK    8  A    between atoms: C_9  and  C_10
REMARK    9  A    between atoms: C_10  and  C_11
REMARK   10  A    between atoms: C_13  and  C_14
REMARK   11  A    between atoms: C_14  and  C_15
REMARK   12  A    between atoms: C_15  and  O_16
REMARK   13  A    between atoms: C_15  and  C_20
REMARK   14  A    between atoms: O_16  and  C_17
REMARK   15  A    between atoms: C_17  and  C_18
REMARK   16  A    between atoms: C_20  and  O_21
REMARK   17  A    between atoms: O_21  and  C_22
REMARK   18  A    between atoms: C_22  and  C_23
REMARK                            x       y       z     vdW  Elec       q    Type
REMARK                         _______ _______ _______ _____ _____    ______ ____
ROOT
ATOM      1  C   LIG A   1      -7.945  -2.535 127.573  0.00  0.00    +0.177 C 
ATOM      2  C   LIG A   1      -8.532  -3.077 128.856  0.00  0.00    +0.059 C 
ATOM      3  C   LIG A   1      -7.569  -2.599 129.926  0.00  0.00    +0.105 C 
ATOM      4  C   LIG A   1      -6.294  -2.427 129.136  0.00  0.00    +0.311 C 
ATOM      5  O   LIG A   1      -6.539  -2.484 127.795  0.00  0.00    -0.461 OA
ATOM      6  O   LIG A   1      -5.185  -2.277 129.622  0.00  0.00    -0.251 OA
ENDROOT
BRANCH   1   7
ATOM      7  C   LIG A   1      -8.299  -3.433 126.393  0.00  0.00    +0.045 C 
BRANCH   7   8
ATOM      8  C   LIG A   1      -9.291  -2.773 125.440  0.00  0.00    +0.003 C 
BRANCH   8   9
ATOM      9  C   LIG A   1      -9.273  -3.469 124.083  0.00  0.00    +0.000 C 
BRANCH   9  10
ATOM     10  C   LIG A   1      -8.853  -2.507 122.973  0.00  0.00    -0.000 C 
BRANCH  10  11
ATOM     11  C   LIG A   1      -8.469  -1.126 123.507  0.00  0.00    +0.000 C 
BRANCH  11  12
ATOM     12  C   LIG A   1      -7.018  -0.762 123.200  0.00  0.00    +0.001 C 
BRANCH  12  13
ATOM     13  C   LIG A   1      -6.189  -1.995 122.834  0.00  0.00    +0.013 C 
BRANCH  13  14
ATOM     14  C   LIG A   1      -5.368  -2.506 124.020  0.00  0.00    +0.088 C 
BRANCH  14  16
ATOM     15  C   LIG A   1      -4.345  -4.913 123.492  0.00  0.00    +0.004 C 
ATOM     16  C   LIG A   1      -4.787  -3.833 123.748  0.00  0.00    -0.106 C 
ENDBRANCH  14  16
ENDBRANCH  13  14
ENDBRANCH  12  13
ENDBRANCH  11  12
ENDBRANCH  10  11
ENDBRANCH   9  10
ENDBRANCH   8   9
ENDBRANCH   7   8
ENDBRANCH   1   7
BRANCH   3  17
ATOM     17  C   LIG A   1      -8.054  -1.318 130.605  0.00  0.00    +0.063 C 
BRANCH  17  18
ATOM     18  C   LIG A   1      -7.828  -1.257 132.126  0.00  0.00    +0.214 C 
BRANCH  18  19
ATOM     19  C   LIG A   1      -6.950  -0.072 132.581  0.00  0.00    +0.276 C 
BRANCH  19  20
ATOM     20  O   LIG A   1      -7.787   0.911 133.229  0.00  0.00    -0.461 OA
BRANCH  20  21
ATOM     21  C   LIG A   1      -8.168   1.953 132.442  0.00  0.00    +0.304 C 
ATOM     22  C   LIG A   1      -9.659   1.981 132.310  0.00  0.00    +0.136 C 
ATOM     23  O   LIG A   1      -7.415   2.698 131.834  0.00  0.00    -0.251 OA
ENDBRANCH  20  21
ENDBRANCH  19  20
ENDBRANCH  18  19
BRANCH  18  24
ATOM     24  O   LIG A   1      -7.154  -2.466 132.562  0.00  0.00    -0.458 OA
BRANCH  24  25
ATOM     25  C   LIG A   1      -7.397  -2.858 133.843  0.00  0.00    +0.304 C 
ATOM     26  C   LIG A   1      -6.121  -3.315 134.481  0.00  0.00    +0.136 C 
ATOM     27  O   LIG A   1      -8.464  -2.753 134.429  0.00  0.00    -0.251 OA
ENDBRANCH  24  25
ENDBRANCH  18  24
ENDBRANCH  17  18
ENDBRANCH   3  17
TORSDOF 16
ENDMDL
MODEL 6
REMARK VINA RESULT:      -5.8      1.710      2.655
REMARK  Name = NuBBE_1795
REMARK  18 active torsions:
REMARK  status: ('A' for Active; 'I' for Inactive)
REMARK    1  A    between atoms: C_2  and  C_3
REMARK    2  A    between atoms: C_3  and  C_4
REMARK    3  A    between atoms: C_4  and  C_5
REMARK    4  A    between atoms: C_5  and  C_6
REMARK    5  A    between atoms: C_6  and  C_7
REMARK    6  A    between atoms: C_7  and  C_8
REMARK    7  A    between atoms: C_8  and  C_9
REMARK    8  A    between atoms: C_9  and  C_10
REMARK    9  A    between atoms: C_10  and  C_11
REMARK   10  A    between atoms: C_13  and  C_14
REMARK   11  A    between atoms: C_14  and  C_15
REMARK   12  A    between atoms: C_15  and  O_16
REMARK   13  A    between atoms: C_15  and  C_20
REMARK   14  A    between atoms: O_16  and  C_17
REMARK   15  A    between atoms: C_17  and  C_18
REMARK   16  A    between atoms: C_20  and  O_21
REMARK   17  A    between atoms: O_21  and  C_22
REMARK   18  A    between atoms: C_22  and  C_23
REMARK                            x       y       z     vdW  Elec       q    Type
REMARK                         _______ _______ _______ _____ _____    ______ ____
ROOT
ATOM      1  C   LIG A   1      -8.355   1.112 126.960  0.00  0.00    +0.177 C 
ATOM      2  C   LIG A   1      -7.184   1.329 126.030  0.00  0.00    +0.059 C 
ATOM      3  C   LIG A   1      -7.828   1.473 124.665  0.00  0.00    +0.105 C 
ATOM      4  C   LIG A   1      -9.121   0.718 124.854  0.00  0.00    +0.311 C 
ATOM      5  O   LIG A   1      -9.344   0.454 126.174  0.00  0.00    -0.461 OA
ATOM      6  O   LIG A   1      -9.866   0.369 123.953  0.00  0.00    -0.251 OA
ENDROOT
BRANCH   1   7
ATOM      7  C   LIG A   1      -7.943   0.274 128.166  0.00  0.00    +0.045 C 
BRANCH   7   8
ATOM      8  C   LIG A   1      -7.179  -0.984 127.761  0.00  0.00    +0.003 C 
BRANCH   8   9
ATOM      9  C   LIG A   1      -8.015  -2.229 128.039  0.00  0.00    +0.000 C 
BRANCH   9  10
ATOM     10  C   LIG A   1      -8.531  -2.849 126.742  0.00  0.00    -0.000 C 
BRANCH  10  11
ATOM     11  C   LIG A   1      -7.521  -2.747 125.598  0.00  0.00    +0.000 C 
BRANCH  11  12
ATOM     12  C   LIG A   1      -8.108  -3.181 124.257  0.00  0.00    +0.001 C 
BRANCH  12  13
ATOM     13  C   LIG A   1      -7.646  -2.275 123.115  0.00  0.00    +0.013 C 
BRANCH  13  14
ATOM     14  C   LIG A   1      -6.215  -1.773 123.324  0.00  0.00    +0.088 C 
BRANCH  14  16
ATOM     15  C   LIG A   1      -4.487  -3.801 123.474  0.00  0.00    +0.004 C 
ATOM     16  C   LIG A   1      -5.252  -2.887 123.384  0.00  0.00    -0.106 C 
ENDBRANCH  14  16
ENDBRANCH  13  14
ENDBRANCH  12  13
ENDBRANCH  11  12
ENDBRANCH  10  11
ENDBRANCH   9  10
ENDBRANCH   8   9
ENDBRANCH   7   8
ENDBRANCH   1   7
BRANCH   3  17
ATOM     17  C   LIG A   1      -8.017   2.939 124.271  0.00  0.00    +0.063 C 
BRANCH  17  18
ATOM     18  C   LIG A   1      -6.966   3.496 123.296  0.00  0.00    +0.214 C 
BRANCH  18  19
ATOM     19  C   LIG A   1      -6.708   2.594 122.069  0.00  0.00    +0.276 C 
BRANCH  19  20
ATOM     20  O   LIG A   1      -5.580   3.114 121.333  0.00  0.00    -0.461 OA
BRANCH  20  21
ATOM     21  C   LIG A   1      -5.808   4.285 120.678  0.00  0.00    +0.304 C 
ATOM     22  C   LIG A   1      -6.931   4.119 119.703  0.00  0.00    +0.136 C 
ATOM     23  O   LIG A   1      -5.134   5.298 120.777  0.00  0.00    -0.251 OA
ENDBRANCH  20  21
ENDBRANCH  19  20
ENDBRANCH  18  19
BRANCH  18  24
ATOM     24  O   LIG A   1      -5.696   3.636 123.984  0.00  0.00    -0.458 OA
BRANCH  24  25
ATOM     25  C   LIG A   1      -5.633   4.613 124.931  0.00  0.00    +0.304 C 
ATOM     26  C   LIG A   1      -4.749   4.168 126.056  0.00  0.00    +0.136 C 
ATOM     27  O   LIG A   1      -6.126   5.727 124.838  0.00  0.00    -0.251 OA
ENDBRANCH  24  25
ENDBRANCH  18  24
ENDBRANCH  17  18
ENDBRANCH   3  17
TORSDOF 16
ENDMDL
MODEL 7
REMARK VINA RESULT:      -5.8      2.212      3.420
REMARK  Name = NuBBE_1795
REMARK  18 active torsions:
REMARK  status: ('A' for Active; 'I' for Inactive)
REMARK    1  A    between atoms: C_2  and  C_3
REMARK    2  A    between atoms: C_3  and  C_4
REMARK    3  A    between atoms: C_4  and  C_5
REMARK    4  A    between atoms: C_5  and  C_6
REMARK    5  A    between atoms: C_6  and  C_7
REMARK    6  A    between atoms: C_7  and  C_8
REMARK    7  A    between atoms: C_8  and  C_9
REMARK    8  A    between atoms: C_9  and  C_10
REMARK    9  A    between atoms: C_10  and  C_11
REMARK   10  A    between atoms: C_13  and  C_14
REMARK   11  A    between atoms: C_14  and  C_15
REMARK   12  A    between atoms: C_15  and  O_16
REMARK   13  A    between atoms: C_15  and  C_20
REMARK   14  A    between atoms: O_16  and  C_17
REMARK   15  A    between atoms: C_17  and  C_18
REMARK   16  A    between atoms: C_20  and  O_21
REMARK   17  A    between atoms: O_21  and  C_22
REMARK   18  A    between atoms: C_22  and  C_23
REMARK                            x       y       z     vdW  Elec       q    Type
REMARK                         _______ _______ _______ _____ _____    ______ ____
ROOT
ATOM      1  C   LIG A   1      -8.595   0.087 123.927  0.00  0.00    +0.177 C 
ATOM      2  C   LIG A   1      -7.349   0.697 123.330  0.00  0.00    +0.059 C 
ATOM      3  C   LIG A   1      -7.238   2.044 124.018  0.00  0.00    +0.105 C 
ATOM      4  C   LIG A   1      -8.674   2.312 124.400  0.00  0.00    +0.311 C 
ATOM      5  O   LIG A   1      -9.436   1.191 124.251  0.00  0.00    -0.461 OA
ATOM      6  O   LIG A   1      -9.108   3.389 124.774  0.00  0.00    -0.251 OA
ENDROOT
BRANCH   1   7
ATOM      7  C   LIG A   1      -9.264  -0.861 122.938  0.00  0.00    +0.045 C 
BRANCH   7   8
ATOM      8  C   LIG A   1      -8.593  -2.231 122.905  0.00  0.00    +0.003 C 
BRANCH   8   9
ATOM      9  C   LIG A   1      -9.340  -3.213 123.802  0.00  0.00    +0.000 C 
BRANCH   9  10
ATOM     10  C   LIG A   1      -8.391  -3.897 124.785  0.00  0.00    -0.000 C 
BRANCH  10  11
ATOM     11  C   LIG A   1      -8.722  -3.576 126.243  0.00  0.00    +0.000 C 
BRANCH  11  12
ATOM     12  C   LIG A   1      -8.350  -2.145 126.626  0.00  0.00    +0.001 C 
BRANCH  12  13
ATOM     13  C   LIG A   1      -7.101  -2.100 127.509  0.00  0.00    +0.013 C 
BRANCH  13  14
ATOM     14  C   LIG A   1      -5.997  -1.236 126.895  0.00  0.00    +0.088 C 
BRANCH  14  16
ATOM     15  C   LIG A   1      -5.269  -2.073 124.469  0.00  0.00    +0.004 C 
ATOM     16  C   LIG A   1      -5.605  -1.721 125.560  0.00  0.00    -0.106 C 
ENDBRANCH  14  16
ENDBRANCH  13  14
ENDBRANCH  12  13
ENDBRANCH  11  12
ENDBRANCH  10  11
ENDBRANCH   9  10
ENDBRANCH   8   9
ENDBRANCH   7   8
ENDBRANCH   1   7
BRANCH   3  17
ATOM     17  C   LIG A   1      -6.277   2.004 125.207  0.00  0.00    +0.063 C 
BRANCH  17  18
ATOM     18  C   LIG A   1      -6.301   3.249 126.110  0.00  0.00    +0.214 C 
BRANCH  18  19
ATOM     19  C   LIG A   1      -4.984   4.055 126.100  0.00  0.00    +0.276 C 
BRANCH  19  20
ATOM     20  O   LIG A   1      -4.551   4.264 127.462  0.00  0.00    -0.461 OA
BRANCH  20  21
ATOM     21  C   LIG A   1      -3.855   5.413 127.677  0.00  0.00    +0.304 C 
ATOM     22  C   LIG A   1      -2.488   5.097 128.199  0.00  0.00    +0.136 C 
ATOM     23  O   LIG A   1      -4.300   6.545 127.571  0.00  0.00    -0.251 OA
ENDBRANCH  20  21
ENDBRANCH  19  20
ENDBRANCH  18  19
BRANCH  18  24
ATOM     24  O   LIG A   1      -6.531   2.844 127.484  0.00  0.00    -0.458 OA
BRANCH  24  25
ATOM     25  C   LIG A   1      -7.816   2.926 127.926  0.00  0.00    +0.304 C 
ATOM     26  C   LIG A   1      -8.368   1.548 128.132  0.00  0.00    +0.136 C 
ATOM     27  O   LIG A   1      -8.403   3.956 128.220  0.00  0.00    -0.251 OA
ENDBRANCH  24  25
ENDBRANCH  18  24
ENDBRANCH  17  18
ENDBRANCH   3  17
TORSDOF 16
ENDMDL
MODEL 8
REMARK VINA RESULT:      -5.7      1.516      2.260
REMARK  Name = NuBBE_1795
REMARK  18 active torsions:
REMARK  status: ('A' for Active; 'I' for Inactive)
REMARK    1  A    between atoms: C_2  and  C_3
REMARK    2  A    between atoms: C_3  and  C_4
REMARK    3  A    between atoms: C_4  and  C_5
REMARK    4  A    between atoms: C_5  and  C_6
REMARK    5  A    between atoms: C_6  and  C_7
REMARK    6  A    between atoms: C_7  and  C_8
REMARK    7  A    between atoms: C_8  and  C_9
REMARK    8  A    between atoms: C_9  and  C_10
REMARK    9  A    between atoms: C_10  and  C_11
REMARK   10  A    between atoms: C_13  and  C_14
REMARK   11  A    between atoms: C_14  and  C_15
REMARK   12  A    between atoms: C_15  and  O_16
REMARK   13  A    between atoms: C_15  and  C_20
REMARK   14  A    between atoms: O_16  and  C_17
REMARK   15  A    between atoms: C_17  and  C_18
REMARK   16  A    between atoms: C_20  and  O_21
REMARK   17  A    between atoms: O_21  and  C_22
REMARK   18  A    between atoms: C_22  and  C_23
REMARK                            x       y       z     vdW  Elec       q    Type
REMARK                         _______ _______ _______ _____ _____    ______ ____
ROOT
ATOM      1  C   LIG A   1      -8.494  -1.621 124.196  0.00  0.00    +0.177 C 
ATOM      2  C   LIG A   1      -7.500  -0.607 123.681  0.00  0.00    +0.059 C 
ATOM      3  C   LIG A   1      -8.362   0.570 123.268  0.00  0.00    +0.105 C 
ATOM      4  C   LIG A   1      -9.685  -0.102 122.989  0.00  0.00    +0.311 C 
ATOM      5  O   LIG A   1      -9.690  -1.384 123.458  0.00  0.00    -0.461 OA
ATOM      6  O   LIG A   1     -10.623   0.415 122.406  0.00  0.00    -0.251 OA
ENDROOT
BRANCH   1   7
ATOM      7  C   LIG A   1      -7.977  -3.041 123.991  0.00  0.00    +0.045 C 
BRANCH   7   8
ATOM      8  C   LIG A   1      -8.218  -3.926 125.211  0.00  0.00    +0.003 C 
BRANCH   8   9
ATOM      9  C   LIG A   1      -9.115  -3.214 126.218  0.00  0.00    +0.000 C 
BRANCH   9  10
ATOM     10  C   LIG A   1      -8.623  -3.433 127.648  0.00  0.00    -0.000 C 
BRANCH  10  11
ATOM     11  C   LIG A   1      -7.305  -2.711 127.934  0.00  0.00    +0.000 C 
BRANCH  11  12
ATOM     12  C   LIG A   1      -7.516  -1.337 128.565  0.00  0.00    +0.001 C 
BRANCH  12  13
ATOM     13  C   LIG A   1      -7.379  -0.213 127.537  0.00  0.00    +0.013 C 
BRANCH  13  14
ATOM     14  C   LIG A   1      -6.004  -0.215 126.865  0.00  0.00    +0.088 C 
BRANCH  14  16
ATOM     15  C   LIG A   1      -4.781   2.132 127.204  0.00  0.00    +0.004 C 
ATOM     16  C   LIG A   1      -5.314   1.077 127.033  0.00  0.00    -0.106 C 
ENDBRANCH  14  16
ENDBRANCH  13  14
ENDBRANCH  12  13
ENDBRANCH  11  12
ENDBRANCH  10  11
ENDBRANCH   9  10
ENDBRANCH   8   9
ENDBRANCH   7   8
ENDBRANCH   1   7
BRANCH   3  17
ATOM     17  C   LIG A   1      -8.429   1.643 124.355  0.00  0.00    +0.063 C 
BRANCH  17  18
ATOM     18  C   LIG A   1      -7.975   3.046 123.919  0.00  0.00    +0.214 C 
BRANCH  18  19
ATOM     19  C   LIG A   1      -7.519   3.128 122.446  0.00  0.00    +0.276 C 
BRANCH  19  20
ATOM     20  O   LIG A   1      -6.076   3.189 122.404  0.00  0.00    -0.461 OA
BRANCH  20  21
ATOM     21  C   LIG A   1      -5.564   4.218 121.676  0.00  0.00    +0.304 C 
ATOM     22  C   LIG A   1      -6.014   4.116 120.252  0.00  0.00    +0.136 C 
ATOM     23  O   LIG A   1      -4.763   5.046 122.081  0.00  0.00    -0.251 OA
ENDBRANCH  20  21
ENDBRANCH  19  20
ENDBRANCH  18  19
BRANCH  18  24
ATOM     24  O   LIG A   1      -6.844   3.460 124.728  0.00  0.00    -0.458 OA
BRANCH  24  25
ATOM     25  C   LIG A   1      -6.931   4.696 125.293  0.00  0.00    +0.304 C 
ATOM     26  C   LIG A   1      -8.309   4.902 125.846  0.00  0.00    +0.136 C 
ATOM     27  O   LIG A   1      -6.007   5.482 125.433  0.00  0.00    -0.251 OA
ENDBRANCH  24  25
ENDBRANCH  18  24
ENDBRANCH  17  18
ENDBRANCH   3  17
TORSDOF 16
ENDMDL
MODEL 9
REMARK VINA RESULT:      -5.7      3.704      6.532
REMARK  Name = NuBBE_1795
REMARK  18 active torsions:
REMARK  status: ('A' for Active; 'I' for Inactive)
REMARK    1  A    between atoms: C_2  and  C_3
REMARK    2  A    between atoms: C_3  and  C_4
REMARK    3  A    between atoms: C_4  and  C_5
REMARK    4  A    between atoms: C_5  and  C_6
REMARK    5  A    between atoms: C_6  and  C_7
REMARK    6  A    between atoms: C_7  and  C_8
REMARK    7  A    between atoms: C_8  and  C_9
REMARK    8  A    between atoms: C_9  and  C_10
REMARK    9  A    between atoms: C_10  and  C_11
REMARK   10  A    between atoms: C_13  and  C_14
REMARK   11  A    between atoms: C_14  and  C_15
REMARK   12  A    between atoms: C_15  and  O_16
REMARK   13  A    between atoms: C_15  and  C_20
REMARK   14  A    between atoms: O_16  and  C_17
REMARK   15  A    between atoms: C_17  and  C_18
REMARK   16  A    between atoms: C_20  and  O_21
REMARK   17  A    between atoms: O_21  and  C_22
REMARK   18  A    between atoms: C_22  and  C_23
REMARK                            x       y       z     vdW  Elec       q    Type
REMARK                         _______ _______ _______ _____ _____    ______ ____
ROOT
ATOM      1  C   LIG A   1      -8.296   1.302 128.493  0.00  0.00    +0.177 C 
ATOM      2  C   LIG A   1      -8.075   1.852 129.883  0.00  0.00    +0.059 C 
ATOM      3  C   LIG A   1      -8.482   3.307 129.766  0.00  0.00    +0.105 C 
ATOM      4  C   LIG A   1      -8.268   3.569 128.295  0.00  0.00    +0.311 C 
ATOM      5  O   LIG A   1      -8.079   2.402 127.614  0.00  0.00    -0.461 OA
ATOM      6  O   LIG A   1      -8.247   4.673 127.777  0.00  0.00    -0.251 OA
ENDROOT
BRANCH   1   7
ATOM      7  C   LIG A   1      -7.338   0.151 128.205  0.00  0.00    +0.045 C 
BRANCH   7   8
ATOM      8  C   LIG A   1      -7.901  -0.828 127.178  0.00  0.00    +0.003 C 
BRANCH   8   9
ATOM      9  C   LIG A   1      -7.445  -2.249 127.490  0.00  0.00    +0.000 C 
BRANCH   9  10
ATOM     10  C   LIG A   1      -8.457  -3.277 126.987  0.00  0.00    -0.000 C 
BRANCH  10  11
ATOM     11  C   LIG A   1      -9.093  -2.874 125.656  0.00  0.00    +0.000 C 
BRANCH  11  12
ATOM     12  C   LIG A   1      -8.475  -3.606 124.466  0.00  0.00    +0.001 C 
BRANCH  12  13
ATOM     13  C   LIG A   1      -7.948  -2.630 123.412  0.00  0.00    +0.013 C 
BRANCH  13  14
ATOM     14  C   LIG A   1      -6.579  -2.062 123.790  0.00  0.00    +0.088 C 
BRANCH  14  16
ATOM     15  C   LIG A   1      -4.713  -3.969 123.798  0.00  0.00    +0.004 C 
ATOM     16  C   LIG A   1      -5.535  -3.103 123.777  0.00  0.00    -0.106 C 
ENDBRANCH  14  16
ENDBRANCH  13  14
ENDBRANCH  12  13
ENDBRANCH  11  12
ENDBRANCH  10  11
ENDBRANCH   9  10
ENDBRANCH   8   9
ENDBRANCH   7   8
ENDBRANCH   1   7
BRANCH   3  17
ATOM     17  C   LIG A   1      -9.919   3.542 130.236  0.00  0.00    +0.063 C 
BRANCH  17  18
ATOM     18  C   LIG A   1     -10.332   5.017 130.368  0.00  0.00    +0.214 C 
BRANCH  18  19
ATOM     19  C   LIG A   1     -10.295   5.551 131.816  0.00  0.00    +0.276 C 
BRANCH  19  20
ATOM     20  O   LIG A   1      -9.307   6.601 131.904  0.00  0.00    -0.461 OA
BRANCH  20  21
ATOM     21  C   LIG A   1      -8.028   6.176 132.091  0.00  0.00    +0.304 C 
ATOM     22  C   LIG A   1      -7.118   6.829 131.099  0.00  0.00    +0.136 C 
ATOM     23  O   LIG A   1      -7.675   5.307 132.873  0.00  0.00    -0.251 OA
ENDBRANCH  20  21
ENDBRANCH  19  20
ENDBRANCH  18  19
BRANCH  18  24
ATOM     24  O   LIG A   1     -11.695   5.180 129.898  0.00  0.00    -0.458 OA
BRANCH  24  25
ATOM     25  C   LIG A   1     -11.952   6.311 129.184  0.00  0.00    +0.304 C 
ATOM     26  C   LIG A   1     -12.981   7.135 129.898  0.00  0.00    +0.136 C 
ATOM     27  O   LIG A   1     -11.361   6.666 128.176  0.00  0.00    -0.251 OA
ENDBRANCH  24  25
ENDBRANCH  18  24
ENDBRANCH  17  18
ENDBRANCH   3  17
TORSDOF 16
ENDMDL
