MODEL 1
REMARK VINA RESULT:      -5.3      0.000      0.000
REMARK  Name = NuBBE_1152
REMARK  11 active torsions:
REMARK  status: ('A' for Active; 'I' for Inactive)
REMARK    1  A    between atoms: C_2  and  C_3
REMARK    2  A    between atoms: C_2  and  O_17
REMARK    3  A    between atoms: C_3  and  C_4
REMARK    4  A    between atoms: C_4  and  C_5
REMARK    5  A    between atoms: C_5  and  C_6
REMARK    6  A    between atoms: C_6  and  C_7
REMARK    7  A    between atoms: C_7  and  C_8
REMARK    8  A    between atoms: C_8  and  C_9
REMARK    9  A    between atoms: C_9  and  C_10
REMARK   10  A    between atoms: C_10  and  C_11
REMARK   11  A    between atoms: O_17  and  C_18
REMARK                            x       y       z     vdW  Elec       q    Type
REMARK                         _______ _______ _______ _____ _____    ______ ____
ROOT
ATOM      1  C   LIG A   1      -7.899  -2.079 127.732  0.00  0.00    +0.000 C 
ENDROOT
BRANCH   1   2
ATOM      2  C   LIG A   1      -6.436  -2.008 127.283  0.00  0.00    +0.000 C 
BRANCH   2   3
ATOM      3  C   LIG A   1      -6.178  -0.796 126.378  0.00  0.00    +0.000 C 
BRANCH   3   4
ATOM      4  C   LIG A   1      -7.329   0.206 126.457  0.00  0.00    +0.011 C 
BRANCH   4   5
ATOM      5  C   LIG A   1      -7.597   0.913 125.124  0.00  0.00    +0.120 C 
BRANCH   5   7
ATOM      6  O   LIG A   1      -9.882   0.327 124.581  0.00  0.00    -0.251 OA
ATOM      7  C   LIG A   1      -9.071   1.189 124.891  0.00  0.00    +0.307 C 
BRANCH   7   8
ATOM      8  O   LIG A   1      -9.341   2.521 125.011  0.00  0.00    -0.468 OA
ATOM      9  C   LIG A   1      -8.261   3.390 124.682  0.00  0.00    +0.280 C 
ENDBRANCH   7   8
ENDBRANCH   5   7
ENDBRANCH   4   5
ENDBRANCH   3   4
ENDBRANCH   2   3
ENDBRANCH   1   2
BRANCH   1  10
ATOM     10  C   LIG A   1      -8.631  -3.273 127.110  0.00  0.00    +0.000 C 
BRANCH  10  11
ATOM     11  C   LIG A   1      -9.447  -2.850 125.885  0.00  0.00    +0.005 C 
BRANCH  11  12
ATOM     12  C   LIG A   1      -9.068  -3.666 124.641  0.00  0.00    +0.035 C 
BRANCH  12  13
ATOM     13  C   LIG A   1      -7.750  -3.241 124.037  0.00  0.00    -0.047 A 
ATOM     14  C   LIG A   1      -6.566  -3.926 124.347  0.00  0.00    +0.003 A 
ATOM     15  C   LIG A   1      -5.348  -3.528 123.789  0.00  0.00    +0.000 A 
ATOM     16  C   LIG A   1      -5.299  -2.439 122.922  0.00  0.00    +0.000 A 
ATOM     17  C   LIG A   1      -6.465  -1.743 122.615  0.00  0.00    +0.000 A 
ATOM     18  C   LIG A   1      -7.682  -2.139 123.172  0.00  0.00    +0.003 A 
ENDBRANCH  12  13
ENDBRANCH  11  12
ENDBRANCH  10  11
ENDBRANCH   1  10
TORSDOF 10
ENDMDL
MODEL 2
REMARK VINA RESULT:      -5.1      1.564      3.729
REMARK  Name = NuBBE_1152
REMARK  11 active torsions:
REMARK  status: ('A' for Active; 'I' for Inactive)
REMARK    1  A    between atoms: C_2  and  C_3
REMARK    2  A    between atoms: C_2  and  O_17
REMARK    3  A    between atoms: C_3  and  C_4
REMARK    4  A    between atoms: C_4  and  C_5
REMARK    5  A    between atoms: C_5  and  C_6
REMARK    6  A    between atoms: C_6  and  C_7
REMARK    7  A    between atoms: C_7  and  C_8
REMARK    8  A    between atoms: C_8  and  C_9
REMARK    9  A    between atoms: C_9  and  C_10
REMARK   10  A    between atoms: C_10  and  C_11
REMARK   11  A    between atoms: O_17  and  C_18
REMARK                            x       y       z     vdW  Elec       q    Type
REMARK                         _______ _______ _______ _____ _____    ______ ____
ROOT
ATOM      1  C   LIG A   1      -9.066  -1.856 123.099  0.00  0.00    +0.000 C 
ENDROOT
BRANCH   1   2
ATOM      2  C   LIG A   1      -7.592  -1.708 122.710  0.00  0.00    +0.000 C 
BRANCH   2   3
ATOM      3  C   LIG A   1      -6.944  -0.493 123.387  0.00  0.00    +0.000 C 
BRANCH   3   4
ATOM      4  C   LIG A   1      -7.828   0.049 124.510  0.00  0.00    +0.011 C 
BRANCH   4   5
ATOM      5  C   LIG A   1      -7.856   1.580 124.562  0.00  0.00    +0.120 C 
BRANCH   5   7
ATOM      6  O   LIG A   1     -10.174   1.655 123.867  0.00  0.00    -0.251 OA
ATOM      7  C   LIG A   1      -9.064   2.170 123.857  0.00  0.00    +0.307 C 
BRANCH   7   8
ATOM      8  O   LIG A   1      -8.723   3.300 123.173  0.00  0.00    -0.468 OA
ATOM      9  C   LIG A   1      -8.652   3.152 121.758  0.00  0.00    +0.280 C 
ENDBRANCH   7   8
ENDBRANCH   5   7
ENDBRANCH   4   5
ENDBRANCH   3   4
ENDBRANCH   2   3
ENDBRANCH   1   2
BRANCH   1  10
ATOM     10  C   LIG A   1      -9.421  -3.304 123.453  0.00  0.00    +0.000 C 
BRANCH  10  11
ATOM     11  C   LIG A   1      -8.713  -3.754 124.735  0.00  0.00    +0.005 C 
BRANCH  11  12
ATOM     12  C   LIG A   1      -9.281  -3.049 125.974  0.00  0.00    +0.035 C 
BRANCH  12  13
ATOM     13  C   LIG A   1      -8.299  -2.992 127.121  0.00  0.00    -0.047 A 
ATOM     14  C   LIG A   1      -8.628  -3.532 128.373  0.00  0.00    +0.003 A 
ATOM     15  C   LIG A   1      -7.719  -3.474 129.433  0.00  0.00    +0.000 A 
ATOM     16  C   LIG A   1      -6.476  -2.870 129.255  0.00  0.00    +0.000 A 
ATOM     17  C   LIG A   1      -6.141  -2.320 128.021  0.00  0.00    +0.000 A 
ATOM     18  C   LIG A   1      -7.050  -2.377 126.961  0.00  0.00    +0.003 A 
ENDBRANCH  12  13
ENDBRANCH  11  12
ENDBRANCH  10  11
ENDBRANCH   1  10
TORSDOF 10
ENDMDL
MODEL 3
REMARK VINA RESULT:      -4.9      1.468      2.065
REMARK  Name = NuBBE_1152
REMARK  11 active torsions:
REMARK  status: ('A' for Active; 'I' for Inactive)
REMARK    1  A    between atoms: C_2  and  C_3
REMARK    2  A    between atoms: C_2  and  O_17
REMARK    3  A    between atoms: C_3  and  C_4
REMARK    4  A    between atoms: C_4  and  C_5
REMARK    5  A    between atoms: C_5  and  C_6
REMARK    6  A    between atoms: C_6  and  C_7
REMARK    7  A    between atoms: C_7  and  C_8
REMARK    8  A    between atoms: C_8  and  C_9
REMARK    9  A    between atoms: C_9  and  C_10
REMARK   10  A    between atoms: C_10  and  C_11
REMARK   11  A    between atoms: O_17  and  C_18
REMARK                            x       y       z     vdW  Elec       q    Type
REMARK                         _______ _______ _______ _____ _____    ______ ____
ROOT
ATOM      1  C   LIG A   1      -7.362  -1.211 127.299  0.00  0.00    +0.000 C 
ENDROOT
BRANCH   1   2
ATOM      2  C   LIG A   1      -5.880  -1.163 126.913  0.00  0.00    +0.000 C 
BRANCH   2   3
ATOM      3  C   LIG A   1      -5.624  -0.181 125.762  0.00  0.00    +0.000 C 
BRANCH   3   4
ATOM      4  C   LIG A   1      -6.827   0.736 125.542  0.00  0.00    +0.011 C 
BRANCH   4   5
ATOM      5  C   LIG A   1      -6.897   1.296 124.118  0.00  0.00    +0.120 C 
BRANCH   5   7
ATOM      6  O   LIG A   1      -8.178   3.350 124.165  0.00  0.00    -0.251 OA
ATOM      7  C   LIG A   1      -7.086   2.802 124.087  0.00  0.00    +0.307 C 
BRANCH   7   8
ATOM      8  O   LIG A   1      -5.894   3.438 123.898  0.00  0.00    -0.468 OA
ATOM      9  C   LIG A   1      -5.741   4.075 122.633  0.00  0.00    +0.280 C 
ENDBRANCH   7   8
ENDBRANCH   5   7
ENDBRANCH   4   5
ENDBRANCH   3   4
ENDBRANCH   2   3
ENDBRANCH   1   2
BRANCH   1  10
ATOM     10  C   LIG A   1      -7.882  -2.650 127.393  0.00  0.00    +0.000 C 
BRANCH  10  11
ATOM     11  C   LIG A   1      -8.936  -2.932 126.318  0.00  0.00    +0.005 C 
BRANCH  11  12
ATOM     12  C   LIG A   1      -8.421  -3.920 125.263  0.00  0.00    +0.035 C 
BRANCH  12  13
ATOM     13  C   LIG A   1      -7.474  -3.283 124.272  0.00  0.00    -0.047 A 
ATOM     14  C   LIG A   1      -7.942  -2.368 123.319  0.00  0.00    +0.003 A 
ATOM     15  C   LIG A   1      -7.065  -1.784 122.402  0.00  0.00    +0.000 A 
ATOM     16  C   LIG A   1      -5.711  -2.114 122.423  0.00  0.00    +0.000 A 
ATOM     17  C   LIG A   1      -5.234  -3.030 123.356  0.00  0.00    +0.000 A 
ATOM     18  C   LIG A   1      -6.111  -3.614 124.273  0.00  0.00    +0.003 A 
ENDBRANCH  12  13
ENDBRANCH  11  12
ENDBRANCH  10  11
ENDBRANCH   1  10
TORSDOF 10
ENDMDL
MODEL 4
REMARK VINA RESULT:      -4.9      2.209      2.754
REMARK  Name = NuBBE_1152
REMARK  11 active torsions:
REMARK  status: ('A' for Active; 'I' for Inactive)
REMARK    1  A    between atoms: C_2  and  C_3
REMARK    2  A    between atoms: C_2  and  O_17
REMARK    3  A    between atoms: C_3  and  C_4
REMARK    4  A    between atoms: C_4  and  C_5
REMARK    5  A    between atoms: C_5  and  C_6
REMARK    6  A    between atoms: C_6  and  C_7
REMARK    7  A    between atoms: C_7  and  C_8
REMARK    8  A    between atoms: C_8  and  C_9
REMARK    9  A    between atoms: C_9  and  C_10
REMARK   10  A    between atoms: C_10  and  C_11
REMARK   11  A    between atoms: O_17  and  C_18
REMARK                            x       y       z     vdW  Elec       q    Type
REMARK                         _______ _______ _______ _____ _____    ______ ____
ROOT
ATOM      1  C   LIG A   1      -7.733  -1.071 126.746  0.00  0.00    +0.000 C 
ENDROOT
BRANCH   1   2
ATOM      2  C   LIG A   1      -6.796  -0.135 125.977  0.00  0.00    +0.000 C 
BRANCH   2   3
ATOM      3  C   LIG A   1      -7.571   0.963 125.237  0.00  0.00    +0.000 C 
BRANCH   3   4
ATOM      4  C   LIG A   1      -6.903   1.308 123.906  0.00  0.00    +0.011 C 
BRANCH   4   5
ATOM      5  C   LIG A   1      -7.380   2.643 123.327  0.00  0.00    +0.120 C 
BRANCH   5   7
ATOM      6  O   LIG A   1      -5.690   4.376 123.339  0.00  0.00    -0.251 OA
ATOM      7  C   LIG A   1      -6.250   3.468 122.739  0.00  0.00    +0.307 C 
BRANCH   7   8
ATOM      8  O   LIG A   1      -5.999   3.100 121.449  0.00  0.00    -0.468 OA
ATOM      9  C   LIG A   1      -5.550   4.149 120.597  0.00  0.00    +0.280 C 
ENDBRANCH   7   8
ENDBRANCH   5   7
ENDBRANCH   4   5
ENDBRANCH   3   4
ENDBRANCH   2   3
ENDBRANCH   1   2
BRANCH   1  10
ATOM     10  C   LIG A   1      -9.075  -1.253 126.029  0.00  0.00    +0.000 C 
BRANCH  10  11
ATOM     11  C   LIG A   1      -9.397  -2.735 125.817  0.00  0.00    +0.005 C 
BRANCH  11  12
ATOM     12  C   LIG A   1      -9.224  -3.149 124.350  0.00  0.00    +0.035 C 
BRANCH  12  13
ATOM     13  C   LIG A   1      -7.801  -3.007 123.861  0.00  0.00    -0.047 A 
ATOM     14  C   LIG A   1      -6.760  -3.727 124.465  0.00  0.00    +0.003 A 
ATOM     15  C   LIG A   1      -5.445  -3.589 124.013  0.00  0.00    +0.000 A 
ATOM     16  C   LIG A   1      -5.155  -2.726 122.959  0.00  0.00    +0.000 A 
ATOM     17  C   LIG A   1      -6.177  -1.996 122.358  0.00  0.00    +0.000 A 
ATOM     18  C   LIG A   1      -7.492  -2.133 122.809  0.00  0.00    +0.003 A 
ENDBRANCH  12  13
ENDBRANCH  11  12
ENDBRANCH  10  11
ENDBRANCH   1  10
TORSDOF 10
ENDMDL
MODEL 5
REMARK VINA RESULT:      -4.9      3.536      5.006
REMARK  Name = NuBBE_1152
REMARK  11 active torsions:
REMARK  status: ('A' for Active; 'I' for Inactive)
REMARK    1  A    between atoms: C_2  and  C_3
REMARK    2  A    between atoms: C_2  and  O_17
REMARK    3  A    between atoms: C_3  and  C_4
REMARK    4  A    between atoms: C_4  and  C_5
REMARK    5  A    between atoms: C_5  and  C_6
REMARK    6  A    between atoms: C_6  and  C_7
REMARK    7  A    between atoms: C_7  and  C_8
REMARK    8  A    between atoms: C_8  and  C_9
REMARK    9  A    between atoms: C_9  and  C_10
REMARK   10  A    between atoms: C_10  and  C_11
REMARK   11  A    between atoms: O_17  and  C_18
REMARK                            x       y       z     vdW  Elec       q    Type
REMARK                         _______ _______ _______ _____ _____    ______ ____
ROOT
ATOM      1  C   LIG A   1      -7.723  -2.070 127.344  0.00  0.00    +0.000 C 
ENDROOT
BRANCH   1   2
ATOM      2  C   LIG A   1      -8.035  -3.354 128.119  0.00  0.00    +0.000 C 
BRANCH   2   3
ATOM      3  C   LIG A   1      -8.437  -3.058 129.570  0.00  0.00    +0.000 C 
BRANCH   3   4
ATOM      4  C   LIG A   1      -7.228  -3.127 130.503  0.00  0.00    +0.011 C 
BRANCH   4   5
ATOM      5  C   LIG A   1      -6.222  -4.209 130.097  0.00  0.00    +0.120 C 
BRANCH   5   7
ATOM      6  O   LIG A   1      -4.420  -3.148 128.878  0.00  0.00    -0.251 OA
ATOM      7  C   LIG A   1      -4.817  -3.667 129.913  0.00  0.00    +0.307 C 
BRANCH   7   8
ATOM      8  O   LIG A   1      -4.058  -3.896 131.023  0.00  0.00    -0.468 OA
ATOM      9  C   LIG A   1      -3.721  -2.735 131.776  0.00  0.00    +0.280 C 
ENDBRANCH   7   8
ENDBRANCH   5   7
ENDBRANCH   4   5
ENDBRANCH   3   4
ENDBRANCH   2   3
ENDBRANCH   1   2
BRANCH   1  10
ATOM     10  C   LIG A   1      -8.804  -1.752 126.305  0.00  0.00    +0.000 C 
BRANCH  10  11
ATOM     11  C   LIG A   1      -9.481  -3.028 125.797  0.00  0.00    +0.005 C 
BRANCH  11  12
ATOM     12  C   LIG A   1      -9.289  -3.209 124.285  0.00  0.00    +0.035 C 
BRANCH  12  13
ATOM     13  C   LIG A   1      -7.851  -3.050 123.850  0.00  0.00    -0.047 A 
ATOM     14  C   LIG A   1      -6.845  -3.863 124.390  0.00  0.00    +0.003 A 
ATOM     15  C   LIG A   1      -5.515  -3.710 123.989  0.00  0.00    +0.000 A 
ATOM     16  C   LIG A   1      -5.176  -2.738 123.050  0.00  0.00    +0.000 A 
ATOM     17  C   LIG A   1      -6.164  -1.915 122.515  0.00  0.00    +0.000 A 
ATOM     18  C   LIG A   1      -7.493  -2.068 122.916  0.00  0.00    +0.003 A 
ENDBRANCH  12  13
ENDBRANCH  11  12
ENDBRANCH  10  11
ENDBRANCH   1  10
TORSDOF 10
ENDMDL
MODEL 6
REMARK VINA RESULT:      -4.9      2.880      5.493
REMARK  Name = NuBBE_1152
REMARK  11 active torsions:
REMARK  status: ('A' for Active; 'I' for Inactive)
REMARK    1  A    between atoms: C_2  and  C_3
REMARK    2  A    between atoms: C_2  and  O_17
REMARK    3  A    between atoms: C_3  and  C_4
REMARK    4  A    between atoms: C_4  and  C_5
REMARK    5  A    between atoms: C_5  and  C_6
REMARK    6  A    between atoms: C_6  and  C_7
REMARK    7  A    between atoms: C_7  and  C_8
REMARK    8  A    between atoms: C_8  and  C_9
REMARK    9  A    between atoms: C_9  and  C_10
REMARK   10  A    between atoms: C_10  and  C_11
REMARK   11  A    between atoms: O_17  and  C_18
REMARK                            x       y       z     vdW  Elec       q    Type
REMARK                         _______ _______ _______ _____ _____    ______ ____
ROOT
ATOM      1  C   LIG A   1      -8.228  -3.197 125.884  0.00  0.00    +0.000 C 
ENDROOT
BRANCH   1   2
ATOM      2  C   LIG A   1      -8.533  -3.847 124.531  0.00  0.00    +0.000 C 
BRANCH   2   3
ATOM      3  C   LIG A   1      -8.730  -2.798 123.428  0.00  0.00    +0.000 C 
BRANCH   3   4
ATOM      4  C   LIG A   1      -7.670  -1.699 123.517  0.00  0.00    +0.011 C 
BRANCH   4   5
ATOM      5  C   LIG A   1      -6.348  -2.090 122.849  0.00  0.00    +0.120 C 
BRANCH   5   7
ATOM      6  O   LIG A   1      -5.163  -1.791 124.938  0.00  0.00    -0.251 OA
ATOM      7  C   LIG A   1      -5.236  -2.345 123.849  0.00  0.00    +0.307 C 
BRANCH   7   8
ATOM      8  O   LIG A   1      -4.315  -3.215 123.342  0.00  0.00    -0.468 OA
ATOM      9  C   LIG A   1      -4.497  -4.576 123.719  0.00  0.00    +0.280 C 
ENDBRANCH   7   8
ENDBRANCH   5   7
ENDBRANCH   4   5
ENDBRANCH   3   4
ENDBRANCH   2   3
ENDBRANCH   1   2
BRANCH   1  10
ATOM     10  C   LIG A   1      -9.251  -3.596 126.954  0.00  0.00    +0.000 C 
BRANCH  10  11
ATOM     11  C   LIG A   1      -8.650  -3.510 128.360  0.00  0.00    +0.005 C 
BRANCH  11  12
ATOM     12  C   LIG A   1      -7.564  -2.429 128.447  0.00  0.00    +0.035 C 
BRANCH  12  13
ATOM     13  C   LIG A   1      -6.281  -2.930 129.069  0.00  0.00    -0.047 A 
ATOM     14  C   LIG A   1      -6.307  -3.903 130.078  0.00  0.00    +0.003 A 
ATOM     15  C   LIG A   1      -5.120  -4.362 130.654  0.00  0.00    +0.000 A 
ATOM     16  C   LIG A   1      -3.895  -3.848 130.233  0.00  0.00    +0.000 A 
ATOM     17  C   LIG A   1      -3.856  -2.873 129.240  0.00  0.00    +0.000 A 
ATOM     18  C   LIG A   1      -5.042  -2.414 128.664  0.00  0.00    +0.003 A 
ENDBRANCH  12  13
ENDBRANCH  11  12
ENDBRANCH  10  11
ENDBRANCH   1  10
TORSDOF 10
ENDMDL
MODEL 7
REMARK VINA RESULT:      -4.9      9.572     10.699
REMARK  Name = NuBBE_1152
REMARK  11 active torsions:
REMARK  status: ('A' for Active; 'I' for Inactive)
REMARK    1  A    between atoms: C_2  and  C_3
REMARK    2  A    between atoms: C_2  and  O_17
REMARK    3  A    between atoms: C_3  and  C_4
REMARK    4  A    between atoms: C_4  and  C_5
REMARK    5  A    between atoms: C_5  and  C_6
REMARK    6  A    between atoms: C_6  and  C_7
REMARK    7  A    between atoms: C_7  and  C_8
REMARK    8  A    between atoms: C_8  and  C_9
REMARK    9  A    between atoms: C_9  and  C_10
REMARK   10  A    between atoms: C_10  and  C_11
REMARK   11  A    between atoms: O_17  and  C_18
REMARK                            x       y       z     vdW  Elec       q    Type
REMARK                         _______ _______ _______ _____ _____    ______ ____
ROOT
ATOM      1  C   LIG A   1     -10.219   5.946 132.245  0.00  0.00    +0.000 C 
ENDROOT
BRANCH   1   2
ATOM      2  C   LIG A   1      -9.157   6.582 131.343  0.00  0.00    +0.000 C 
BRANCH   2   3
ATOM      3  C   LIG A   1      -7.739   6.344 131.880  0.00  0.00    +0.000 C 
BRANCH   3   4
ATOM      4  C   LIG A   1      -6.698   7.070 131.028  0.00  0.00    +0.011 C 
BRANCH   4   5
ATOM      5  C   LIG A   1      -5.266   6.607 131.313  0.00  0.00    +0.120 C 
BRANCH   5   7
ATOM      6  O   LIG A   1      -4.080   4.826 130.180  0.00  0.00    -0.251 OA
ATOM      7  C   LIG A   1      -4.621   5.922 130.122  0.00  0.00    +0.307 C 
BRANCH   7   8
ATOM      8  O   LIG A   1      -4.674   6.720 129.015  0.00  0.00    -0.468 OA
ATOM      9  C   LIG A   1      -3.448   7.358 128.671  0.00  0.00    +0.280 C 
ENDBRANCH   7   8
ENDBRANCH   5   7
ENDBRANCH   4   5
ENDBRANCH   3   4
ENDBRANCH   2   3
ENDBRANCH   1   2
BRANCH   1  10
ATOM     10  C   LIG A   1     -11.588   5.884 131.559  0.00  0.00    +0.000 C 
BRANCH  10  11
ATOM     11  C   LIG A   1     -12.242   7.267 131.493  0.00  0.00    +0.005 C 
BRANCH  11  12
ATOM     12  C   LIG A   1     -13.203   7.385 130.302  0.00  0.00    +0.035 C 
BRANCH  12  13
ATOM     13  C   LIG A   1     -12.486   7.531 128.979  0.00  0.00    -0.047 A 
ATOM     14  C   LIG A   1     -13.000   6.940 127.817  0.00  0.00    +0.003 A 
ATOM     15  C   LIG A   1     -12.332   7.074 126.597  0.00  0.00    +0.000 A 
ATOM     16  C   LIG A   1     -11.142   7.793 126.527  0.00  0.00    +0.000 A 
ATOM     17  C   LIG A   1     -10.614   8.376 127.676  0.00  0.00    +0.000 A 
ATOM     18  C   LIG A   1     -11.280   8.242 128.896  0.00  0.00    +0.003 A 
ENDBRANCH  12  13
ENDBRANCH  11  12
ENDBRANCH  10  11
ENDBRANCH   1  10
TORSDOF 10
ENDMDL
MODEL 8
REMARK VINA RESULT:      -4.9      3.074      5.013
REMARK  Name = NuBBE_1152
REMARK  11 active torsions:
REMARK  status: ('A' for Active; 'I' for Inactive)
REMARK    1  A    between atoms: C_2  and  C_3
REMARK    2  A    between atoms: C_2  and  O_17
REMARK    3  A    between atoms: C_3  and  C_4
REMARK    4  A    between atoms: C_4  and  C_5
REMARK    5  A    between atoms: C_5  and  C_6
REMARK    6  A    between atoms: C_6  and  C_7
REMARK    7  A    between atoms: C_7  and  C_8
REMARK    8  A    between atoms: C_8  and  C_9
REMARK    9  A    between atoms: C_9  and  C_10
REMARK   10  A    between atoms: C_10  and  C_11
REMARK   11  A    between atoms: O_17  and  C_18
REMARK                            x       y       z     vdW  Elec       q    Type
REMARK                         _______ _______ _______ _____ _____    ______ ____
ROOT
ATOM      1  C   LIG A   1      -9.492  -2.927 125.400  0.00  0.00    +0.000 C 
ENDROOT
BRANCH   1   2
ATOM      2  C   LIG A   1      -8.626  -2.711 126.644  0.00  0.00    +0.000 C 
BRANCH   2   3
ATOM      3  C   LIG A   1      -8.896  -3.776 127.716  0.00  0.00    +0.000 C 
BRANCH   3   4
ATOM      4  C   LIG A   1      -8.189  -3.431 129.027  0.00  0.00    +0.011 C 
BRANCH   4   5
ATOM      5  C   LIG A   1      -6.899  -2.633 128.817  0.00  0.00    +0.120 C 
BRANCH   5   7
ATOM      6  O   LIG A   1      -5.733  -4.129 130.321  0.00  0.00    -0.251 OA
ATOM      7  C   LIG A   1      -5.680  -3.320 129.404  0.00  0.00    +0.307 C 
BRANCH   7   8
ATOM      8  O   LIG A   1      -4.535  -2.866 128.817  0.00  0.00    -0.468 OA
ATOM      9  C   LIG A   1      -3.339  -3.510 129.244  0.00  0.00    +0.280 C 
ENDBRANCH   7   8
ENDBRANCH   5   7
ENDBRANCH   4   5
ENDBRANCH   3   4
ENDBRANCH   2   3
ENDBRANCH   1   2
BRANCH   1  10
ATOM     10  C   LIG A   1      -8.686  -3.513 124.236  0.00  0.00    +0.000 C 
BRANCH  10  11
ATOM     11  C   LIG A   1      -8.562  -2.510 123.084  0.00  0.00    +0.005 C 
BRANCH  11  12
ATOM     12  C   LIG A   1      -7.108  -2.064 122.874  0.00  0.00    +0.035 C 
BRANCH  12  13
ATOM     13  C   LIG A   1      -6.626  -1.107 123.938  0.00  0.00    -0.047 A 
ATOM     14  C   LIG A   1      -5.693  -1.517 124.901  0.00  0.00    +0.003 A 
ATOM     15  C   LIG A   1      -5.251  -0.630 125.886  0.00  0.00    +0.000 A 
ATOM     16  C   LIG A   1      -5.743   0.673 125.925  0.00  0.00    +0.000 A 
ATOM     17  C   LIG A   1      -6.679   1.090 124.982  0.00  0.00    +0.000 A 
ATOM     18  C   LIG A   1      -7.121   0.203 123.997  0.00  0.00    +0.003 A 
ENDBRANCH  12  13
ENDBRANCH  11  12
ENDBRANCH  10  11
ENDBRANCH   1  10
TORSDOF 10
ENDMDL
MODEL 9
REMARK VINA RESULT:      -4.6      3.590      6.058
REMARK  Name = NuBBE_1152
REMARK  11 active torsions:
REMARK  status: ('A' for Active; 'I' for Inactive)
REMARK    1  A    between atoms: C_2  and  C_3
REMARK    2  A    between atoms: C_2  and  O_17
REMARK    3  A    between atoms: C_3  and  C_4
REMARK    4  A    between atoms: C_4  and  C_5
REMARK    5  A    between atoms: C_5  and  C_6
REMARK    6  A    between atoms: C_6  and  C_7
REMARK    7  A    between atoms: C_7  and  C_8
REMARK    8  A    between atoms: C_8  and  C_9
REMARK    9  A    between atoms: C_9  and  C_10
REMARK   10  A    between atoms: C_10  and  C_11
REMARK   11  A    between atoms: O_17  and  C_18
REMARK                            x       y       z     vdW  Elec       q    Type
REMARK                         _______ _______ _______ _____ _____    ______ ____
ROOT
ATOM      1  C   LIG A   1      -8.764  -3.007 126.944  0.00  0.00    +0.000 C 
ENDROOT
BRANCH   1   2
ATOM      2  C   LIG A   1      -7.690  -1.945 126.693  0.00  0.00    +0.000 C 
BRANCH   2   3
ATOM      3  C   LIG A   1      -6.617  -2.441 125.713  0.00  0.00    +0.000 C 
BRANCH   3   4
ATOM      4  C   LIG A   1      -7.229  -3.329 124.630  0.00  0.00    +0.011 C 
BRANCH   4   5
ATOM      5  C   LIG A   1      -7.739  -2.533 123.424  0.00  0.00    +0.120 C 
BRANCH   5   7
ATOM      6  O   LIG A   1     -10.001  -3.387 123.299  0.00  0.00    -0.251 OA
ATOM      7  C   LIG A   1      -9.252  -2.423 123.389  0.00  0.00    +0.307 C 
BRANCH   7   8
ATOM      8  O   LIG A   1      -9.645  -1.117 123.406  0.00  0.00    -0.468 OA
ATOM      9  C   LIG A   1      -8.586  -0.166 123.360  0.00  0.00    +0.280 C 
ENDBRANCH   7   8
ENDBRANCH   5   7
ENDBRANCH   4   5
ENDBRANCH   3   4
ENDBRANCH   2   3
ENDBRANCH   1   2
BRANCH   1  10
ATOM     10  C   LIG A   1      -8.526  -3.763 128.256  0.00  0.00    +0.000 C 
BRANCH  10  11
ATOM     11  C   LIG A   1      -7.755  -2.903 129.262  0.00  0.00    +0.005 C 
BRANCH  11  12
ATOM     12  C   LIG A   1      -6.396  -3.522 129.613  0.00  0.00    +0.035 C 
BRANCH  12  13
ATOM     13  C   LIG A   1      -6.271  -3.880 131.076  0.00  0.00    -0.047 A 
ATOM     14  C   LIG A   1      -5.404  -4.900 131.492  0.00  0.00    +0.003 A 
ATOM     15  C   LIG A   1      -5.294  -5.232 132.845  0.00  0.00    +0.000 A 
ATOM     16  C   LIG A   1      -6.055  -4.553 133.795  0.00  0.00    +0.000 A 
ATOM     17  C   LIG A   1      -6.929  -3.546 133.394  0.00  0.00    +0.000 A 
ATOM     18  C   LIG A   1      -7.039  -3.215 132.041  0.00  0.00    +0.003 A 
ENDBRANCH  12  13
ENDBRANCH  11  12
ENDBRANCH  10  11
ENDBRANCH   1  10
TORSDOF 10
ENDMDL
