MODEL 1
REMARK VINA RESULT:      -9.6      0.000      0.000
REMARK  Name = NuBBE_2326
REMARK  8 active torsions:
REMARK  status: ('A' for Active; 'I' for Inactive)
REMARK    1  A    between atoms: C_1  and  C_2
REMARK    2  A    between atoms: C_4  and  C_5
REMARK    3  A    between atoms: C_5  and  O_6
REMARK    4  A    between atoms: C_11  and  C_31
REMARK    5  A    between atoms: C_14  and  C_30
REMARK    6  A    between atoms: C_15  and  C_29
REMARK    7  A    between atoms: C_18  and  C_19
REMARK    8  A    between atoms: C_22  and  C_24
REMARK                            x       y       z     vdW  Elec       q    Type
REMARK                         _______ _______ _______ _____ _____    ______ ____
ROOT
ATOM      1  C   LIG A   1      -6.030  -3.639 131.000  0.00  0.00    +0.044 C 
ATOM      2  C   LIG A   1      -6.549  -3.186 129.664  0.00  0.00    -0.046 C 
ATOM      3  C   LIG A   1      -5.858  -2.120 128.912  0.00  0.00    -0.028 C 
ATOM      4  C   LIG A   1      -4.514  -2.023 128.814  0.00  0.00    +0.096 C 
ATOM      5  C   LIG A   1      -7.732  -3.629 129.204  0.00  0.00    +0.003 C 
ATOM      6  C   LIG A   1      -8.296  -3.138 127.968  0.00  0.00    +0.001 C 
ATOM      7  C   LIG A   1      -7.934  -1.946 127.439  0.00  0.00    -0.053 C 
ATOM      8  C   LIG A   1      -6.869  -1.119 128.229  0.00  0.00    +0.015 C 
ATOM      9  C   LIG A   1      -6.202  -0.100 127.274  0.00  0.00    +0.016 C 
ATOM     10  C   LIG A   1      -5.970  -0.711 125.900  0.00  0.00    +0.009 C 
ATOM     11  C   LIG A   1      -7.305  -0.901 125.085  0.00  0.00    -0.020 C 
ATOM     12  C   LIG A   1      -8.480  -1.409 126.071  0.00  0.00    -0.004 C 
ATOM     13  C   LIG A   1      -9.456  -0.239 126.385  0.00  0.00    +0.012 C 
ATOM     14  C   LIG A   1     -10.134   0.353 125.150  0.00  0.00    +0.008 C 
ATOM     15  C   LIG A   1      -9.158   0.753 124.012  0.00  0.00    -0.022 C 
ATOM     16  C   LIG A   1      -9.597   0.045 122.706  0.00  0.00    +0.012 C 
ATOM     17  C   LIG A   1      -7.665   0.506 124.417  0.00  0.00    +0.003 C 
ATOM     18  C   LIG A   1      -6.724   0.940 123.262  0.00  0.00    +0.015 C 
ATOM     19  C   LIG A   1      -6.879   2.431 122.929  0.00  0.00    +0.052 C 
ATOM     20  C   LIG A   1      -6.036   2.798 121.711  0.00  0.00    +0.015 C 
ATOM     21  C   LIG A   1      -9.323   2.279 123.759  0.00  0.00    +0.081 C 
ATOM     22  C   LIG A   1      -8.345   2.794 122.723  0.00  0.00    +0.137 C 
ATOM     23  O   LIG A   1      -8.717   3.564 121.838  0.00  0.00    -0.297 OA
ATOM     24  C   LIG A   1      -9.341  -2.520 125.388  0.00  0.00    +0.016 C 
ATOM     25  C   LIG A   1      -6.933  -1.947 124.003  0.00  0.00    +0.012 C 
ATOM     26  C   LIG A   1      -7.535  -0.294 129.364  0.00  0.00    +0.021 C 
ENDROOT
BRANCH   4  27
ATOM     27  C   LIG A   1      -3.501  -2.968 129.301  0.00  0.00    +0.330 C 
ATOM     28  O   LIG A   1      -3.287  -4.065 128.818  0.00  0.00    -0.246 OA
BRANCH  27  29
ATOM     29  O   LIG A   1      -2.928  -2.568 130.445  0.00  0.00    -0.477 OA
ATOM     30  H   LIG A   1      -2.449  -3.359 130.763  0.00  0.00    +0.295 HD
ENDBRANCH  27  29
ENDBRANCH   4  27
TORSDOF 2
ENDMDL
MODEL 2
REMARK VINA RESULT:      -8.6      2.274      7.342
REMARK  Name = NuBBE_2326
REMARK  8 active torsions:
REMARK  status: ('A' for Active; 'I' for Inactive)
REMARK    1  A    between atoms: C_1  and  C_2
REMARK    2  A    between atoms: C_4  and  C_5
REMARK    3  A    between atoms: C_5  and  O_6
REMARK    4  A    between atoms: C_11  and  C_31
REMARK    5  A    between atoms: C_14  and  C_30
REMARK    6  A    between atoms: C_15  and  C_29
REMARK    7  A    between atoms: C_18  and  C_19
REMARK    8  A    between atoms: C_22  and  C_24
REMARK                            x       y       z     vdW  Elec       q    Type
REMARK                         _______ _______ _______ _____ _____    ______ ____
ROOT
ATOM      1  C   LIG A   1      -9.108  -2.309 123.359  0.00  0.00    +0.044 C 
ATOM      2  C   LIG A   1      -8.752  -2.236 124.818  0.00  0.00    -0.046 C 
ATOM      3  C   LIG A   1      -7.953  -1.111 125.341  0.00  0.00    -0.028 C 
ATOM      4  C   LIG A   1      -8.131   0.173 124.963  0.00  0.00    +0.096 C 
ATOM      5  C   LIG A   1      -9.019  -3.267 125.638  0.00  0.00    +0.003 C 
ATOM      6  C   LIG A   1      -8.603  -3.261 127.021  0.00  0.00    +0.001 C 
ATOM      7  C   LIG A   1      -7.587  -2.482 127.461  0.00  0.00    -0.053 C 
ATOM      8  C   LIG A   1      -6.880  -1.581 126.399  0.00  0.00    +0.015 C 
ATOM      9  C   LIG A   1      -6.150  -0.421 127.117  0.00  0.00    +0.016 C 
ATOM     10  C   LIG A   1      -6.978   0.108 128.280  0.00  0.00    +0.009 C 
ATOM     11  C   LIG A   1      -7.018  -0.887 129.500  0.00  0.00    -0.020 C 
ATOM     12  C   LIG A   1      -7.149  -2.406 128.965  0.00  0.00    -0.004 C 
ATOM     13  C   LIG A   1      -5.781  -3.136 129.089  0.00  0.00    +0.012 C 
ATOM     14  C   LIG A   1      -5.246  -3.212 130.519  0.00  0.00    +0.008 C 
ATOM     15  C   LIG A   1      -5.202  -1.849 131.260  0.00  0.00    -0.022 C 
ATOM     16  C   LIG A   1      -5.985  -1.979 132.591  0.00  0.00    +0.012 C 
ATOM     17  C   LIG A   1      -5.674  -0.673 130.339  0.00  0.00    +0.003 C 
ATOM     18  C   LIG A   1      -5.592   0.671 131.111  0.00  0.00    +0.015 C 
ATOM     19  C   LIG A   1      -4.160   0.979 131.569  0.00  0.00    +0.052 C 
ATOM     20  C   LIG A   1      -4.133   2.240 132.430  0.00  0.00    +0.015 C 
ATOM     21  C   LIG A   1      -3.723  -1.568 131.650  0.00  0.00    +0.081 C 
ATOM     22  C   LIG A   1      -3.553  -0.211 132.303  0.00  0.00    +0.137 C 
ATOM     23  O   LIG A   1      -2.855  -0.082 133.309  0.00  0.00    -0.297 OA
ATOM     24  C   LIG A   1      -8.157  -3.221 129.837  0.00  0.00    +0.016 C 
ATOM     25  C   LIG A   1      -8.255  -0.426 130.313  0.00  0.00    +0.012 C 
ATOM     26  C   LIG A   1      -5.794  -2.379 125.627  0.00  0.00    +0.021 C 
ENDROOT
BRANCH   4  27
ATOM     27  C   LIG A   1      -9.177   0.723 124.091  0.00  0.00    +0.330 C 
ATOM     28  O   LIG A   1      -8.984   1.176 122.978  0.00  0.00    -0.246 OA
BRANCH  27  29
ATOM     29  O   LIG A   1     -10.363   0.827 124.707  0.00  0.00    -0.477 OA
ATOM     30  H   LIG A   1     -10.364   0.093 125.354  0.00  0.00    +0.295 HD
ENDBRANCH  27  29
ENDBRANCH   4  27
TORSDOF 2
ENDMDL
MODEL 3
REMARK VINA RESULT:      -8.1      4.326      6.824
REMARK  Name = NuBBE_2326
REMARK  8 active torsions:
REMARK  status: ('A' for Active; 'I' for Inactive)
REMARK    1  A    between atoms: C_1  and  C_2
REMARK    2  A    between atoms: C_4  and  C_5
REMARK    3  A    between atoms: C_5  and  O_6
REMARK    4  A    between atoms: C_11  and  C_31
REMARK    5  A    between atoms: C_14  and  C_30
REMARK    6  A    between atoms: C_15  and  C_29
REMARK    7  A    between atoms: C_18  and  C_19
REMARK    8  A    between atoms: C_22  and  C_24
REMARK                            x       y       z     vdW  Elec       q    Type
REMARK                         _______ _______ _______ _____ _____    ______ ____
ROOT
ATOM      1  C   LIG A   1      -8.608   4.677 134.239  0.00  0.00    +0.044 C 
ATOM      2  C   LIG A   1      -8.058   3.616 133.327  0.00  0.00    -0.046 C 
ATOM      3  C   LIG A   1      -8.440   3.578 131.902  0.00  0.00    -0.028 C 
ATOM      4  C   LIG A   1      -8.552   4.678 131.127  0.00  0.00    +0.096 C 
ATOM      5  C   LIG A   1      -7.336   2.596 133.823  0.00  0.00    +0.003 C 
ATOM      6  C   LIG A   1      -6.876   1.515 132.983  0.00  0.00    +0.001 C 
ATOM      7  C   LIG A   1      -7.474   1.219 131.805  0.00  0.00    -0.053 C 
ATOM      8  C   LIG A   1      -8.691   2.105 131.390  0.00  0.00    +0.015 C 
ATOM      9  C   LIG A   1      -8.906   1.996 129.862  0.00  0.00    +0.016 C 
ATOM     10  C   LIG A   1      -7.575   1.963 129.124  0.00  0.00    +0.009 C 
ATOM     11  C   LIG A   1      -6.808   0.601 129.314  0.00  0.00    -0.020 C 
ATOM     12  C   LIG A   1      -6.965   0.092 130.840  0.00  0.00    -0.004 C 
ATOM     13  C   LIG A   1      -7.987  -1.078 130.909  0.00  0.00    +0.012 C 
ATOM     14  C   LIG A   1      -7.596  -2.295 130.071  0.00  0.00    +0.008 C 
ATOM     15  C   LIG A   1      -7.244  -1.971 128.595  0.00  0.00    -0.022 C 
ATOM     16  C   LIG A   1      -5.833  -2.529 128.284  0.00  0.00    +0.012 C 
ATOM     17  C   LIG A   1      -7.426  -0.447 128.278  0.00  0.00    +0.003 C 
ATOM     18  C   LIG A   1      -7.087  -0.171 126.789  0.00  0.00    +0.015 C 
ATOM     19  C   LIG A   1      -8.000  -0.961 125.840  0.00  0.00    +0.052 C 
ATOM     20  C   LIG A   1      -7.562  -0.767 124.391  0.00  0.00    +0.015 C 
ATOM     21  C   LIG A   1      -8.234  -2.754 127.687  0.00  0.00    +0.081 C 
ATOM     22  C   LIG A   1      -8.035  -2.437 126.219  0.00  0.00    +0.137 C 
ATOM     23  O   LIG A   1      -8.027  -3.336 125.379  0.00  0.00    -0.297 OA
ATOM     24  C   LIG A   1      -5.614  -0.478 131.380  0.00  0.00    +0.016 C 
ATOM     25  C   LIG A   1      -5.342   0.946 128.943  0.00  0.00    +0.012 C 
ATOM     26  C   LIG A   1      -9.999   1.603 132.060  0.00  0.00    +0.021 C 
ENDROOT
BRANCH   4  27
ATOM     27  C   LIG A   1      -8.219   6.066 131.473  0.00  0.00    +0.330 C 
ATOM     28  O   LIG A   1      -7.092   6.479 131.675  0.00  0.00    -0.246 OA
BRANCH  27  29
ATOM     29  O   LIG A   1      -9.305   6.817 131.704  0.00  0.00    -0.477 OA
ATOM     30  H   LIG A   1      -9.176   7.154 132.613  0.00  0.00    +0.295 HD
ENDBRANCH  27  29
ENDBRANCH   4  27
TORSDOF 2
ENDMDL
MODEL 4
REMARK VINA RESULT:      -8.1      5.093      7.300
REMARK  Name = NuBBE_2326
REMARK  8 active torsions:
REMARK  status: ('A' for Active; 'I' for Inactive)
REMARK    1  A    between atoms: C_1  and  C_2
REMARK    2  A    between atoms: C_4  and  C_5
REMARK    3  A    between atoms: C_5  and  O_6
REMARK    4  A    between atoms: C_11  and  C_31
REMARK    5  A    between atoms: C_14  and  C_30
REMARK    6  A    between atoms: C_15  and  C_29
REMARK    7  A    between atoms: C_18  and  C_19
REMARK    8  A    between atoms: C_22  and  C_24
REMARK                            x       y       z     vdW  Elec       q    Type
REMARK                         _______ _______ _______ _____ _____    ______ ____
ROOT
ATOM      1  C   LIG A   1      -5.916  -5.168 130.867  0.00  0.00    +0.044 C 
ATOM      2  C   LIG A   1      -6.259  -3.704 130.852  0.00  0.00    -0.046 C 
ATOM      3  C   LIG A   1      -5.745  -2.801 131.900  0.00  0.00    -0.028 C 
ATOM      4  C   LIG A   1      -4.487  -2.858 132.387  0.00  0.00    +0.096 C 
ATOM      5  C   LIG A   1      -7.160  -3.222 129.979  0.00  0.00    +0.003 C 
ATOM      6  C   LIG A   1      -7.576  -1.839 130.006  0.00  0.00    +0.001 C 
ATOM      7  C   LIG A   1      -7.452  -1.075 131.116  0.00  0.00    -0.053 C 
ATOM      8  C   LIG A   1      -6.832  -1.759 132.376  0.00  0.00    +0.015 C 
ATOM      9  C   LIG A   1      -6.288  -0.671 133.332  0.00  0.00    +0.016 C 
ATOM     10  C   LIG A   1      -5.628   0.459 132.555  0.00  0.00    +0.009 C 
ATOM     11  C   LIG A   1      -6.670   1.365 131.797  0.00  0.00    -0.020 C 
ATOM     12  C   LIG A   1      -7.838   0.444 131.164  0.00  0.00    -0.004 C 
ATOM     13  C   LIG A   1      -9.136   0.569 132.011  0.00  0.00    +0.012 C 
ATOM     14  C   LIG A   1      -9.687   1.992 132.097  0.00  0.00    +0.008 C 
ATOM     15  C   LIG A   1      -8.648   3.057 132.537  0.00  0.00    -0.022 C 
ATOM     16  C   LIG A   1      -8.608   4.185 131.475  0.00  0.00    +0.012 C 
ATOM     17  C   LIG A   1      -7.255   2.412 132.854  0.00  0.00    +0.003 C 
ATOM     18  C   LIG A   1      -6.255   3.507 133.311  0.00  0.00    +0.015 C 
ATOM     19  C   LIG A   1      -6.738   4.227 134.579  0.00  0.00    +0.052 C 
ATOM     20  C   LIG A   1      -5.799   5.377 134.931  0.00  0.00    +0.015 C 
ATOM     21  C   LIG A   1      -9.164   3.711 133.850  0.00  0.00    +0.081 C 
ATOM     22  C   LIG A   1      -8.175   4.708 134.419  0.00  0.00    +0.137 C 
ATOM     23  O   LIG A   1      -8.557   5.802 134.836  0.00  0.00    -0.297 OA
ATOM     24  C   LIG A   1      -8.211   0.926 129.725  0.00  0.00    +0.016 C 
ATOM     25  C   LIG A   1      -5.820   2.085 130.719  0.00  0.00    +0.012 C 
ATOM     26  C   LIG A   1      -7.909  -2.548 133.168  0.00  0.00    +0.021 C 
ENDROOT
BRANCH   4  27
ATOM     27  C   LIG A   1      -3.375  -3.698 131.925  0.00  0.00    +0.330 C 
ATOM     28  O   LIG A   1      -2.816  -4.542 132.601  0.00  0.00    -0.246 OA
BRANCH  27  29
ATOM     29  O   LIG A   1      -2.919  -3.336 130.718  0.00  0.00    -0.477 OA
ATOM     30  H   LIG A   1      -3.729  -3.171 130.194  0.00  0.00    +0.295 HD
ENDBRANCH  27  29
ENDBRANCH   4  27
TORSDOF 2
ENDMDL
MODEL 5
REMARK VINA RESULT:      -7.9      8.642     10.555
REMARK  Name = NuBBE_2326
REMARK  8 active torsions:
REMARK  status: ('A' for Active; 'I' for Inactive)
REMARK    1  A    between atoms: C_1  and  C_2
REMARK    2  A    between atoms: C_4  and  C_5
REMARK    3  A    between atoms: C_5  and  O_6
REMARK    4  A    between atoms: C_11  and  C_31
REMARK    5  A    between atoms: C_14  and  C_30
REMARK    6  A    between atoms: C_15  and  C_29
REMARK    7  A    between atoms: C_18  and  C_19
REMARK    8  A    between atoms: C_22  and  C_24
REMARK                            x       y       z     vdW  Elec       q    Type
REMARK                         _______ _______ _______ _____ _____    ______ ____
ROOT
ATOM      1  C   LIG A   1      -1.483   8.992 135.918  0.00  0.00    +0.044 C 
ATOM      2  C   LIG A   1      -2.064   8.514 134.617  0.00  0.00    -0.046 C 
ATOM      3  C   LIG A   1      -2.305   7.076 134.385  0.00  0.00    -0.028 C 
ATOM      4  C   LIG A   1      -2.811   6.241 135.318  0.00  0.00    +0.096 C 
ATOM      5  C   LIG A   1      -2.227   9.364 133.588  0.00  0.00    +0.003 C 
ATOM      6  C   LIG A   1      -2.694   8.911 132.298  0.00  0.00    +0.001 C 
ATOM      7  C   LIG A   1      -2.578   7.620 131.907  0.00  0.00    -0.053 C 
ATOM      8  C   LIG A   1      -1.915   6.633 132.920  0.00  0.00    +0.015 C 
ATOM      9  C   LIG A   1      -2.326   5.185 132.568  0.00  0.00    +0.016 C 
ATOM     10  C   LIG A   1      -3.784   5.121 132.135  0.00  0.00    +0.009 C 
ATOM     11  C   LIG A   1      -4.023   5.747 130.710  0.00  0.00    -0.020 C 
ATOM     12  C   LIG A   1      -3.128   7.081 130.541  0.00  0.00    -0.004 C 
ATOM     13  C   LIG A   1      -1.902   6.789 129.628  0.00  0.00    +0.012 C 
ATOM     14  C   LIG A   1      -2.273   6.319 128.222  0.00  0.00    +0.008 C 
ATOM     15  C   LIG A   1      -3.271   5.132 128.185  0.00  0.00    -0.022 C 
ATOM     16  C   LIG A   1      -4.488   5.529 127.312  0.00  0.00    +0.012 C 
ATOM     17  C   LIG A   1      -3.637   4.638 129.626  0.00  0.00    +0.003 C 
ATOM     18  C   LIG A   1      -4.617   3.437 129.542  0.00  0.00    +0.015 C 
ATOM     19  C   LIG A   1      -4.003   2.253 128.782  0.00  0.00    +0.052 C 
ATOM     20  C   LIG A   1      -5.032   1.138 128.608  0.00  0.00    +0.015 C 
ATOM     21  C   LIG A   1      -2.575   3.949 127.453  0.00  0.00    +0.081 C 
ATOM     22  C   LIG A   1      -3.434   2.701 127.441  0.00  0.00    +0.137 C 
ATOM     23  O   LIG A   1      -3.553   2.031 126.415  0.00  0.00    -0.297 OA
ATOM     24  C   LIG A   1      -3.938   8.212 129.830  0.00  0.00    +0.016 C 
ATOM     25  C   LIG A   1      -5.547   6.037 130.684  0.00  0.00    +0.012 C 
ATOM     26  C   LIG A   1      -0.366   6.692 132.821  0.00  0.00    +0.021 C 
ENDROOT
BRANCH   4  27
ATOM     27  C   LIG A   1      -3.320   6.579 136.653  0.00  0.00    +0.330 C 
ATOM     28  O   LIG A   1      -2.777   6.275 137.700  0.00  0.00    -0.246 OA
BRANCH  27  29
ATOM     29  O   LIG A   1      -4.542   7.130 136.618  0.00  0.00    -0.477 OA
ATOM     30  H   LIG A   1      -5.122   6.452 137.019  0.00  0.00    +0.295 HD
ENDBRANCH  27  29
ENDBRANCH   4  27
TORSDOF 2
ENDMDL
MODEL 6
REMARK VINA RESULT:      -7.7      3.558      7.361
REMARK  Name = NuBBE_2326
REMARK  8 active torsions:
REMARK  status: ('A' for Active; 'I' for Inactive)
REMARK    1  A    between atoms: C_1  and  C_2
REMARK    2  A    between atoms: C_4  and  C_5
REMARK    3  A    between atoms: C_5  and  O_6
REMARK    4  A    between atoms: C_11  and  C_31
REMARK    5  A    between atoms: C_14  and  C_30
REMARK    6  A    between atoms: C_15  and  C_29
REMARK    7  A    between atoms: C_18  and  C_19
REMARK    8  A    between atoms: C_22  and  C_24
REMARK                            x       y       z     vdW  Elec       q    Type
REMARK                         _______ _______ _______ _____ _____    ______ ____
ROOT
ATOM      1  C   LIG A   1      -8.591  -3.618 125.878  0.00  0.00    +0.044 C 
ATOM      2  C   LIG A   1      -8.276  -2.855 127.134  0.00  0.00    -0.046 C 
ATOM      3  C   LIG A   1      -7.552  -1.570 127.072  0.00  0.00    -0.028 C 
ATOM      4  C   LIG A   1      -7.789  -0.622 126.140  0.00  0.00    +0.096 C 
ATOM      5  C   LIG A   1      -8.506  -3.401 128.341  0.00  0.00    +0.003 C 
ATOM      6  C   LIG A   1      -8.126  -2.728 129.562  0.00  0.00    +0.001 C 
ATOM      7  C   LIG A   1      -7.164  -1.775 129.584  0.00  0.00    -0.053 C 
ATOM      8  C   LIG A   1      -6.480  -1.431 128.223  0.00  0.00    +0.015 C 
ATOM      9  C   LIG A   1      -5.832  -0.030 128.317  0.00  0.00    +0.016 C 
ATOM     10  C   LIG A   1      -6.715   0.929 129.102  0.00  0.00    +0.009 C 
ATOM     11  C   LIG A   1      -6.731   0.616 130.645  0.00  0.00    -0.020 C 
ATOM     12  C   LIG A   1      -6.767  -0.983 130.879  0.00  0.00    -0.004 C 
ATOM     13  C   LIG A   1      -5.366  -1.490 131.324  0.00  0.00    +0.012 C 
ATOM     14  C   LIG A   1      -4.862  -0.861 132.623  0.00  0.00    +0.008 C 
ATOM     15  C   LIG A   1      -4.910   0.690 132.645  0.00  0.00    -0.022 C 
ATOM     16  C   LIG A   1      -5.716   1.148 133.885  0.00  0.00    +0.012 C 
ATOM     17  C   LIG A   1      -5.421   1.273 131.283  0.00  0.00    +0.003 C 
ATOM     18  C   LIG A   1      -5.431   2.824 131.341  0.00  0.00    +0.015 C 
ATOM     19  C   LIG A   1      -4.028   3.394 131.598  0.00  0.00    +0.052 C 
ATOM     20  C   LIG A   1      -4.090   4.909 131.774  0.00  0.00    +0.015 C 
ATOM     21  C   LIG A   1      -3.457   1.207 132.853  0.00  0.00    +0.081 C 
ATOM     22  C   LIG A   1      -3.377   2.719 132.799  0.00  0.00    +0.137 C 
ATOM     23  O   LIG A   1      -2.712   3.342 133.627  0.00  0.00    -0.297 OA
ATOM     24  C   LIG A   1      -7.751  -1.357 132.034  0.00  0.00    +0.016 C 
ATOM     25  C   LIG A   1      -8.011   1.327 131.155  0.00  0.00    +0.012 C 
ATOM     26  C   LIG A   1      -5.335  -2.431 127.907  0.00  0.00    +0.021 C 
ENDROOT
BRANCH   4  27
ATOM     27  C   LIG A   1      -8.841  -0.603 125.116  0.00  0.00    +0.330 C 
ATOM     28  O   LIG A   1     -10.019  -0.389 125.335  0.00  0.00    -0.246 OA
BRANCH  27  29
ATOM     29  O   LIG A   1      -8.401  -1.004 123.914  0.00  0.00    -0.477 OA
ATOM     30  H   LIG A   1      -7.998  -0.202 123.525  0.00  0.00    +0.295 HD
ENDBRANCH  27  29
ENDBRANCH   4  27
TORSDOF 2
ENDMDL
MODEL 7
REMARK VINA RESULT:      -7.6      1.998      3.127
REMARK  Name = NuBBE_2326
REMARK  8 active torsions:
REMARK  status: ('A' for Active; 'I' for Inactive)
REMARK    1  A    between atoms: C_1  and  C_2
REMARK    2  A    between atoms: C_4  and  C_5
REMARK    3  A    between atoms: C_5  and  O_6
REMARK    4  A    between atoms: C_11  and  C_31
REMARK    5  A    between atoms: C_14  and  C_30
REMARK    6  A    between atoms: C_15  and  C_29
REMARK    7  A    between atoms: C_18  and  C_19
REMARK    8  A    between atoms: C_22  and  C_24
REMARK                            x       y       z     vdW  Elec       q    Type
REMARK                         _______ _______ _______ _____ _____    ______ ____
ROOT
ATOM      1  C   LIG A   1      -5.360  -2.716 132.411  0.00  0.00    +0.044 C 
ATOM      2  C   LIG A   1      -5.473  -2.478 130.931  0.00  0.00    -0.046 C 
ATOM      3  C   LIG A   1      -6.292  -1.366 130.410  0.00  0.00    -0.028 C 
ATOM      4  C   LIG A   1      -6.323  -0.134 130.964  0.00  0.00    +0.096 C 
ATOM      5  C   LIG A   1      -4.962  -3.360 130.056  0.00  0.00    +0.003 C 
ATOM      6  C   LIG A   1      -5.138  -3.202 128.631  0.00  0.00    +0.001 C 
ATOM      7  C   LIG A   1      -6.147  -2.463 128.112  0.00  0.00    -0.053 C 
ATOM      8  C   LIG A   1      -7.116  -1.780 129.128  0.00  0.00    +0.015 C 
ATOM      9  C   LIG A   1      -7.839  -0.602 128.434  0.00  0.00    +0.016 C 
ATOM     10  C   LIG A   1      -6.893   0.151 127.510  0.00  0.00    +0.009 C 
ATOM     11  C   LIG A   1      -6.540  -0.661 126.207  0.00  0.00    -0.020 C 
ATOM     12  C   LIG A   1      -6.334  -2.221 126.573  0.00  0.00    -0.004 C 
ATOM     13  C   LIG A   1      -7.572  -3.045 126.119  0.00  0.00    +0.012 C 
ATOM     14  C   LIG A   1      -7.850  -2.972 124.618  0.00  0.00    +0.008 C 
ATOM     15  C   LIG A   1      -7.920  -1.530 124.048  0.00  0.00    -0.022 C 
ATOM     16  C   LIG A   1      -6.916  -1.408 122.874  0.00  0.00    +0.012 C 
ATOM     17  C   LIG A   1      -7.741  -0.454 125.172  0.00  0.00    +0.003 C 
ATOM     18  C   LIG A   1      -7.840   0.971 124.563  0.00  0.00    +0.015 C 
ATOM     19  C   LIG A   1      -9.201   1.211 123.895  0.00  0.00    +0.052 C 
ATOM     20  C   LIG A   1      -9.223   2.570 123.199  0.00  0.00    +0.015 C 
ATOM     21  C   LIG A   1      -9.335  -1.329 123.436  0.00  0.00    +0.081 C 
ATOM     22  C   LIG A   1      -9.542   0.084 122.929  0.00  0.00    +0.137 C 
ATOM     23  O   LIG A   1     -10.072   0.287 121.836  0.00  0.00    -0.297 OA
ATOM     24  C   LIG A   1      -5.110  -2.818 125.806  0.00  0.00    +0.016 C 
ATOM     25  C   LIG A   1      -5.243   0.013 125.690  0.00  0.00    +0.012 C 
ATOM     26  C   LIG A   1      -8.221  -2.768 129.593  0.00  0.00    +0.021 C 
ENDROOT
BRANCH   4  27
ATOM     27  C   LIG A   1      -5.504   0.381 132.068  0.00  0.00    +0.330 C 
ATOM     28  O   LIG A   1      -5.923   0.633 133.183  0.00  0.00    -0.246 OA
BRANCH  27  29
ATOM     29  O   LIG A   1      -4.261   0.704 131.685  0.00  0.00    -0.477 OA
ATOM     30  H   LIG A   1      -4.068   1.533 132.167  0.00  0.00    +0.295 HD
ENDBRANCH  27  29
ENDBRANCH   4  27
TORSDOF 2
ENDMDL
MODEL 8
REMARK VINA RESULT:      -7.6      3.354      5.104
REMARK  Name = NuBBE_2326
REMARK  8 active torsions:
REMARK  status: ('A' for Active; 'I' for Inactive)
REMARK    1  A    between atoms: C_1  and  C_2
REMARK    2  A    between atoms: C_4  and  C_5
REMARK    3  A    between atoms: C_5  and  O_6
REMARK    4  A    between atoms: C_11  and  C_31
REMARK    5  A    between atoms: C_14  and  C_30
REMARK    6  A    between atoms: C_15  and  C_29
REMARK    7  A    between atoms: C_18  and  C_19
REMARK    8  A    between atoms: C_22  and  C_24
REMARK                            x       y       z     vdW  Elec       q    Type
REMARK                         _______ _______ _______ _____ _____    ______ ____
ROOT
ATOM      1  C   LIG A   1      -6.342   1.973 134.124  0.00  0.00    +0.044 C 
ATOM      2  C   LIG A   1      -6.275   1.279 132.792  0.00  0.00    -0.046 C 
ATOM      3  C   LIG A   1      -7.019   1.807 131.632  0.00  0.00    -0.028 C 
ATOM      4  C   LIG A   1      -7.109   3.122 131.335  0.00  0.00    +0.096 C 
ATOM      5  C   LIG A   1      -5.667   0.086 132.672  0.00  0.00    +0.003 C 
ATOM      6  C   LIG A   1      -5.671  -0.644 131.426  0.00  0.00    +0.001 C 
ATOM      7  C   LIG A   1      -6.605  -0.426 130.471  0.00  0.00    -0.053 C 
ATOM      8  C   LIG A   1      -7.686   0.660 130.776  0.00  0.00    +0.015 C 
ATOM      9  C   LIG A   1      -8.313   1.145 129.448  0.00  0.00    +0.016 C 
ATOM     10  C   LIG A   1      -7.258   1.265 128.358  0.00  0.00    +0.009 C 
ATOM     11  C   LIG A   1      -6.757  -0.135 127.840  0.00  0.00    -0.020 C 
ATOM     12  C   LIG A   1      -6.604  -1.156 129.083  0.00  0.00    -0.004 C 
ATOM     13  C   LIG A   1      -7.785  -2.169 129.089  0.00  0.00    +0.012 C 
ATOM     14  C   LIG A   1      -7.880  -3.020 127.823  0.00  0.00    +0.008 C 
ATOM     15  C   LIG A   1      -7.872  -2.206 126.502  0.00  0.00    -0.022 C 
ATOM     16  C   LIG A   1      -6.734  -2.736 125.594  0.00  0.00    +0.012 C 
ATOM     17  C   LIG A   1      -7.823  -0.663 126.772  0.00  0.00    +0.003 C 
ATOM     18  C   LIG A   1      -7.840   0.112 125.428  0.00  0.00    +0.015 C 
ATOM     19  C   LIG A   1      -9.109  -0.182 124.616  0.00  0.00    +0.052 C 
ATOM     20  C   LIG A   1      -9.039   0.494 123.249  0.00  0.00    +0.015 C 
ATOM     21  C   LIG A   1      -9.202  -2.502 125.753  0.00  0.00    +0.081 C 
ATOM     22  C   LIG A   1      -9.338  -1.683 124.485  0.00  0.00    +0.137 C 
ATOM     23  O   LIG A   1      -9.732  -2.203 123.441  0.00  0.00    -0.297 OA
ATOM     24  C   LIG A   1      -5.301  -2.009 128.950  0.00  0.00    +0.016 C 
ATOM     25  C   LIG A   1      -5.403   0.186 127.155  0.00  0.00    +0.012 C 
ATOM     26  C   LIG A   1      -8.844   0.069 131.625  0.00  0.00    +0.021 C 
ENDROOT
BRANCH   4  27
ATOM     27  C   LIG A   1      -6.426   4.246 131.988  0.00  0.00    +0.330 C 
ATOM     28  O   LIG A   1      -6.974   5.078 132.688  0.00  0.00    -0.246 OA
BRANCH  27  29
ATOM     29  O   LIG A   1      -5.145   4.364 131.610  0.00  0.00    -0.477 OA
ATOM     30  H   LIG A   1      -5.009   5.329 131.521  0.00  0.00    +0.295 HD
ENDBRANCH  27  29
ENDBRANCH   4  27
TORSDOF 2
ENDMDL
MODEL 9
REMARK VINA RESULT:      -7.6      4.641      6.616
REMARK  Name = NuBBE_2326
REMARK  8 active torsions:
REMARK  status: ('A' for Active; 'I' for Inactive)
REMARK    1  A    between atoms: C_1  and  C_2
REMARK    2  A    between atoms: C_4  and  C_5
REMARK    3  A    between atoms: C_5  and  O_6
REMARK    4  A    between atoms: C_11  and  C_31
REMARK    5  A    between atoms: C_14  and  C_30
REMARK    6  A    between atoms: C_15  and  C_29
REMARK    7  A    between atoms: C_18  and  C_19
REMARK    8  A    between atoms: C_22  and  C_24
REMARK                            x       y       z     vdW  Elec       q    Type
REMARK                         _______ _______ _______ _____ _____    ______ ____
ROOT
ATOM      1  C   LIG A   1      -5.364  -5.788 130.764  0.00  0.00    +0.044 C 
ATOM      2  C   LIG A   1      -5.474  -4.289 130.722  0.00  0.00    -0.046 C 
ATOM      3  C   LIG A   1      -6.287  -3.567 131.720  0.00  0.00    -0.028 C 
ATOM      4  C   LIG A   1      -6.312  -3.880 133.034  0.00  0.00    +0.096 C 
ATOM      5  C   LIG A   1      -4.965  -3.596 129.689  0.00  0.00    +0.003 C 
ATOM      6  C   LIG A   1      -5.139  -2.166 129.578  0.00  0.00    +0.001 C 
ATOM      7  C   LIG A   1      -6.143  -1.515 130.211  0.00  0.00    -0.053 C 
ATOM      8  C   LIG A   1      -7.111  -2.384 131.077  0.00  0.00    +0.015 C 
ATOM      9  C   LIG A   1      -7.826  -1.479 132.107  0.00  0.00    +0.016 C 
ATOM     10  C   LIG A   1      -6.875  -0.433 132.669  0.00  0.00    +0.009 C 
ATOM     11  C   LIG A   1      -6.525   0.694 131.626  0.00  0.00    -0.020 C 
ATOM     12  C   LIG A   1      -6.326   0.041 130.161  0.00  0.00    -0.004 C 
ATOM     13  C   LIG A   1      -7.569   0.336 129.273  0.00  0.00    +0.012 C 
ATOM     14  C   LIG A   1      -7.844   1.825 129.065  0.00  0.00    +0.008 C 
ATOM     15  C   LIG A   1      -7.905   2.655 130.374  0.00  0.00    -0.022 C 
ATOM     16  C   LIG A   1      -6.900   3.829 130.269  0.00  0.00    +0.012 C 
ATOM     17  C   LIG A   1      -7.723   1.752 131.642  0.00  0.00    +0.003 C 
ATOM     18  C   LIG A   1      -7.814   2.617 132.927  0.00  0.00    +0.015 C 
ATOM     19  C   LIG A   1      -9.173   3.322 133.045  0.00  0.00    +0.052 C 
ATOM     20  C   LIG A   1      -9.186   4.260 134.249  0.00  0.00    +0.015 C 
ATOM     21  C   LIG A   1      -9.319   3.298 130.464  0.00  0.00    +0.081 C 
ATOM     22  C   LIG A   1      -9.518   4.061 131.758  0.00  0.00    +0.137 C 
ATOM     23  O   LIG A   1     -10.045   5.174 131.755  0.00  0.00    -0.297 OA
ATOM     24  C   LIG A   1      -5.105   0.681 129.425  0.00  0.00    +0.016 C 
ATOM     25  C   LIG A   1      -5.223   1.325 132.185  0.00  0.00    +0.012 C 
ATOM     26  C   LIG A   1      -8.221  -3.022 130.199  0.00  0.00    +0.021 C 
ENDROOT
BRANCH   4  27
ATOM     27  C   LIG A   1      -5.492  -4.871 133.743  0.00  0.00    +0.330 C 
ATOM     28  O   LIG A   1      -5.926  -5.876 134.276  0.00  0.00    -0.246 OA
BRANCH  27  29
ATOM     29  O   LIG A   1      -4.218  -4.480 133.889  0.00  0.00    -0.477 OA
ATOM     30  H   LIG A   1      -4.279  -3.516 134.048  0.00  0.00    +0.295 HD
ENDBRANCH  27  29
ENDBRANCH   4  27
TORSDOF 2
ENDMDL
