MODEL 1
REMARK VINA RESULT:      -9.5      0.000      0.000
REMARK  Name = NuBBE_2503
REMARK  11 active torsions:
REMARK  status: ('A' for Active; 'I' for Inactive)
REMARK    1  A    between atoms: C_1  and  C_2
REMARK    2  A    between atoms: C_2  and  O_4
REMARK    3  A    between atoms: O_4  and  C_5
REMARK    4  A    between atoms: C_9  and  C_10
REMARK    5  A    between atoms: C_15  and  C_16
REMARK    6  A    between atoms: C_19  and  C_21
REMARK    7  A    between atoms: C_22  and  C_24
REMARK    8  A    between atoms: C_27  and  C_28
REMARK    9  A    between atoms: C_31  and  C_32
REMARK   10  A    between atoms: C_38  and  C_39
REMARK   11  A    between atoms: C_38  and  C_40
REMARK                            x       y       z     vdW  Elec       q    Type
REMARK                         _______ _______ _______ _____ _____    ______ ____
ROOT
ATOM      1  C   LIG A   1      -8.167  -1.069 124.560  0.00  0.00    +0.182 C 
ATOM      2  C   LIG A   1      -6.950  -0.153 124.709  0.00  0.00    +0.046 C 
ATOM      3  C   LIG A   1      -6.889   0.508 126.081  0.00  0.00    +0.011 C 
ATOM      4  C   LIG A   1      -6.868  -0.497 127.261  0.00  0.00    -0.022 C 
ATOM      5  C   LIG A   1      -5.468  -1.158 127.336  0.00  0.00    +0.012 C 
ATOM      6  C   LIG A   1      -7.165   0.294 128.610  0.00  0.00    +0.021 C 
ATOM      7  C   LIG A   1      -6.013   1.237 128.989  0.00  0.00    +0.009 C 
ATOM      8  C   LIG A   1      -6.383   2.090 130.191  0.00  0.00    +0.008 C 
ATOM      9  C   LIG A   1      -6.651   1.260 131.469  0.00  0.00    -0.019 C 
ATOM     10  C   LIG A   1      -5.328   0.514 131.822  0.00  0.00    +0.012 C 
ATOM     11  C   LIG A   1      -7.112   2.229 132.665  0.00  0.00    +0.005 C 
ATOM     12  C   LIG A   1      -6.133   3.275 133.387  0.00  0.00    -0.007 C 
ATOM     13  C   LIG A   1      -4.644   3.219 133.051  0.00  0.00    +0.008 C 
ATOM     14  C   LIG A   1      -6.674   4.732 133.401  0.00  0.00    -0.011 C 
ATOM     15  C   LIG A   1      -5.788   5.748 134.137  0.00  0.00    +0.008 C 
ATOM     16  C   LIG A   1      -8.089   4.803 134.008  0.00  0.00    +0.004 C 
ATOM     17  C   LIG A   1      -8.929   3.541 133.817  0.00  0.00    +0.007 C 
ATOM     18  C   LIG A   1      -8.590   2.792 132.508  0.00  0.00    -0.028 C 
ATOM     19  C   LIG A   1      -8.878   3.768 131.335  0.00  0.00    +0.011 C 
ATOM     20  C   LIG A   1      -9.553   1.594 132.357  0.00  0.00    +0.008 C 
ATOM     21  C   LIG A   1      -9.207   0.709 131.160  0.00  0.00    +0.012 C 
ATOM     22  C   LIG A   1      -7.768   0.120 131.188  0.00  0.00    -0.005 C 
ATOM     23  C   LIG A   1      -7.754  -0.936 132.348  0.00  0.00    +0.016 C 
ATOM     24  C   LIG A   1      -7.577  -0.586 129.798  0.00  0.00    -0.063 C 
ATOM     25  C   LIG A   1      -7.891  -1.885 129.589  0.00  0.00    -0.026 C 
ATOM     26  C   LIG A   1      -7.975  -2.554 128.244  0.00  0.00    +0.032 C 
ATOM     27  C   LIG A   1      -8.025  -1.539 127.085  0.00  0.00    +0.009 C 
ATOM     28  C   LIG A   1      -8.220  -2.178 125.658  0.00  0.00    +0.006 C 
ATOM     29  C   LIG A   1      -9.619  -2.860 125.608  0.00  0.00    +0.015 C 
ATOM     30  C   LIG A   1      -7.206  -3.284 125.298  0.00  0.00    +0.015 C 
ENDROOT
BRANCH   1  31
ATOM     31  O   LIG A   1      -9.395  -0.307 124.627  0.00  0.00    -0.461 OA
BRANCH  31  33
ATOM     32  C   LIG A   1      -9.729   1.784 123.614  0.00  0.00    +0.136 C 
ATOM     33  C   LIG A   1      -9.792   0.291 123.469  0.00  0.00    +0.304 C 
ATOM     34  O   LIG A   1     -10.258  -0.276 122.497  0.00  0.00    -0.251 OA
ENDBRANCH  31  33
ENDBRANCH   1  31
TORSDOF 2
ENDMDL
MODEL 2
REMARK VINA RESULT:      -9.4      3.121      8.311
REMARK  Name = NuBBE_2503
REMARK  11 active torsions:
REMARK  status: ('A' for Active; 'I' for Inactive)
REMARK    1  A    between atoms: C_1  and  C_2
REMARK    2  A    between atoms: C_2  and  O_4
REMARK    3  A    between atoms: O_4  and  C_5
REMARK    4  A    between atoms: C_9  and  C_10
REMARK    5  A    between atoms: C_15  and  C_16
REMARK    6  A    between atoms: C_19  and  C_21
REMARK    7  A    between atoms: C_22  and  C_24
REMARK    8  A    between atoms: C_27  and  C_28
REMARK    9  A    between atoms: C_31  and  C_32
REMARK   10  A    between atoms: C_38  and  C_39
REMARK   11  A    between atoms: C_38  and  C_40
REMARK                            x       y       z     vdW  Elec       q    Type
REMARK                         _______ _______ _______ _____ _____    ______ ____
ROOT
ATOM      1  C   LIG A   1     -10.050   5.424 131.472  0.00  0.00    +0.182 C 
ATOM      2  C   LIG A   1     -10.188   3.942 131.830  0.00  0.00    +0.046 C 
ATOM      3  C   LIG A   1      -9.659   3.029 130.730  0.00  0.00    +0.011 C 
ATOM      4  C   LIG A   1      -8.176   3.287 130.360  0.00  0.00    -0.022 C 
ATOM      5  C   LIG A   1      -7.271   2.726 131.486  0.00  0.00    +0.012 C 
ATOM      6  C   LIG A   1      -7.857   2.543 128.989  0.00  0.00    +0.021 C 
ATOM      7  C   LIG A   1      -7.874   1.016 129.146  0.00  0.00    +0.009 C 
ATOM      8  C   LIG A   1      -7.718   0.330 127.798  0.00  0.00    +0.008 C 
ATOM      9  C   LIG A   1      -6.369   0.641 127.108  0.00  0.00    -0.019 C 
ATOM     10  C   LIG A   1      -5.239   0.099 128.035  0.00  0.00    +0.012 C 
ATOM     11  C   LIG A   1      -6.321  -0.054 125.660  0.00  0.00    +0.005 C 
ATOM     12  C   LIG A   1      -6.222  -1.640 125.441  0.00  0.00    -0.007 C 
ATOM     13  C   LIG A   1      -5.972  -2.523 126.663  0.00  0.00    +0.008 C 
ATOM     14  C   LIG A   1      -7.334  -2.217 124.522  0.00  0.00    -0.011 C 
ATOM     15  C   LIG A   1      -7.233  -3.724 124.244  0.00  0.00    +0.008 C 
ATOM     16  C   LIG A   1      -7.385  -1.483 123.168  0.00  0.00    +0.004 C 
ATOM     17  C   LIG A   1      -6.935  -0.024 123.216  0.00  0.00    +0.007 C 
ATOM     18  C   LIG A   1      -7.242   0.650 124.573  0.00  0.00    -0.028 C 
ATOM     19  C   LIG A   1      -8.781   0.593 124.773  0.00  0.00    +0.011 C 
ATOM     20  C   LIG A   1      -6.843   2.140 124.490  0.00  0.00    +0.008 C 
ATOM     21  C   LIG A   1      -6.982   2.861 125.830  0.00  0.00    +0.012 C 
ATOM     22  C   LIG A   1      -6.144   2.241 126.985  0.00  0.00    -0.005 C 
ATOM     23  C   LIG A   1      -4.643   2.543 126.643  0.00  0.00    +0.016 C 
ATOM     24  C   LIG A   1      -6.579   3.016 128.280  0.00  0.00    -0.063 C 
ATOM     25  C   LIG A   1      -5.960   4.142 128.702  0.00  0.00    -0.026 C 
ATOM     26  C   LIG A   1      -6.472   5.067 129.772  0.00  0.00    +0.032 C 
ATOM     27  C   LIG A   1      -7.955   4.816 130.106  0.00  0.00    +0.009 C 
ATOM     28  C   LIG A   1      -8.576   5.825 131.146  0.00  0.00    +0.006 C 
ATOM     29  C   LIG A   1      -8.578   7.248 130.513  0.00  0.00    +0.015 C 
ATOM     30  C   LIG A   1      -7.792   5.959 132.468  0.00  0.00    +0.015 C 
ENDROOT
BRANCH   1  31
ATOM     31  O   LIG A   1     -10.872   5.755 130.329  0.00  0.00    -0.461 OA
BRANCH  31  33
ATOM     32  C   LIG A   1     -12.732   6.783 129.333  0.00  0.00    +0.136 C 
ATOM     33  C   LIG A   1     -12.075   6.333 130.605  0.00  0.00    +0.304 C 
ATOM     34  O   LIG A   1     -12.510   6.576 131.715  0.00  0.00    -0.251 OA
ENDBRANCH  31  33
ENDBRANCH   1  31
TORSDOF 2
ENDMDL
MODEL 3
REMARK VINA RESULT:      -9.4      3.435      7.280
REMARK  Name = NuBBE_2503
REMARK  11 active torsions:
REMARK  status: ('A' for Active; 'I' for Inactive)
REMARK    1  A    between atoms: C_1  and  C_2
REMARK    2  A    between atoms: C_2  and  O_4
REMARK    3  A    between atoms: O_4  and  C_5
REMARK    4  A    between atoms: C_9  and  C_10
REMARK    5  A    between atoms: C_15  and  C_16
REMARK    6  A    between atoms: C_19  and  C_21
REMARK    7  A    between atoms: C_22  and  C_24
REMARK    8  A    between atoms: C_27  and  C_28
REMARK    9  A    between atoms: C_31  and  C_32
REMARK   10  A    between atoms: C_38  and  C_39
REMARK   11  A    between atoms: C_38  and  C_40
REMARK                            x       y       z     vdW  Elec       q    Type
REMARK                         _______ _______ _______ _____ _____    ______ ____
ROOT
ATOM      1  C   LIG A   1     -10.221   5.545 130.190  0.00  0.00    +0.182 C 
ATOM      2  C   LIG A   1     -11.025   4.263 130.422  0.00  0.00    +0.046 C 
ATOM      3  C   LIG A   1     -10.134   3.030 130.510  0.00  0.00    +0.011 C 
ATOM      4  C   LIG A   1      -9.054   3.114 131.619  0.00  0.00    -0.022 C 
ATOM      5  C   LIG A   1      -9.733   2.924 133.000  0.00  0.00    +0.012 C 
ATOM      6  C   LIG A   1      -7.986   1.959 131.379  0.00  0.00    +0.021 C 
ATOM      7  C   LIG A   1      -8.578   0.566 131.633  0.00  0.00    +0.009 C 
ATOM      8  C   LIG A   1      -7.589  -0.523 131.252  0.00  0.00    +0.008 C 
ATOM      9  C   LIG A   1      -6.290  -0.488 132.091  0.00  0.00    -0.019 C 
ATOM     10  C   LIG A   1      -6.692  -0.731 133.577  0.00  0.00    +0.012 C 
ATOM     11  C   LIG A   1      -5.270  -1.616 131.570  0.00  0.00    +0.005 C 
ATOM     12  C   LIG A   1      -5.514  -3.189 131.764  0.00  0.00    -0.007 C 
ATOM     13  C   LIG A   1      -6.675  -3.635 132.651  0.00  0.00    +0.008 C 
ATOM     14  C   LIG A   1      -5.443  -4.003 130.442  0.00  0.00    -0.011 C 
ATOM     15  C   LIG A   1      -5.612  -5.521 130.602  0.00  0.00    +0.008 C 
ATOM     16  C   LIG A   1      -4.122  -3.745 129.691  0.00  0.00    +0.004 C 
ATOM     17  C   LIG A   1      -3.516  -2.361 129.921  0.00  0.00    +0.007 C 
ATOM     18  C   LIG A   1      -4.589  -1.277 130.175  0.00  0.00    -0.028 C 
ATOM     19  C   LIG A   1      -5.494  -1.225 128.914  0.00  0.00    +0.011 C 
ATOM     20  C   LIG A   1      -3.889   0.095 130.296  0.00  0.00    +0.008 C 
ATOM     21  C   LIG A   1      -4.854   1.214 130.685  0.00  0.00    +0.012 C 
ATOM     22  C   LIG A   1      -5.606   0.980 132.026  0.00  0.00    -0.005 C 
ATOM     23  C   LIG A   1      -4.528   1.115 133.158  0.00  0.00    +0.016 C 
ATOM     24  C   LIG A   1      -6.657   2.143 132.126  0.00  0.00    -0.063 C 
ATOM     25  C   LIG A   1      -6.382   3.328 132.717  0.00  0.00    -0.026 C 
ATOM     26  C   LIG A   1      -7.236   4.563 132.628  0.00  0.00    +0.032 C 
ATOM     27  C   LIG A   1      -8.284   4.473 131.501  0.00  0.00    +0.009 C 
ATOM     28  C   LIG A   1      -9.139   5.780 131.292  0.00  0.00    +0.006 C 
ATOM     29  C   LIG A   1      -8.191   6.921 130.820  0.00  0.00    +0.015 C 
ATOM     30  C   LIG A   1      -9.832   6.314 132.563  0.00  0.00    +0.015 C 
ENDROOT
BRANCH   1  31
ATOM     31  O   LIG A   1      -9.558   5.510 128.905  0.00  0.00    -0.461 OA
BRANCH  31  33
ATOM     32  C   LIG A   1     -11.054   7.288 128.575  0.00  0.00    +0.136 C 
ATOM     33  C   LIG A   1     -10.021   6.384 127.968  0.00  0.00    +0.304 C 
ATOM     34  O   LIG A   1      -9.748   6.367 126.782  0.00  0.00    -0.251 OA
ENDBRANCH  31  33
ENDBRANCH   1  31
TORSDOF 2
ENDMDL
MODEL 4
REMARK VINA RESULT:      -9.2      3.051      5.388
REMARK  Name = NuBBE_2503
REMARK  11 active torsions:
REMARK  status: ('A' for Active; 'I' for Inactive)
REMARK    1  A    between atoms: C_1  and  C_2
REMARK    2  A    between atoms: C_2  and  O_4
REMARK    3  A    between atoms: O_4  and  C_5
REMARK    4  A    between atoms: C_9  and  C_10
REMARK    5  A    between atoms: C_15  and  C_16
REMARK    6  A    between atoms: C_19  and  C_21
REMARK    7  A    between atoms: C_22  and  C_24
REMARK    8  A    between atoms: C_27  and  C_28
REMARK    9  A    between atoms: C_31  and  C_32
REMARK   10  A    between atoms: C_38  and  C_39
REMARK   11  A    between atoms: C_38  and  C_40
REMARK                            x       y       z     vdW  Elec       q    Type
REMARK                         _______ _______ _______ _____ _____    ______ ____
ROOT
ATOM      1  C   LIG A   1      -6.971  -3.048 124.304  0.00  0.00    +0.182 C 
ATOM      2  C   LIG A   1      -7.598  -2.920 125.694  0.00  0.00    +0.046 C 
ATOM      3  C   LIG A   1      -7.147  -1.657 126.418  0.00  0.00    +0.011 C 
ATOM      4  C   LIG A   1      -7.449  -0.348 125.644  0.00  0.00    -0.022 C 
ATOM      5  C   LIG A   1      -8.968  -0.051 125.729  0.00  0.00    +0.012 C 
ATOM      6  C   LIG A   1      -6.627   0.840 126.312  0.00  0.00    +0.021 C 
ATOM      7  C   LIG A   1      -7.151   1.185 127.713  0.00  0.00    +0.009 C 
ATOM      8  C   LIG A   1      -6.259   2.213 128.389  0.00  0.00    +0.008 C 
ATOM      9  C   LIG A   1      -6.213   3.566 127.641  0.00  0.00    -0.019 C 
ATOM     10  C   LIG A   1      -7.662   4.143 127.639  0.00  0.00    +0.012 C 
ATOM     11  C   LIG A   1      -5.188   4.564 128.375  0.00  0.00    +0.005 C 
ATOM     12  C   LIG A   1      -5.463   5.215 129.815  0.00  0.00    -0.007 C 
ATOM     13  C   LIG A   1      -6.845   5.029 130.439  0.00  0.00    +0.008 C 
ATOM     14  C   LIG A   1      -4.322   4.971 130.841  0.00  0.00    -0.011 C 
ATOM     15  C   LIG A   1      -4.526   5.632 132.212  0.00  0.00    +0.008 C 
ATOM     16  C   LIG A   1      -2.958   5.428 130.288  0.00  0.00    +0.004 C 
ATOM     17  C   LIG A   1      -2.824   5.343 128.768  0.00  0.00    +0.007 C 
ATOM     18  C   LIG A   1      -3.658   4.191 128.161  0.00  0.00    -0.028 C 
ATOM     19  C   LIG A   1      -3.134   2.870 128.784  0.00  0.00    +0.011 C 
ATOM     20  C   LIG A   1      -3.382   4.126 126.642  0.00  0.00    +0.008 C 
ATOM     21  C   LIG A   1      -4.267   3.105 125.928  0.00  0.00    +0.012 C 
ATOM     22  C   LIG A   1      -5.795   3.350 126.091  0.00  0.00    -0.005 C 
ATOM     23  C   LIG A   1      -6.117   4.645 125.267  0.00  0.00    +0.016 C 
ATOM     24  C   LIG A   1      -6.490   2.099 125.443  0.00  0.00    -0.063 C 
ATOM     25  C   LIG A   1      -6.839   2.050 124.138  0.00  0.00    -0.026 C 
ATOM     26  C   LIG A   1      -7.270   0.813 123.398  0.00  0.00    +0.032 C 
ATOM     27  C   LIG A   1      -6.935  -0.479 124.170  0.00  0.00    +0.009 C 
ATOM     28  C   LIG A   1      -7.268  -1.811 123.397  0.00  0.00    +0.006 C 
ATOM     29  C   LIG A   1      -6.359  -1.892 122.135  0.00  0.00    +0.015 C 
ATOM     30  C   LIG A   1      -8.715  -1.915 122.873  0.00  0.00    +0.015 C 
ENDROOT
BRANCH   1  31
ATOM     31  O   LIG A   1      -5.536  -3.204 124.400  0.00  0.00    -0.461 OA
BRANCH  31  33
ATOM     32  C   LIG A   1      -3.664  -4.280 123.480  0.00  0.00    +0.136 C 
ATOM     33  C   LIG A   1      -5.042  -4.427 124.055  0.00  0.00    +0.304 C 
ATOM     34  O   LIG A   1      -5.659  -5.476 124.079  0.00  0.00    -0.251 OA
ENDBRANCH  31  33
ENDBRANCH   1  31
TORSDOF 2
ENDMDL
MODEL 5
REMARK VINA RESULT:      -9.0      3.039      8.397
REMARK  Name = NuBBE_2503
REMARK  11 active torsions:
REMARK  status: ('A' for Active; 'I' for Inactive)
REMARK    1  A    between atoms: C_1  and  C_2
REMARK    2  A    between atoms: C_2  and  O_4
REMARK    3  A    between atoms: O_4  and  C_5
REMARK    4  A    between atoms: C_9  and  C_10
REMARK    5  A    between atoms: C_15  and  C_16
REMARK    6  A    between atoms: C_19  and  C_21
REMARK    7  A    between atoms: C_22  and  C_24
REMARK    8  A    between atoms: C_27  and  C_28
REMARK    9  A    between atoms: C_31  and  C_32
REMARK   10  A    between atoms: C_38  and  C_39
REMARK   11  A    between atoms: C_38  and  C_40
REMARK                            x       y       z     vdW  Elec       q    Type
REMARK                         _______ _______ _______ _____ _____    ______ ____
ROOT
ATOM      1  C   LIG A   1      -8.244   5.562 132.174  0.00  0.00    +0.182 C 
ATOM      2  C   LIG A   1      -8.765   4.152 132.462  0.00  0.00    +0.046 C 
ATOM      3  C   LIG A   1      -8.675   3.242 131.244  0.00  0.00    +0.011 C 
ATOM      4  C   LIG A   1      -7.242   3.105 130.667  0.00  0.00    -0.022 C 
ATOM      5  C   LIG A   1      -6.405   2.202 131.608  0.00  0.00    +0.012 C 
ATOM      6  C   LIG A   1      -7.335   2.442 129.223  0.00  0.00    +0.021 C 
ATOM      7  C   LIG A   1      -7.780   0.974 129.291  0.00  0.00    +0.009 C 
ATOM      8  C   LIG A   1      -8.008   0.410 127.898  0.00  0.00    +0.008 C 
ATOM      9  C   LIG A   1      -6.729   0.395 127.030  0.00  0.00    -0.019 C 
ATOM     10  C   LIG A   1      -5.698  -0.534 127.741  0.00  0.00    +0.012 C 
ATOM     11  C   LIG A   1      -7.075  -0.138 125.553  0.00  0.00    +0.005 C 
ATOM     12  C   LIG A   1      -7.476  -1.657 125.231  0.00  0.00    -0.007 C 
ATOM     13  C   LIG A   1      -7.340  -2.692 126.347  0.00  0.00    +0.008 C 
ATOM     14  C   LIG A   1      -8.817  -1.802 124.460  0.00  0.00    -0.011 C 
ATOM     15  C   LIG A   1      -9.200  -3.240 124.083  0.00  0.00    +0.008 C 
ATOM     16  C   LIG A   1      -8.824  -0.951 123.174  0.00  0.00    +0.004 C 
ATOM     17  C   LIG A   1      -7.962   0.309 123.238  0.00  0.00    +0.007 C 
ATOM     18  C   LIG A   1      -7.880   0.903 124.663  0.00  0.00    -0.028 C 
ATOM     19  C   LIG A   1      -9.328   1.264 125.091  0.00  0.00    +0.011 C 
ATOM     20  C   LIG A   1      -7.074   2.220 124.606  0.00  0.00    +0.008 C 
ATOM     21  C   LIG A   1      -6.821   2.813 125.991  0.00  0.00    +0.012 C 
ATOM     22  C   LIG A   1      -6.061   1.870 126.967  0.00  0.00    -0.005 C 
ATOM     23  C   LIG A   1      -4.595   1.767 126.418  0.00  0.00    +0.016 C 
ATOM     24  C   LIG A   1      -6.078   2.603 128.356  0.00  0.00    -0.063 C 
ATOM     25  C   LIG A   1      -5.106   3.460 128.743  0.00  0.00    -0.026 C 
ATOM     26  C   LIG A   1      -5.180   4.380 129.931  0.00  0.00    +0.032 C 
ATOM     27  C   LIG A   1      -6.616   4.527 130.471  0.00  0.00    +0.009 C 
ATOM     28  C   LIG A   1      -6.773   5.561 131.650  0.00  0.00    +0.006 C 
ATOM     29  C   LIG A   1      -6.438   6.983 131.109  0.00  0.00    +0.015 C 
ATOM     30  C   LIG A   1      -5.821   5.336 132.843  0.00  0.00    +0.015 C 
ENDROOT
BRANCH   1  31
ATOM     31  O   LIG A   1      -9.074   6.225 131.191  0.00  0.00    -0.461 OA
BRANCH  31  33
ATOM     32  C   LIG A   1     -11.207   6.718 130.344  0.00  0.00    +0.136 C 
ATOM     33  C   LIG A   1     -10.363   6.465 131.559  0.00  0.00    +0.304 C 
ATOM     34  O   LIG A   1     -10.766   6.590 132.702  0.00  0.00    -0.251 OA
ENDBRANCH  31  33
ENDBRANCH   1  31
TORSDOF 2
ENDMDL
MODEL 6
REMARK VINA RESULT:      -8.7      2.051      3.789
REMARK  Name = NuBBE_2503
REMARK  11 active torsions:
REMARK  status: ('A' for Active; 'I' for Inactive)
REMARK    1  A    between atoms: C_1  and  C_2
REMARK    2  A    between atoms: C_2  and  O_4
REMARK    3  A    between atoms: O_4  and  C_5
REMARK    4  A    between atoms: C_9  and  C_10
REMARK    5  A    between atoms: C_15  and  C_16
REMARK    6  A    between atoms: C_19  and  C_21
REMARK    7  A    between atoms: C_22  and  C_24
REMARK    8  A    between atoms: C_27  and  C_28
REMARK    9  A    between atoms: C_31  and  C_32
REMARK   10  A    between atoms: C_38  and  C_39
REMARK   11  A    between atoms: C_38  and  C_40
REMARK                            x       y       z     vdW  Elec       q    Type
REMARK                         _______ _______ _______ _____ _____    ______ ____
ROOT
ATOM      1  C   LIG A   1      -8.345  -0.685 125.188  0.00  0.00    +0.182 C 
ATOM      2  C   LIG A   1      -9.379   0.308 125.723  0.00  0.00    +0.046 C 
ATOM      3  C   LIG A   1      -8.926   0.975 127.016  0.00  0.00    +0.011 C 
ATOM      4  C   LIG A   1      -7.574   1.724 126.895  0.00  0.00    -0.022 C 
ATOM      5  C   LIG A   1      -7.795   3.038 126.103  0.00  0.00    +0.012 C 
ATOM      6  C   LIG A   1      -7.044   2.058 128.358  0.00  0.00    +0.021 C 
ATOM      7  C   LIG A   1      -7.915   3.109 129.060  0.00  0.00    +0.009 C 
ATOM      8  C   LIG A   1      -7.482   3.298 130.504  0.00  0.00    +0.008 C 
ATOM      9  C   LIG A   1      -6.035   3.829 130.642  0.00  0.00    -0.019 C 
ATOM     10  C   LIG A   1      -5.990   5.230 129.959  0.00  0.00    +0.012 C 
ATOM     11  C   LIG A   1      -5.631   3.922 132.195  0.00  0.00    +0.005 C 
ATOM     12  C   LIG A   1      -6.264   4.988 133.213  0.00  0.00    -0.007 C 
ATOM     13  C   LIG A   1      -7.154   6.091 132.642  0.00  0.00    +0.008 C 
ATOM     14  C   LIG A   1      -6.873   4.349 134.491  0.00  0.00    -0.011 C 
ATOM     15  C   LIG A   1      -7.434   5.347 135.515  0.00  0.00    +0.008 C 
ATOM     16  C   LIG A   1      -5.853   3.445 135.212  0.00  0.00    +0.004 C 
ATOM     17  C   LIG A   1      -4.817   2.796 134.297  0.00  0.00    +0.007 C 
ATOM     18  C   LIG A   1      -5.368   2.513 132.880  0.00  0.00    -0.028 C 
ATOM     19  C   LIG A   1      -6.571   1.544 133.043  0.00  0.00    +0.011 C 
ATOM     20  C   LIG A   1      -4.285   1.771 132.066  0.00  0.00    +0.008 C 
ATOM     21  C   LIG A   1      -4.686   1.568 130.605  0.00  0.00    +0.012 C 
ATOM     22  C   LIG A   1      -4.998   2.882 129.833  0.00  0.00    -0.005 C 
ATOM     23  C   LIG A   1      -3.625   3.622 129.662  0.00  0.00    +0.016 C 
ATOM     24  C   LIG A   1      -5.555   2.426 128.437  0.00  0.00    -0.063 C 
ATOM     25  C   LIG A   1      -4.759   2.220 127.364  0.00  0.00    -0.026 C 
ATOM     26  C   LIG A   1      -5.179   1.548 126.085  0.00  0.00    +0.032 C 
ATOM     27  C   LIG A   1      -6.510   0.784 126.233  0.00  0.00    +0.009 C 
ATOM     28  C   LIG A   1      -6.948  -0.027 124.955  0.00  0.00    +0.006 C 
ATOM     29  C   LIG A   1      -5.904  -1.154 124.703  0.00  0.00    +0.015 C 
ATOM     30  C   LIG A   1      -6.997   0.794 123.649  0.00  0.00    +0.015 C 
ENDROOT
BRANCH   1  31
ATOM     31  O   LIG A   1      -8.176  -1.793 126.102  0.00  0.00    -0.461 OA
BRANCH  31  33
ATOM     32  C   LIG A   1      -9.029  -3.667 127.230  0.00  0.00    +0.136 C 
ATOM     33  C   LIG A   1      -9.104  -2.788 126.016  0.00  0.00    +0.304 C 
ATOM     34  O   LIG A   1      -9.806  -3.024 125.050  0.00  0.00    -0.251 OA
ENDBRANCH  31  33
ENDBRANCH   1  31
TORSDOF 2
ENDMDL
MODEL 7
REMARK VINA RESULT:      -8.6      2.736      5.399
REMARK  Name = NuBBE_2503
REMARK  11 active torsions:
REMARK  status: ('A' for Active; 'I' for Inactive)
REMARK    1  A    between atoms: C_1  and  C_2
REMARK    2  A    between atoms: C_2  and  O_4
REMARK    3  A    between atoms: O_4  and  C_5
REMARK    4  A    between atoms: C_9  and  C_10
REMARK    5  A    between atoms: C_15  and  C_16
REMARK    6  A    between atoms: C_19  and  C_21
REMARK    7  A    between atoms: C_22  and  C_24
REMARK    8  A    between atoms: C_27  and  C_28
REMARK    9  A    between atoms: C_31  and  C_32
REMARK   10  A    between atoms: C_38  and  C_39
REMARK   11  A    between atoms: C_38  and  C_40
REMARK                            x       y       z     vdW  Elec       q    Type
REMARK                         _______ _______ _______ _____ _____    ______ ____
ROOT
ATOM      1  C   LIG A   1      -8.788   0.957 124.314  0.00  0.00    +0.182 C 
ATOM      2  C   LIG A   1      -9.823   0.783 125.427  0.00  0.00    +0.046 C 
ATOM      3  C   LIG A   1      -9.245   0.080 126.650  0.00  0.00    +0.011 C 
ATOM      4  C   LIG A   1      -8.013   0.795 127.261  0.00  0.00    -0.022 C 
ATOM      5  C   LIG A   1      -8.489   2.065 128.013  0.00  0.00    +0.012 C 
ATOM      6  C   LIG A   1      -7.299  -0.199 128.278  0.00  0.00    +0.021 C 
ATOM      7  C   LIG A   1      -8.154  -0.458 129.526  0.00  0.00    +0.009 C 
ATOM      8  C   LIG A   1      -7.523  -1.524 130.406  0.00  0.00    +0.008 C 
ATOM      9  C   LIG A   1      -6.135  -1.118 130.956  0.00  0.00    -0.019 C 
ATOM     10  C   LIG A   1      -6.341   0.149 131.841  0.00  0.00    +0.012 C 
ATOM     11  C   LIG A   1      -5.506  -2.328 131.805  0.00  0.00    +0.005 C 
ATOM     12  C   LIG A   1      -6.079  -2.807 133.225  0.00  0.00    -0.007 C 
ATOM     13  C   LIG A   1      -7.156  -1.953 133.893  0.00  0.00    +0.008 C 
ATOM     14  C   LIG A   1      -6.413  -4.323 133.288  0.00  0.00    -0.011 C 
ATOM     15  C   LIG A   1      -6.908  -4.825 134.653  0.00  0.00    +0.008 C 
ATOM     16  C   LIG A   1      -5.206  -5.185 132.870  0.00  0.00    +0.004 C 
ATOM     17  C   LIG A   1      -4.263  -4.520 131.868  0.00  0.00    +0.007 C 
ATOM     18  C   LIG A   1      -4.996  -3.544 130.918  0.00  0.00    -0.028 C 
ATOM     19  C   LIG A   1      -6.052  -4.372 130.138  0.00  0.00    +0.011 C 
ATOM     20  C   LIG A   1      -3.982  -3.001 129.887  0.00  0.00    +0.008 C 
ATOM     21  C   LIG A   1      -4.582  -1.921 128.987  0.00  0.00    +0.012 C 
ATOM     22  C   LIG A   1      -5.145  -0.686 129.748  0.00  0.00    -0.005 C 
ATOM     23  C   LIG A   1      -3.899   0.071 130.327  0.00  0.00    +0.016 C 
ATOM     24  C   LIG A   1      -5.862   0.187 128.658  0.00  0.00    -0.063 C 
ATOM     25  C   LIG A   1      -5.225   1.156 127.962  0.00  0.00    -0.026 C 
ATOM     26  C   LIG A   1      -5.768   1.851 126.743  0.00  0.00    +0.032 C 
ATOM     27  C   LIG A   1      -6.974   1.109 126.132  0.00  0.00    +0.009 C 
ATOM     28  C   LIG A   1      -7.519   1.734 124.791  0.00  0.00    +0.006 C 
ATOM     29  C   LIG A   1      -6.417   1.602 123.700  0.00  0.00    +0.015 C 
ATOM     30  C   LIG A   1      -7.855   3.238 124.864  0.00  0.00    +0.015 C 
ENDROOT
BRANCH   1  31
ATOM     31  O   LIG A   1      -8.365  -0.328 123.800  0.00  0.00    -0.461 OA
BRANCH  31  33
ATOM     32  C   LIG A   1      -9.067  -2.503 123.264  0.00  0.00    +0.136 C 
ATOM     33  C   LIG A   1      -9.300  -1.029 123.099  0.00  0.00    +0.304 C 
ATOM     34  O   LIG A   1     -10.127  -0.554 122.342  0.00  0.00    -0.251 OA
ENDBRANCH  31  33
ENDBRANCH   1  31
TORSDOF 2
ENDMDL
MODEL 8
REMARK VINA RESULT:      -8.5      2.834      8.327
REMARK  Name = NuBBE_2503
REMARK  11 active torsions:
REMARK  status: ('A' for Active; 'I' for Inactive)
REMARK    1  A    between atoms: C_1  and  C_2
REMARK    2  A    between atoms: C_2  and  O_4
REMARK    3  A    between atoms: O_4  and  C_5
REMARK    4  A    between atoms: C_9  and  C_10
REMARK    5  A    between atoms: C_15  and  C_16
REMARK    6  A    between atoms: C_19  and  C_21
REMARK    7  A    between atoms: C_22  and  C_24
REMARK    8  A    between atoms: C_27  and  C_28
REMARK    9  A    between atoms: C_31  and  C_32
REMARK   10  A    between atoms: C_38  and  C_39
REMARK   11  A    between atoms: C_38  and  C_40
REMARK                            x       y       z     vdW  Elec       q    Type
REMARK                         _______ _______ _______ _____ _____    ______ ____
ROOT
ATOM      1  C   LIG A   1      -6.563   4.557 131.863  0.00  0.00    +0.182 C 
ATOM      2  C   LIG A   1      -7.982   4.030 131.636  0.00  0.00    +0.046 C 
ATOM      3  C   LIG A   1      -8.043   2.996 130.518  0.00  0.00    +0.011 C 
ATOM      4  C   LIG A   1      -7.118   1.773 130.743  0.00  0.00    -0.022 C 
ATOM      5  C   LIG A   1      -7.738   0.867 131.838  0.00  0.00    +0.012 C 
ATOM      6  C   LIG A   1      -6.999   0.966 129.377  0.00  0.00    +0.021 C 
ATOM      7  C   LIG A   1      -8.321   0.285 128.994  0.00  0.00    +0.009 C 
ATOM      8  C   LIG A   1      -8.226  -0.350 127.616  0.00  0.00    +0.008 C 
ATOM      9  C   LIG A   1      -7.165  -1.472 127.533  0.00  0.00    -0.019 C 
ATOM     10  C   LIG A   1      -7.598  -2.592 128.527  0.00  0.00    +0.012 C 
ATOM     11  C   LIG A   1      -7.074  -2.030 126.028  0.00  0.00    +0.005 C 
ATOM     12  C   LIG A   1      -8.234  -2.889 125.329  0.00  0.00    -0.007 C 
ATOM     13  C   LIG A   1      -9.403  -3.361 126.194  0.00  0.00    +0.008 C 
ATOM     14  C   LIG A   1      -8.712  -2.309 123.970  0.00  0.00    -0.011 C 
ATOM     15  C   LIG A   1      -9.780  -3.140 123.245  0.00  0.00    +0.008 C 
ATOM     16  C   LIG A   1      -7.531  -2.098 123.001  0.00  0.00    +0.004 C 
ATOM     17  C   LIG A   1      -6.195  -1.800 123.678  0.00  0.00    +0.007 C 
ATOM     18  C   LIG A   1      -6.360  -1.038 125.013  0.00  0.00    -0.028 C 
ATOM     19  C   LIG A   1      -7.067   0.306 124.687  0.00  0.00    +0.011 C 
ATOM     20  C   LIG A   1      -4.959  -0.699 125.568  0.00  0.00    +0.008 C 
ATOM     21  C   LIG A   1      -5.016  -0.064 126.957  0.00  0.00    +0.012 C 
ATOM     22  C   LIG A   1      -5.722  -0.935 128.036  0.00  0.00    -0.005 C 
ATOM     23  C   LIG A   1      -4.766  -2.149 128.307  0.00  0.00    +0.016 C 
ATOM     24  C   LIG A   1      -5.825  -0.021 129.310  0.00  0.00    -0.063 C 
ATOM     25  C   LIG A   1      -4.863   0.021 130.259  0.00  0.00    -0.026 C 
ATOM     26  C   LIG A   1      -4.772   1.042 131.360  0.00  0.00    +0.032 C 
ATOM     27  C   LIG A   1      -5.675   2.264 131.104  0.00  0.00    +0.009 C 
ATOM     28  C   LIG A   1      -5.543   3.415 132.173  0.00  0.00    +0.006 C 
ATOM     29  C   LIG A   1      -4.103   4.001 132.092  0.00  0.00    +0.015 C 
ATOM     30  C   LIG A   1      -5.728   2.967 133.637  0.00  0.00    +0.015 C 
ENDROOT
BRANCH   1  31
ATOM     31  O   LIG A   1      -6.093   5.281 130.702  0.00  0.00    -0.461 OA
BRANCH  31  33
ATOM     32  C   LIG A   1      -4.838   7.251 130.937  0.00  0.00    +0.136 C 
ATOM     33  C   LIG A   1      -6.197   6.638 130.760  0.00  0.00    +0.304 C 
ATOM     34  O   LIG A   1      -7.236   7.272 130.798  0.00  0.00    -0.251 OA
ENDBRANCH  31  33
ENDBRANCH   1  31
TORSDOF 2
ENDMDL
MODEL 9
REMARK VINA RESULT:      -8.4      6.213     10.273
REMARK  Name = NuBBE_2503
REMARK  11 active torsions:
REMARK  status: ('A' for Active; 'I' for Inactive)
REMARK    1  A    between atoms: C_1  and  C_2
REMARK    2  A    between atoms: C_2  and  O_4
REMARK    3  A    between atoms: O_4  and  C_5
REMARK    4  A    between atoms: C_9  and  C_10
REMARK    5  A    between atoms: C_15  and  C_16
REMARK    6  A    between atoms: C_19  and  C_21
REMARK    7  A    between atoms: C_22  and  C_24
REMARK    8  A    between atoms: C_27  and  C_28
REMARK    9  A    between atoms: C_31  and  C_32
REMARK   10  A    between atoms: C_38  and  C_39
REMARK   11  A    between atoms: C_38  and  C_40
REMARK                            x       y       z     vdW  Elec       q    Type
REMARK                         _______ _______ _______ _____ _____    ______ ____
ROOT
ATOM      1  C   LIG A   1      -7.070   5.432 131.544  0.00  0.00    +0.182 C 
ATOM      2  C   LIG A   1      -5.993   5.814 130.525  0.00  0.00    +0.046 C 
ATOM      3  C   LIG A   1      -4.989   6.811 131.091  0.00  0.00    +0.011 C 
ATOM      4  C   LIG A   1      -4.269   6.317 132.372  0.00  0.00    -0.022 C 
ATOM      5  C   LIG A   1      -3.226   5.239 131.982  0.00  0.00    +0.012 C 
ATOM      6  C   LIG A   1      -3.537   7.555 133.054  0.00  0.00    +0.021 C 
ATOM      7  C   LIG A   1      -2.355   8.059 132.213  0.00  0.00    +0.009 C 
ATOM      8  C   LIG A   1      -1.770   9.331 132.806  0.00  0.00    +0.008 C 
ATOM      9  C   LIG A   1      -1.187   9.130 134.225  0.00  0.00    -0.019 C 
ATOM     10  C   LIG A   1      -0.025   8.099 134.106  0.00  0.00    +0.012 C 
ATOM     11  C   LIG A   1      -0.666  10.535 134.807  0.00  0.00    +0.005 C 
ATOM     12  C   LIG A   1       0.622  11.306 134.240  0.00  0.00    -0.007 C 
ATOM     13  C   LIG A   1       1.506  10.583 133.224  0.00  0.00    +0.008 C 
ATOM     14  C   LIG A   1       0.340  12.777 133.826  0.00  0.00    -0.011 C 
ATOM     15  C   LIG A   1       1.566  13.561 133.335  0.00  0.00    +0.008 C 
ATOM     16  C   LIG A   1      -0.308  13.572 134.977  0.00  0.00    +0.004 C 
ATOM     17  C   LIG A   1      -1.158  12.735 135.932  0.00  0.00    +0.007 C 
ATOM     18  C   LIG A   1      -1.829  11.530 135.232  0.00  0.00    -0.028 C 
ATOM     19  C   LIG A   1      -2.745  12.102 134.116  0.00  0.00    +0.011 C 
ATOM     20  C   LIG A   1      -2.738  10.808 136.250  0.00  0.00    +0.008 C 
ATOM     21  C   LIG A   1      -3.341   9.520 135.690  0.00  0.00    +0.012 C 
ATOM     22  C   LIG A   1      -2.294   8.475 135.211  0.00  0.00    -0.005 C 
ATOM     23  C   LIG A   1      -1.597   7.933 136.507  0.00  0.00    +0.016 C 
ATOM     24  C   LIG A   1      -3.126   7.337 134.517  0.00  0.00    -0.063 C 
ATOM     25  C   LIG A   1      -3.597   6.262 135.190  0.00  0.00    -0.026 C 
ATOM     26  C   LIG A   1      -4.602   5.276 134.659  0.00  0.00    +0.032 C 
ATOM     27  C   LIG A   1      -5.328   5.796 133.402  0.00  0.00    +0.009 C 
ATOM     28  C   LIG A   1      -6.467   4.850 132.862  0.00  0.00    +0.006 C 
ATOM     29  C   LIG A   1      -7.595   4.773 133.932  0.00  0.00    +0.015 C 
ATOM     30  C   LIG A   1      -6.034   3.391 132.609  0.00  0.00    +0.015 C 
ENDROOT
BRANCH   1  31
ATOM     31  O   LIG A   1      -7.883   6.579 131.886  0.00  0.00    -0.461 OA
BRANCH  31  33
ATOM     32  C   LIG A   1     -10.145   6.074 131.514  0.00  0.00    +0.136 C 
ATOM     33  C   LIG A   1      -8.934   6.836 131.058  0.00  0.00    +0.304 C 
ATOM     34  O   LIG A   1      -8.887   7.478 130.025  0.00  0.00    -0.251 OA
ENDBRANCH  31  33
ENDBRANCH   1  31
TORSDOF 2
ENDMDL
