MODEL 1
REMARK VINA RESULT:      -8.3      0.000      0.000
REMARK  Name = NuBBE_2068
REMARK  2 active torsions:
REMARK  status: ('A' for Active; 'I' for Inactive)
REMARK    1  A    between atoms: C_3  and  C_4
REMARK    2  A    between atoms: C_5  and  O_6
REMARK                            x       y       z     vdW  Elec       q    Type
REMARK                         _______ _______ _______ _____ _____    ______ ____
ROOT
ATOM      1  O   LIG A   1      -9.216   2.719 128.845  0.00  0.00    -0.250 OA
ATOM      2  C   LIG A   1      -8.242   2.375 128.174  0.00  0.00    +0.319 C 
ATOM      3  C   LIG A   1      -7.555   3.098 127.041  0.00  0.00    +0.125 C 
ATOM      4  C   LIG A   1      -6.429   3.843 127.847  0.00  0.00    +0.029 C 
ATOM      5  C   LIG A   1      -8.011   4.037 125.918  0.00  0.00    +0.183 C 
ATOM      6  C   LIG A   1      -6.766   4.317 124.986  0.00  0.00    +0.066 C 
ATOM      7  C   LIG A   1      -6.104   2.974 124.552  0.00  0.00    +0.015 C 
ATOM      8  C   LIG A   1      -7.086   1.823 124.854  0.00  0.00    +0.005 C 
ATOM      9  C   LIG A   1      -8.458   2.356 124.278  0.00  0.00    +0.170 C 
ATOM     10  O   LIG A   1      -8.976   3.446 125.054  0.00  0.00    -0.347 OA
ATOM     11  C   LIG A   1      -6.667   0.399 124.338  0.00  0.00    +0.009 C 
ATOM     12  C   LIG A   1      -7.738  -0.142 123.336  0.00  0.00    +0.009 C 
ATOM     13  C   LIG A   1      -7.441  -1.552 122.870  0.00  0.00    +0.042 C 
ATOM     14  C   LIG A   1      -7.623  -2.346 124.093  0.00  0.00    +0.036 C 
ATOM     15  C   LIG A   1      -7.123  -2.007 125.281  0.00  0.00    +0.108 C 
ATOM     16  O   LIG A   1      -7.599  -2.692 126.395  0.00  0.00    -0.488 OA
ATOM     17  C   LIG A   1      -8.677  -3.528 125.908  0.00  0.00    +0.307 C 
ATOM     18  C   LIG A   1      -8.805  -3.097 124.484  0.00  0.00    +0.199 C 
ATOM     19  O   LIG A   1      -9.786  -3.229 123.769  0.00  0.00    -0.289 OA
ATOM     20  C   LIG A   1      -6.281  -0.741 125.436  0.00  0.00    +0.062 C 
ATOM     21  C   LIG A   1      -6.093  -0.335 126.924  0.00  0.00    +0.056 C 
ATOM     22  C   LIG A   1      -6.521   1.054 127.327  0.00  0.00    +0.182 C 
ATOM     23  O   LIG A   1      -7.475   1.189 128.419  0.00  0.00    -0.461 OA
ATOM     24  C   LIG A   1      -7.335   1.761 126.328  0.00  0.00    +0.060 C 
ENDROOT
BRANCH   5  25
ATOM     25  O   LIG A   1      -8.531   5.248 126.423  0.00  0.00    -0.364 OA
ATOM     26  H   LIG A   1      -7.860   5.940 126.354  0.00  0.00    +0.213 HD
ENDBRANCH   5  25
TORSDOF 1
ENDMDL
MODEL 2
REMARK VINA RESULT:      -8.3      5.866      8.546
REMARK  Name = NuBBE_2068
REMARK  2 active torsions:
REMARK  status: ('A' for Active; 'I' for Inactive)
REMARK    1  A    between atoms: C_3  and  C_4
REMARK    2  A    between atoms: C_5  and  O_6
REMARK                            x       y       z     vdW  Elec       q    Type
REMARK                         _______ _______ _______ _____ _____    ______ ____
ROOT
ATOM      1  O   LIG A   1      -6.118   3.124 128.883  0.00  0.00    -0.250 OA
ATOM      2  C   LIG A   1      -6.620   3.850 129.742  0.00  0.00    +0.319 C 
ATOM      3  C   LIG A   1      -7.265   3.477 131.055  0.00  0.00    +0.125 C 
ATOM      4  C   LIG A   1      -6.023   3.618 132.009  0.00  0.00    +0.029 C 
ATOM      5  C   LIG A   1      -8.096   2.290 131.557  0.00  0.00    +0.183 C 
ATOM      6  C   LIG A   1      -8.570   2.619 133.028  0.00  0.00    +0.066 C 
ATOM      7  C   LIG A   1      -9.251   4.021 133.073  0.00  0.00    +0.015 C 
ATOM      8  C   LIG A   1      -9.576   4.456 131.629  0.00  0.00    +0.005 C 
ATOM      9  C   LIG A   1     -10.248   3.169 131.005  0.00  0.00    +0.170 C 
ATOM     10  O   LIG A   1      -9.303   2.105 130.826  0.00  0.00    -0.347 OA
ATOM     11  C   LIG A   1     -10.414   5.776 131.473  0.00  0.00    +0.009 C 
ATOM     12  C   LIG A   1     -11.757   5.471 130.732  0.00  0.00    +0.009 C 
ATOM     13  C   LIG A   1     -12.573   6.718 130.467  0.00  0.00    +0.042 C 
ATOM     14  C   LIG A   1     -11.751   7.445 129.489  0.00  0.00    +0.036 C 
ATOM     15  C   LIG A   1     -10.436   7.624 129.610  0.00  0.00    +0.108 C 
ATOM     16  O   LIG A   1      -9.747   8.081 128.490  0.00  0.00    -0.488 OA
ATOM     17  C   LIG A   1     -10.715   8.088 127.412  0.00  0.00    +0.307 C 
ATOM     18  C   LIG A   1     -11.911   7.456 128.044  0.00  0.00    +0.199 C 
ATOM     19  O   LIG A   1     -12.837   6.909 127.465  0.00  0.00    -0.289 OA
ATOM     20  C   LIG A   1      -9.688   7.084 130.827  0.00  0.00    +0.062 C 
ATOM     21  C   LIG A   1      -8.148   7.077 130.620  0.00  0.00    +0.056 C 
ATOM     22  C   LIG A   1      -7.427   5.765 130.795  0.00  0.00    +0.182 C 
ATOM     23  O   LIG A   1      -6.602   5.283 129.695  0.00  0.00    -0.461 OA
ATOM     24  C   LIG A   1      -8.302   4.585 130.855  0.00  0.00    +0.060 C 
ENDROOT
BRANCH   5  25
ATOM     25  O   LIG A   1      -7.359   1.085 131.535  0.00  0.00    -0.364 OA
ATOM     26  H   LIG A   1      -6.481   1.252 131.165  0.00  0.00    +0.213 HD
ENDBRANCH   5  25
TORSDOF 1
ENDMDL
MODEL 3
REMARK VINA RESULT:      -8.2      1.867      5.802
REMARK  Name = NuBBE_2068
REMARK  2 active torsions:
REMARK  status: ('A' for Active; 'I' for Inactive)
REMARK    1  A    between atoms: C_3  and  C_4
REMARK    2  A    between atoms: C_5  and  O_6
REMARK                            x       y       z     vdW  Elec       q    Type
REMARK                         _______ _______ _______ _____ _____    ______ ____
ROOT
ATOM      1  O   LIG A   1      -6.673  -2.563 127.453  0.00  0.00    -0.250 OA
ATOM      2  C   LIG A   1      -7.501  -1.925 126.802  0.00  0.00    +0.319 C 
ATOM      3  C   LIG A   1      -8.102  -2.233 125.452  0.00  0.00    +0.125 C 
ATOM      4  C   LIG A   1      -9.404  -2.988 125.908  0.00  0.00    +0.029 C 
ATOM      5  C   LIG A   1      -7.603  -2.914 124.172  0.00  0.00    +0.183 C 
ATOM      6  C   LIG A   1      -8.732  -2.770 123.075  0.00  0.00    +0.066 C 
ATOM      7  C   LIG A   1      -9.175  -1.281 122.950  0.00  0.00    +0.015 C 
ATOM      8  C   LIG A   1      -8.122  -0.395 123.649  0.00  0.00    +0.005 C 
ATOM      9  C   LIG A   1      -6.752  -0.956 123.097  0.00  0.00    +0.170 C 
ATOM     10  O   LIG A   1      -6.469  -2.269 123.602  0.00  0.00    -0.347 OA
ATOM     11  C   LIG A   1      -8.306   1.158 123.492  0.00  0.00    +0.009 C 
ATOM     12  C   LIG A   1      -7.053   1.775 122.789  0.00  0.00    +0.009 C 
ATOM     13  C   LIG A   1      -7.125   3.284 122.689  0.00  0.00    +0.042 C 
ATOM     14  C   LIG A   1      -7.026   3.710 124.091  0.00  0.00    +0.036 C 
ATOM     15  C   LIG A   1      -7.720   3.158 125.087  0.00  0.00    +0.108 C 
ATOM     16  O   LIG A   1      -7.328   3.465 126.387  0.00  0.00    -0.488 OA
ATOM     17  C   LIG A   1      -6.108   4.233 126.256  0.00  0.00    +0.307 C 
ATOM     18  C   LIG A   1      -5.834   4.162 124.789  0.00  0.00    +0.199 C 
ATOM     19  O   LIG A   1      -4.755   4.328 124.241  0.00  0.00    -0.289 OA
ATOM     20  C   LIG A   1      -8.710   2.028 124.810  0.00  0.00    +0.062 C 
ATOM     21  C   LIG A   1      -9.144   1.291 126.106  0.00  0.00    +0.056 C 
ATOM     22  C   LIG A   1      -8.933  -0.201 126.165  0.00  0.00    +0.182 C 
ATOM     23  O   LIG A   1      -8.159  -0.741 127.274  0.00  0.00    -0.461 OA
ATOM     24  C   LIG A   1      -8.072  -0.743 125.103  0.00  0.00    +0.060 C 
ENDROOT
BRANCH   5  25
ATOM     25  O   LIG A   1      -7.295  -4.275 124.386  0.00  0.00    -0.364 OA
ATOM     26  H   LIG A   1      -6.994  -4.398 125.296  0.00  0.00    +0.213 HD
ENDBRANCH   5  25
TORSDOF 1
ENDMDL
MODEL 4
REMARK VINA RESULT:      -7.8      5.803      8.203
REMARK  Name = NuBBE_2068
REMARK  2 active torsions:
REMARK  status: ('A' for Active; 'I' for Inactive)
REMARK    1  A    between atoms: C_3  and  C_4
REMARK    2  A    between atoms: C_5  and  O_6
REMARK                            x       y       z     vdW  Elec       q    Type
REMARK                         _______ _______ _______ _____ _____    ______ ____
ROOT
ATOM      1  O   LIG A   1      -9.368   2.844 129.179  0.00  0.00    -0.250 OA
ATOM      2  C   LIG A   1      -8.607   3.097 130.114  0.00  0.00    +0.319 C 
ATOM      3  C   LIG A   1      -8.817   4.003 131.303  0.00  0.00    +0.125 C 
ATOM      4  C   LIG A   1      -9.356   2.955 132.344  0.00  0.00    +0.029 C 
ATOM      5  C   LIG A   1      -9.570   5.317 131.546  0.00  0.00    +0.183 C 
ATOM      6  C   LIG A   1      -9.249   5.793 133.018  0.00  0.00    +0.066 C 
ATOM      7  C   LIG A   1      -7.708   5.813 133.254  0.00  0.00    +0.015 C 
ATOM      8  C   LIG A   1      -7.000   5.732 131.886  0.00  0.00    +0.005 C 
ATOM      9  C   LIG A   1      -7.772   6.801 131.014  0.00  0.00    +0.170 C 
ATOM     10  O   LIG A   1      -9.113   6.383 130.720  0.00  0.00    -0.347 OA
ATOM     11  C   LIG A   1      -5.438   5.902 131.900  0.00  0.00    +0.009 C 
ATOM     12  C   LIG A   1      -5.028   7.139 131.036  0.00  0.00    +0.009 C 
ATOM     13  C   LIG A   1      -3.527   7.306 130.932  0.00  0.00    +0.042 C 
ATOM     14  C   LIG A   1      -3.121   6.134 130.144  0.00  0.00    +0.036 C 
ATOM     15  C   LIG A   1      -3.555   4.895 130.375  0.00  0.00    +0.108 C 
ATOM     16  O   LIG A   1      -3.314   3.939 129.393  0.00  0.00    -0.488 OA
ATOM     17  C   LIG A   1      -2.748   4.663 128.273  0.00  0.00    +0.307 C 
ATOM     18  C   LIG A   1      -2.864   6.085 128.714  0.00  0.00    +0.199 C 
ATOM     19  O   LIG A   1      -2.871   7.072 127.994  0.00  0.00    -0.289 OA
ATOM     20  C   LIG A   1      -4.514   4.612 131.530  0.00  0.00    +0.062 C 
ATOM     21  C   LIG A   1      -5.172   3.209 131.422  0.00  0.00    +0.056 C 
ATOM     22  C   LIG A   1      -6.678   3.143 131.419  0.00  0.00    +0.182 C 
ATOM     23  O   LIG A   1      -7.334   2.466 130.309  0.00  0.00    -0.461 OA
ATOM     24  C   LIG A   1      -7.351   4.436 131.226  0.00  0.00    +0.060 C 
ENDROOT
BRANCH   5  25
ATOM     25  O   LIG A   1     -10.962   5.166 131.369  0.00  0.00    -0.364 OA
ATOM     26  H   LIG A   1     -11.135   4.757 130.510  0.00  0.00    +0.213 HD
ENDBRANCH   5  25
TORSDOF 1
ENDMDL
MODEL 5
REMARK VINA RESULT:      -7.7      2.005      6.094
REMARK  Name = NuBBE_2068
REMARK  2 active torsions:
REMARK  status: ('A' for Active; 'I' for Inactive)
REMARK    1  A    between atoms: C_3  and  C_4
REMARK    2  A    between atoms: C_5  and  O_6
REMARK                            x       y       z     vdW  Elec       q    Type
REMARK                         _______ _______ _______ _____ _____    ______ ____
ROOT
ATOM      1  O   LIG A   1      -6.192  -1.880 122.189  0.00  0.00    -0.250 OA
ATOM      2  C   LIG A   1      -6.288  -1.948 123.415  0.00  0.00    +0.319 C 
ATOM      3  C   LIG A   1      -7.425  -2.471 124.260  0.00  0.00    +0.125 C 
ATOM      4  C   LIG A   1      -6.945  -3.955 124.460  0.00  0.00    +0.029 C 
ATOM      5  C   LIG A   1      -8.953  -2.498 124.127  0.00  0.00    +0.183 C 
ATOM      6  C   LIG A   1      -9.544  -3.089 125.468  0.00  0.00    +0.066 C 
ATOM      7  C   LIG A   1      -8.960  -2.327 126.696  0.00  0.00    +0.015 C 
ATOM      8  C   LIG A   1      -8.303  -1.022 126.199  0.00  0.00    +0.005 C 
ATOM      9  C   LIG A   1      -9.390  -0.419 125.223  0.00  0.00    +0.170 C 
ATOM     10  O   LIG A   1      -9.527  -1.200 124.026  0.00  0.00    -0.347 OA
ATOM     11  C   LIG A   1      -7.796  -0.032 127.309  0.00  0.00    +0.009 C 
ATOM     12  C   LIG A   1      -8.533   1.340 127.176  0.00  0.00    +0.009 C 
ATOM     13  C   LIG A   1      -8.024   2.373 128.160  0.00  0.00    +0.042 C 
ATOM     14  C   LIG A   1      -6.654   2.625 127.690  0.00  0.00    +0.036 C 
ATOM     15  C   LIG A   1      -5.794   1.663 127.357  0.00  0.00    +0.108 C 
ATOM     16  O   LIG A   1      -4.643   2.044 126.672  0.00  0.00    -0.488 OA
ATOM     17  C   LIG A   1      -4.809   3.453 126.383  0.00  0.00    +0.307 C 
ATOM     18  C   LIG A   1      -6.204   3.718 126.845  0.00  0.00    +0.199 C 
ATOM     19  O   LIG A   1      -6.927   4.635 126.488  0.00  0.00    -0.289 OA
ATOM     20  C   LIG A   1      -6.190   0.192 127.472  0.00  0.00    +0.062 C 
ATOM     21  C   LIG A   1      -5.208  -0.746 126.719  0.00  0.00    +0.056 C 
ATOM     22  C   LIG A   1      -5.786  -1.665 125.672  0.00  0.00    +0.182 C 
ATOM     23  O   LIG A   1      -5.235  -1.605 124.325  0.00  0.00    -0.461 OA
ATOM     24  C   LIG A   1      -7.170  -1.360 125.281  0.00  0.00    +0.060 C 
ENDROOT
BRANCH   5  25
ATOM     25  O   LIG A   1      -9.371  -3.270 123.022  0.00  0.00    -0.364 OA
ATOM     26  H   LIG A   1     -10.337  -3.301 122.998  0.00  0.00    +0.213 HD
ENDBRANCH   5  25
TORSDOF 1
ENDMDL
MODEL 6
REMARK VINA RESULT:      -7.7      2.056      3.539
REMARK  Name = NuBBE_2068
REMARK  2 active torsions:
REMARK  status: ('A' for Active; 'I' for Inactive)
REMARK    1  A    between atoms: C_3  and  C_4
REMARK    2  A    between atoms: C_5  and  O_6
REMARK                            x       y       z     vdW  Elec       q    Type
REMARK                         _______ _______ _______ _____ _____    ______ ____
ROOT
ATOM      1  O   LIG A   1      -6.014   3.447 122.799  0.00  0.00    -0.250 OA
ATOM      2  C   LIG A   1      -6.745   3.131 123.740  0.00  0.00    +0.319 C 
ATOM      3  C   LIG A   1      -6.506   3.263 125.224  0.00  0.00    +0.125 C 
ATOM      4  C   LIG A   1      -7.189   4.657 125.480  0.00  0.00    +0.029 C 
ATOM      5  C   LIG A   1      -5.277   3.181 126.138  0.00  0.00    +0.183 C 
ATOM      6  C   LIG A   1      -5.778   3.279 127.634  0.00  0.00    +0.066 C 
ATOM      7  C   LIG A   1      -6.913   2.243 127.891  0.00  0.00    +0.015 C 
ATOM      8  C   LIG A   1      -6.915   1.219 126.736  0.00  0.00    +0.005 C 
ATOM      9  C   LIG A   1      -5.388   0.837 126.589  0.00  0.00    +0.170 C 
ATOM     10  O   LIG A   1      -4.612   1.925 126.067  0.00  0.00    -0.347 OA
ATOM     11  C   LIG A   1      -7.886  -0.007 126.894  0.00  0.00    +0.009 C 
ATOM     12  C   LIG A   1      -7.068  -1.339 126.886  0.00  0.00    +0.009 C 
ATOM     13  C   LIG A   1      -7.953  -2.567 126.943  0.00  0.00    +0.042 C 
ATOM     14  C   LIG A   1      -8.645  -2.532 125.647  0.00  0.00    +0.036 C 
ATOM     15  C   LIG A   1      -9.200  -1.436 125.129  0.00  0.00    +0.108 C 
ATOM     16  O   LIG A   1      -9.571  -1.479 123.789  0.00  0.00    -0.488 OA
ATOM     17  C   LIG A   1      -9.076  -2.744 123.287  0.00  0.00    +0.307 C 
ATOM     18  C   LIG A   1      -8.294  -3.270 124.445  0.00  0.00    +0.199 C 
ATOM     19  O   LIG A   1      -7.400  -4.102 124.403  0.00  0.00    -0.289 OA
ATOM     20  C   LIG A   1      -9.168  -0.114 125.895  0.00  0.00    +0.062 C 
ATOM     21  C   LIG A   1      -9.539   1.098 124.997  0.00  0.00    +0.056 C 
ATOM     22  C   LIG A   1      -8.546   2.230 124.908  0.00  0.00    +0.182 C 
ATOM     23  O   LIG A   1      -8.081   2.633 123.589  0.00  0.00    -0.461 OA
ATOM     24  C   LIG A   1      -7.215   1.925 125.452  0.00  0.00    +0.060 C 
ENDROOT
BRANCH   5  25
ATOM     25  O   LIG A   1      -4.347   4.207 125.861  0.00  0.00    -0.364 OA
ATOM     26  H   LIG A   1      -3.843   4.409 126.661  0.00  0.00    +0.213 HD
ENDBRANCH   5  25
TORSDOF 1
ENDMDL
MODEL 7
REMARK VINA RESULT:      -7.5      4.469      7.184
REMARK  Name = NuBBE_2068
REMARK  2 active torsions:
REMARK  status: ('A' for Active; 'I' for Inactive)
REMARK    1  A    between atoms: C_3  and  C_4
REMARK    2  A    between atoms: C_5  and  O_6
REMARK                            x       y       z     vdW  Elec       q    Type
REMARK                         _______ _______ _______ _____ _____    ______ ____
ROOT
ATOM      1  O   LIG A   1     -10.975   4.157 130.178  0.00  0.00    -0.250 OA
ATOM      2  C   LIG A   1      -9.982   3.444 130.327  0.00  0.00    +0.319 C 
ATOM      3  C   LIG A   1      -9.228   3.103 131.590  0.00  0.00    +0.125 C 
ATOM      4  C   LIG A   1      -9.949   1.760 131.976  0.00  0.00    +0.029 C 
ATOM      5  C   LIG A   1      -8.907   3.842 132.895  0.00  0.00    +0.183 C 
ATOM      6  C   LIG A   1      -7.939   2.925 133.745  0.00  0.00    +0.066 C 
ATOM      7  C   LIG A   1      -6.726   2.474 132.877  0.00  0.00    +0.015 C 
ATOM      8  C   LIG A   1      -6.666   3.360 131.616  0.00  0.00    +0.005 C 
ATOM      9  C   LIG A   1      -6.843   4.822 132.191  0.00  0.00    +0.170 C 
ATOM     10  O   LIG A   1      -8.170   5.042 132.690  0.00  0.00    -0.347 OA
ATOM     11  C   LIG A   1      -5.411   3.168 130.689  0.00  0.00    +0.009 C 
ATOM     12  C   LIG A   1      -4.616   4.510 130.582  0.00  0.00    +0.009 C 
ATOM     13  C   LIG A   1      -3.444   4.418 129.628  0.00  0.00    +0.042 C 
ATOM     14  C   LIG A   1      -4.096   4.252 128.322  0.00  0.00    +0.036 C 
ATOM     15  C   LIG A   1      -5.100   3.406 128.094  0.00  0.00    +0.108 C 
ATOM     16  O   LIG A   1      -5.800   3.550 126.900  0.00  0.00    -0.488 OA
ATOM     17  C   LIG A   1      -5.280   4.754 126.286  0.00  0.00    +0.307 C 
ATOM     18  C   LIG A   1      -4.366   5.288 127.338  0.00  0.00    +0.199 C 
ATOM     19  O   LIG A   1      -3.987   6.443 127.455  0.00  0.00    -0.289 OA
ATOM     20  C   LIG A   1      -5.630   2.511 129.214  0.00  0.00    +0.062 C 
ATOM     21  C   LIG A   1      -7.000   1.870 128.860  0.00  0.00    +0.056 C 
ATOM     22  C   LIG A   1      -8.147   2.106 129.810  0.00  0.00    +0.182 C 
ATOM     23  O   LIG A   1      -9.374   2.681 129.276  0.00  0.00    -0.461 OA
ATOM     24  C   LIG A   1      -7.911   3.157 130.811  0.00  0.00    +0.060 C 
ENDROOT
BRANCH   5  25
ATOM     25  O   LIG A   1     -10.074   4.141 133.631  0.00  0.00    -0.364 OA
ATOM     26  H   LIG A   1     -10.703   3.412 133.546  0.00  0.00    +0.213 HD
ENDBRANCH   5  25
TORSDOF 1
ENDMDL
MODEL 8
REMARK VINA RESULT:      -7.4      6.677      9.080
REMARK  Name = NuBBE_2068
REMARK  2 active torsions:
REMARK  status: ('A' for Active; 'I' for Inactive)
REMARK    1  A    between atoms: C_3  and  C_4
REMARK    2  A    between atoms: C_5  and  O_6
REMARK                            x       y       z     vdW  Elec       q    Type
REMARK                         _______ _______ _______ _____ _____    ______ ____
ROOT
ATOM      1  O   LIG A   1      -3.245   5.269 129.269  0.00  0.00    -0.250 OA
ATOM      2  C   LIG A   1      -3.951   5.833 130.106  0.00  0.00    +0.319 C 
ATOM      3  C   LIG A   1      -3.657   6.145 131.553  0.00  0.00    +0.125 C 
ATOM      4  C   LIG A   1      -3.093   7.606 131.401  0.00  0.00    +0.029 C 
ATOM      5  C   LIG A   1      -2.859   5.461 132.671  0.00  0.00    +0.183 C 
ATOM      6  C   LIG A   1      -3.092   6.280 134.002  0.00  0.00    +0.066 C 
ATOM      7  C   LIG A   1      -4.618   6.481 134.251  0.00  0.00    +0.015 C 
ATOM      8  C   LIG A   1      -5.397   5.508 133.341  0.00  0.00    +0.005 C 
ATOM      9  C   LIG A   1      -4.643   4.135 133.550  0.00  0.00    +0.170 C 
ATOM     10  O   LIG A   1      -3.330   4.152 132.971  0.00  0.00    -0.347 OA
ATOM     11  C   LIG A   1      -6.951   5.443 133.562  0.00  0.00    +0.009 C 
ATOM     12  C   LIG A   1      -7.373   3.992 133.965  0.00  0.00    +0.009 C 
ATOM     13  C   LIG A   1      -8.873   3.838 134.104  0.00  0.00    +0.042 C 
ATOM     14  C   LIG A   1      -9.348   4.007 132.724  0.00  0.00    +0.036 C 
ATOM     15  C   LIG A   1      -8.935   4.977 131.909  0.00  0.00    +0.108 C 
ATOM     16  O   LIG A   1      -9.251   4.856 130.559  0.00  0.00    -0.488 OA
ATOM     17  C   LIG A   1      -9.853   3.547 130.415  0.00  0.00    +0.307 C 
ATOM     18  C   LIG A   1      -9.679   2.957 131.775  0.00  0.00    +0.199 C 
ATOM     19  O   LIG A   1      -9.682   1.769 132.060  0.00  0.00    -0.289 OA
ATOM     20  C   LIG A   1      -7.926   6.019 132.390  0.00  0.00    +0.062 C 
ATOM     21  C   LIG A   1      -7.311   6.832 131.218  0.00  0.00    +0.056 C 
ATOM     22  C   LIG A   1      -5.808   6.839 131.087  0.00  0.00    +0.182 C 
ATOM     23  O   LIG A   1      -5.228   6.419 129.819  0.00  0.00    -0.461 OA
ATOM     24  C   LIG A   1      -5.114   5.839 131.910  0.00  0.00    +0.060 C 
ENDROOT
BRANCH   5  25
ATOM     25  O   LIG A   1      -1.482   5.394 132.368  0.00  0.00    -0.364 OA
ATOM     26  H   LIG A   1      -1.177   6.259 132.062  0.00  0.00    +0.213 HD
ENDBRANCH   5  25
TORSDOF 1
ENDMDL
MODEL 9
REMARK VINA RESULT:      -7.3      3.033      5.809
REMARK  Name = NuBBE_2068
REMARK  2 active torsions:
REMARK  status: ('A' for Active; 'I' for Inactive)
REMARK    1  A    between atoms: C_3  and  C_4
REMARK    2  A    between atoms: C_5  and  O_6
REMARK                            x       y       z     vdW  Elec       q    Type
REMARK                         _______ _______ _______ _____ _____    ______ ____
ROOT
ATOM      1  O   LIG A   1      -6.167  -3.664 123.637  0.00  0.00    -0.250 OA
ATOM      2  C   LIG A   1      -7.018  -3.275 124.438  0.00  0.00    +0.319 C 
ATOM      3  C   LIG A   1      -7.703  -1.933 124.532  0.00  0.00    +0.125 C 
ATOM      4  C   LIG A   1      -8.991  -2.232 123.680  0.00  0.00    +0.029 C 
ATOM      5  C   LIG A   1      -7.293  -0.483 124.246  0.00  0.00    +0.183 C 
ATOM      6  C   LIG A   1      -8.481   0.455 124.702  0.00  0.00    +0.066 C 
ATOM      7  C   LIG A   1      -8.901   0.120 126.165  0.00  0.00    +0.015 C 
ATOM      8  C   LIG A   1      -7.792  -0.738 126.811  0.00  0.00    +0.005 C 
ATOM      9  C   LIG A   1      -6.467   0.036 126.428  0.00  0.00    +0.170 C 
ATOM     10  O   LIG A   1      -6.182  -0.053 125.025  0.00  0.00    -0.347 OA
ATOM     11  C   LIG A   1      -7.953  -1.044 128.343  0.00  0.00    +0.009 C 
ATOM     12  C   LIG A   1      -6.732  -0.471 129.134  0.00  0.00    +0.009 C 
ATOM     13  C   LIG A   1      -6.780  -0.813 130.608  0.00  0.00    +0.042 C 
ATOM     14  C   LIG A   1      -6.591  -2.270 130.612  0.00  0.00    +0.036 C 
ATOM     15  C   LIG A   1      -7.236  -3.106 129.799  0.00  0.00    +0.108 C 
ATOM     16  O   LIG A   1      -6.762  -4.412 129.719  0.00  0.00    -0.488 OA
ATOM     17  C   LIG A   1      -5.537  -4.432 130.490  0.00  0.00    +0.307 C 
ATOM     18  C   LIG A   1      -5.351  -2.993 130.842  0.00  0.00    +0.199 C 
ATOM     19  O   LIG A   1      -4.303  -2.450 131.156  0.00  0.00    -0.289 OA
ATOM     20  C   LIG A   1      -8.262  -2.578 128.798  0.00  0.00    +0.062 C 
ATOM     21  C   LIG A   1      -8.635  -3.633 127.721  0.00  0.00    +0.056 C 
ATOM     22  C   LIG A   1      -8.450  -3.249 126.275  0.00  0.00    +0.182 C 
ATOM     23  O   LIG A   1      -7.624  -4.106 125.437  0.00  0.00    -0.461 OA
ATOM     24  C   LIG A   1      -7.664  -2.025 126.059  0.00  0.00    +0.060 C 
ENDROOT
BRANCH   5  25
ATOM     25  O   LIG A   1      -7.000  -0.278 122.880  0.00  0.00    -0.364 OA
ATOM     26  H   LIG A   1      -7.662  -0.728 122.338  0.00  0.00    +0.213 HD
ENDBRANCH   5  25
TORSDOF 1
ENDMDL
