MODEL 1
REMARK VINA RESULT:      -8.7      0.000      0.000
REMARK  Name = NuBBE_590
REMARK  3 active torsions:
REMARK  status: ('A' for Active; 'I' for Inactive)
REMARK    1  A    between atoms: C_1  and  C_2
REMARK    2  A    between atoms: C_4  and  C_19
REMARK    3  A    between atoms: C_13  and  C_15
REMARK                            x       y       z     vdW  Elec       q    Type
REMARK                         _______ _______ _______ _____ _____    ______ ____
ROOT
ATOM      1  C   LIG A   1      -7.788   3.346 126.280  0.00  0.00    +0.009 C 
ATOM      2  C   LIG A   1      -6.830   3.245 125.082  0.00  0.00    +0.001 C 
ATOM      3  C   LIG A   1      -7.640   3.272 123.740  0.00  0.00    +0.056 C 
ATOM      4  C   LIG A   1      -6.858   3.759 122.528  0.00  0.00    +0.009 A 
ATOM      5  C   LIG A   1      -7.459   3.870 121.278  0.00  0.00    +0.170 A 
ATOM      6  C   LIG A   1      -6.770   4.286 120.160  0.00  0.00    +0.167 A 
ATOM      7  C   LIG A   1      -5.440   4.635 120.214  0.00  0.00    +0.050 A 
ATOM      8  C   LIG A   1      -4.808   4.572 121.456  0.00  0.00    +0.008 A 
ATOM      9  C   LIG A   1      -5.511   4.163 122.615  0.00  0.00    -0.040 A 
ATOM     10  C   LIG A   1      -4.788   4.149 123.934  0.00  0.00    +0.039 C 
ATOM     11  C   LIG A   1      -5.751   4.353 125.113  0.00  0.00    -0.006 C 
ATOM     12  C   LIG A   1      -4.947   4.375 126.417  0.00  0.00    +0.008 C 
ATOM     13  O   LIG A   1      -7.543   4.312 119.042  0.00  0.00    -0.453 OA
ATOM     14  C   LIG A   1      -8.800   3.850 119.573  0.00  0.00    +0.466 C 
ATOM     15  O   LIG A   1      -8.766   3.607 120.991  0.00  0.00    -0.452 OA
ENDROOT
BRANCH   3  16
ATOM     16  C   LIG A   1      -8.281   1.899 123.504  0.00  0.00    -0.036 A 
ATOM     17  C   LIG A   1      -7.487   0.738 123.548  0.00  0.00    +0.053 A 
ATOM     18  C   LIG A   1      -8.098  -0.479 123.330  0.00  0.00    +0.167 A 
ATOM     19  C   LIG A   1      -9.444  -0.581 123.078  0.00  0.00    +0.166 A 
ATOM     20  C   LIG A   1     -10.259   0.527 123.029  0.00  0.00    +0.050 A 
ATOM     21  C   LIG A   1      -9.669   1.777 123.245  0.00  0.00    +0.008 A 
ATOM     22  O   LIG A   1      -9.843  -1.868 122.892  0.00  0.00    -0.453 OA
ATOM     23  C   LIG A   1      -8.590  -2.564 123.060  0.00  0.00    +0.466 C 
ATOM     24  O   LIG A   1      -7.477  -1.690 123.337  0.00  0.00    -0.453 OA
ENDBRANCH   3  16
TORSDOF 1
ENDMDL
MODEL 2
REMARK VINA RESULT:      -8.1      3.969      7.068
REMARK  Name = NuBBE_590
REMARK  3 active torsions:
REMARK  status: ('A' for Active; 'I' for Inactive)
REMARK    1  A    between atoms: C_1  and  C_2
REMARK    2  A    between atoms: C_4  and  C_19
REMARK    3  A    between atoms: C_13  and  C_15
REMARK                            x       y       z     vdW  Elec       q    Type
REMARK                         _______ _______ _______ _____ _____    ______ ____
ROOT
ATOM      1  C   LIG A   1      -5.296  -1.342 129.302  0.00  0.00    +0.009 C 
ATOM      2  C   LIG A   1      -6.591  -1.563 128.503  0.00  0.00    +0.001 C 
ATOM      3  C   LIG A   1      -6.334  -1.308 126.978  0.00  0.00    +0.056 C 
ATOM      4  C   LIG A   1      -7.292  -2.024 126.037  0.00  0.00    +0.009 A 
ATOM      5  C   LIG A   1      -7.161  -1.919 124.655  0.00  0.00    +0.170 A 
ATOM      6  C   LIG A   1      -8.028  -2.537 123.781  0.00  0.00    +0.167 A 
ATOM      7  C   LIG A   1      -9.074  -3.314 124.222  0.00  0.00    +0.050 A 
ATOM      8  C   LIG A   1      -9.220  -3.476 125.600  0.00  0.00    +0.008 A 
ATOM      9  C   LIG A   1      -8.325  -2.860 126.507  0.00  0.00    -0.040 A 
ATOM     10  C   LIG A   1      -8.509  -3.098 127.982  0.00  0.00    +0.039 C 
ATOM     11  C   LIG A   1      -7.184  -2.971 128.748  0.00  0.00    -0.006 C 
ATOM     12  C   LIG A   1      -7.434  -3.270 130.230  0.00  0.00    +0.008 C 
ATOM     13  O   LIG A   1      -7.725  -2.294 122.478  0.00  0.00    -0.453 OA
ATOM     14  C   LIG A   1      -6.576  -1.438 122.623  0.00  0.00    +0.466 C 
ATOM     15  O   LIG A   1      -6.190  -1.229 123.993  0.00  0.00    -0.452 OA
ENDROOT
BRANCH   3  16
ATOM     16  C   LIG A   1      -6.282   0.202 126.716  0.00  0.00    -0.036 A 
ATOM     17  C   LIG A   1      -7.456   0.971 126.815  0.00  0.00    +0.053 A 
ATOM     18  C   LIG A   1      -7.371   2.326 126.572  0.00  0.00    +0.167 A 
ATOM     19  C   LIG A   1      -6.184   2.932 126.242  0.00  0.00    +0.166 A 
ATOM     20  C   LIG A   1      -5.010   2.219 126.137  0.00  0.00    +0.050 A 
ATOM     21  C   LIG A   1      -5.063   0.842 126.377  0.00  0.00    +0.008 A 
ATOM     22  O   LIG A   1      -6.319   4.270 126.043  0.00  0.00    -0.453 OA
ATOM     23  C   LIG A   1      -7.732   4.437 126.290  0.00  0.00    +0.466 C 
ATOM     24  O   LIG A   1      -8.407   3.207 126.624  0.00  0.00    -0.453 OA
ENDBRANCH   3  16
TORSDOF 1
ENDMDL
MODEL 3
REMARK VINA RESULT:      -8.1      2.350      5.503
REMARK  Name = NuBBE_590
REMARK  3 active torsions:
REMARK  status: ('A' for Active; 'I' for Inactive)
REMARK    1  A    between atoms: C_1  and  C_2
REMARK    2  A    between atoms: C_4  and  C_19
REMARK    3  A    between atoms: C_13  and  C_15
REMARK                            x       y       z     vdW  Elec       q    Type
REMARK                         _______ _______ _______ _____ _____    ______ ____
ROOT
ATOM      1  C   LIG A   1      -8.028  -1.009 123.078  0.00  0.00    +0.009 C 
ATOM      2  C   LIG A   1      -6.995  -0.181 123.860  0.00  0.00    +0.001 C 
ATOM      3  C   LIG A   1      -7.599   1.214 124.241  0.00  0.00    +0.056 C 
ATOM      4  C   LIG A   1      -6.968   1.876 125.458  0.00  0.00    +0.009 A 
ATOM      5  C   LIG A   1      -7.427   3.101 125.933  0.00  0.00    +0.170 A 
ATOM      6  C   LIG A   1      -6.860   3.733 127.018  0.00  0.00    +0.167 A 
ATOM      7  C   LIG A   1      -5.807   3.182 127.712  0.00  0.00    +0.050 A 
ATOM      8  C   LIG A   1      -5.339   1.937 127.290  0.00  0.00    +0.008 A 
ATOM      9  C   LIG A   1      -5.925   1.271 126.188  0.00  0.00    -0.040 A 
ATOM     10  C   LIG A   1      -5.404  -0.087 125.800  0.00  0.00    +0.039 C 
ATOM     11  C   LIG A   1      -6.482  -0.935 125.110  0.00  0.00    -0.006 C 
ATOM     12  C   LIG A   1      -5.900  -2.314 124.785  0.00  0.00    +0.008 C 
ATOM     13  O   LIG A   1      -7.453   4.922 127.306  0.00  0.00    -0.453 OA
ATOM     14  C   LIG A   1      -8.453   4.981 126.271  0.00  0.00    +0.466 C 
ATOM     15  O   LIG A   1      -8.469   3.818 125.425  0.00  0.00    -0.452 OA
ENDROOT
BRANCH   3  16
ATOM     16  C   LIG A   1      -7.585   2.129 123.010  0.00  0.00    -0.036 A 
ATOM     17  C   LIG A   1      -6.360   2.587 122.492  0.00  0.00    +0.053 A 
ATOM     18  C   LIG A   1      -6.387   3.409 121.384  0.00  0.00    +0.167 A 
ATOM     19  C   LIG A   1      -7.565   3.781 120.784  0.00  0.00    +0.166 A 
ATOM     20  C   LIG A   1      -8.786   3.353 121.255  0.00  0.00    +0.050 A 
ATOM     21  C   LIG A   1      -8.792   2.519 122.378  0.00  0.00    +0.008 A 
ATOM     22  O   LIG A   1      -7.368   4.591 119.709  0.00  0.00    -0.453 OA
ATOM     23  C   LIG A   1      -5.928   4.683 119.702  0.00  0.00    +0.466 C 
ATOM     24  O   LIG A   1      -5.297   3.937 120.763  0.00  0.00    -0.453 OA
ENDBRANCH   3  16
TORSDOF 1
ENDMDL
MODEL 4
REMARK VINA RESULT:      -7.7      5.157      8.099
REMARK  Name = NuBBE_590
REMARK  3 active torsions:
REMARK  status: ('A' for Active; 'I' for Inactive)
REMARK    1  A    between atoms: C_1  and  C_2
REMARK    2  A    between atoms: C_4  and  C_19
REMARK    3  A    between atoms: C_13  and  C_15
REMARK                            x       y       z     vdW  Elec       q    Type
REMARK                         _______ _______ _______ _____ _____    ______ ____
ROOT
ATOM      1  C   LIG A   1      -4.565  -1.166 130.119  0.00  0.00    +0.009 C 
ATOM      2  C   LIG A   1      -5.970  -1.675 129.758  0.00  0.00    +0.001 C 
ATOM      3  C   LIG A   1      -6.491  -0.954 128.468  0.00  0.00    +0.056 C 
ATOM      4  C   LIG A   1      -7.541  -1.726 127.680  0.00  0.00    +0.009 A 
ATOM      5  C   LIG A   1      -8.067  -1.224 126.494  0.00  0.00    +0.170 A 
ATOM      6  C   LIG A   1      -9.034  -1.890 125.773  0.00  0.00    +0.167 A 
ATOM      7  C   LIG A   1      -9.531  -3.108 126.177  0.00  0.00    +0.050 A 
ATOM      8  C   LIG A   1      -9.004  -3.664 127.343  0.00  0.00    +0.008 A 
ATOM      9  C   LIG A   1      -7.998  -2.997 128.082  0.00  0.00    -0.040 A 
ATOM     10  C   LIG A   1      -7.441  -3.661 129.312  0.00  0.00    +0.039 C 
ATOM     11  C   LIG A   1      -6.000  -3.214 129.597  0.00  0.00    -0.006 C 
ATOM     12  C   LIG A   1      -5.480  -3.959 130.830  0.00  0.00    +0.008 C 
ATOM     13  O   LIG A   1      -9.415  -1.219 124.654  0.00  0.00    -0.453 OA
ATOM     14  C   LIG A   1      -8.591  -0.041 124.753  0.00  0.00    +0.466 C 
ATOM     15  O   LIG A   1      -7.709  -0.056 125.890  0.00  0.00    -0.452 OA
ENDROOT
BRANCH   3  16
ATOM     16  C   LIG A   1      -6.960   0.461 128.830  0.00  0.00    -0.036 A 
ATOM     17  C   LIG A   1      -8.074   0.636 129.671  0.00  0.00    +0.053 A 
ATOM     18  C   LIG A   1      -8.468   1.923 129.974  0.00  0.00    +0.167 A 
ATOM     19  C   LIG A   1      -7.804   3.020 129.481  0.00  0.00    +0.166 A 
ATOM     20  C   LIG A   1      -6.708   2.895 128.657  0.00  0.00    +0.050 A 
ATOM     21  C   LIG A   1      -6.284   1.602 128.331  0.00  0.00    +0.008 A 
ATOM     22  O   LIG A   1      -8.353   4.192 129.900  0.00  0.00    -0.453 OA
ATOM     23  C   LIG A   1      -9.438   3.703 130.716  0.00  0.00    +0.466 C 
ATOM     24  O   LIG A   1      -9.519   2.264 130.767  0.00  0.00    -0.453 OA
ENDBRANCH   3  16
TORSDOF 1
ENDMDL
MODEL 5
REMARK VINA RESULT:      -7.6      4.345      8.255
REMARK  Name = NuBBE_590
REMARK  3 active torsions:
REMARK  status: ('A' for Active; 'I' for Inactive)
REMARK    1  A    between atoms: C_1  and  C_2
REMARK    2  A    between atoms: C_4  and  C_19
REMARK    3  A    between atoms: C_13  and  C_15
REMARK                            x       y       z     vdW  Elec       q    Type
REMARK                         _______ _______ _______ _____ _____    ______ ____
ROOT
ATOM      1  C   LIG A   1      -9.124  -0.198 123.984  0.00  0.00    +0.009 C 
ATOM      2  C   LIG A   1      -8.412  -1.138 124.972  0.00  0.00    +0.001 C 
ATOM      3  C   LIG A   1      -8.251  -0.435 126.364  0.00  0.00    +0.056 C 
ATOM      4  C   LIG A   1      -8.121  -1.382 127.549  0.00  0.00    +0.009 A 
ATOM      5  C   LIG A   1      -8.007  -0.899 128.849  0.00  0.00    +0.170 A 
ATOM      6  C   LIG A   1      -7.865  -1.732 129.938  0.00  0.00    +0.167 A 
ATOM      7  C   LIG A   1      -7.842  -3.101 129.807  0.00  0.00    +0.050 A 
ATOM      8  C   LIG A   1      -7.990  -3.628 128.523  0.00  0.00    +0.008 A 
ATOM      9  C   LIG A   1      -8.153  -2.783 127.400  0.00  0.00    -0.040 A 
ATOM     10  C   LIG A   1      -8.344  -3.407 126.044  0.00  0.00    +0.039 C 
ATOM     11  C   LIG A   1      -9.145  -2.494 125.105  0.00  0.00    -0.006 C 
ATOM     12  C   LIG A   1      -9.341  -3.207 123.763  0.00  0.00    +0.008 C 
ATOM     13  O   LIG A   1      -7.760  -1.054 131.111  0.00  0.00    -0.453 OA
ATOM     14  C   LIG A   1      -7.836   0.307 130.644  0.00  0.00    +0.466 C 
ATOM     15  O   LIG A   1      -8.032   0.412 129.222  0.00  0.00    -0.452 OA
ENDROOT
BRANCH   3  16
ATOM     16  C   LIG A   1      -7.096   0.572 126.295  0.00  0.00    -0.036 A 
ATOM     17  C   LIG A   1      -7.365   1.951 126.355  0.00  0.00    +0.053 A 
ATOM     18  C   LIG A   1      -6.301   2.827 126.290  0.00  0.00    +0.167 A 
ATOM     19  C   LIG A   1      -5.005   2.387 126.170  0.00  0.00    +0.166 A 
ATOM     20  C   LIG A   1      -4.696   1.047 126.111  0.00  0.00    +0.050 A 
ATOM     21  C   LIG A   1      -5.753   0.134 126.175  0.00  0.00    +0.008 A 
ATOM     22  O   LIG A   1      -4.111   3.411 126.123  0.00  0.00    -0.453 OA
ATOM     23  C   LIG A   1      -4.996   4.546 126.229  0.00  0.00    +0.466 C 
ATOM     24  O   LIG A   1      -6.388   4.184 126.333  0.00  0.00    -0.453 OA
ENDBRANCH   3  16
TORSDOF 1
ENDMDL
MODEL 6
REMARK VINA RESULT:      -7.6      5.293      8.222
REMARK  Name = NuBBE_590
REMARK  3 active torsions:
REMARK  status: ('A' for Active; 'I' for Inactive)
REMARK    1  A    between atoms: C_1  and  C_2
REMARK    2  A    between atoms: C_4  and  C_19
REMARK    3  A    between atoms: C_13  and  C_15
REMARK                            x       y       z     vdW  Elec       q    Type
REMARK                         _______ _______ _______ _____ _____    ______ ____
ROOT
ATOM      1  C   LIG A   1      -4.703  -1.203 130.476  0.00  0.00    +0.009 C 
ATOM      2  C   LIG A   1      -6.064  -1.761 130.026  0.00  0.00    +0.001 C 
ATOM      3  C   LIG A   1      -6.601  -0.946 128.799  0.00  0.00    +0.056 C 
ATOM      4  C   LIG A   1      -7.579  -1.699 127.908  0.00  0.00    +0.009 A 
ATOM      5  C   LIG A   1      -8.110  -1.113 126.763  0.00  0.00    +0.170 A 
ATOM      6  C   LIG A   1      -9.015  -1.762 125.951  0.00  0.00    +0.167 A 
ATOM      7  C   LIG A   1      -9.440  -3.043 126.216  0.00  0.00    +0.050 A 
ATOM      8  C   LIG A   1      -8.904  -3.681 127.335  0.00  0.00    +0.008 A 
ATOM      9  C   LIG A   1      -7.962  -3.030 128.167  0.00  0.00    -0.040 A 
ATOM     10  C   LIG A   1      -7.390  -3.779 129.340  0.00  0.00    +0.039 C 
ATOM     11  C   LIG A   1      -5.989  -3.273 129.710  0.00  0.00    -0.006 C 
ATOM     12  C   LIG A   1      -5.449  -4.106 130.878  0.00  0.00    +0.008 C 
ATOM     13  O   LIG A   1      -9.413  -1.006 124.894  0.00  0.00    -0.453 OA
ATOM     14  C   LIG A   1      -8.671   0.205 125.134  0.00  0.00    +0.466 C 
ATOM     15  O   LIG A   1      -7.816   0.131 126.289  0.00  0.00    -0.452 OA
ENDROOT
BRANCH   3  16
ATOM     16  C   LIG A   1      -7.170   0.392 129.287  0.00  0.00    -0.036 A 
ATOM     17  C   LIG A   1      -6.614   1.599 128.826  0.00  0.00    +0.053 A 
ATOM     18  C   LIG A   1      -7.152   2.783 129.287  0.00  0.00    +0.167 A 
ATOM     19  C   LIG A   1      -8.203   2.808 130.170  0.00  0.00    +0.166 A 
ATOM     20  C   LIG A   1      -8.780   1.651 130.644  0.00  0.00    +0.050 A 
ATOM     21  C   LIG A   1      -8.257   0.434 130.195  0.00  0.00    +0.008 A 
ATOM     22  O   LIG A   1      -8.579   4.074 130.496  0.00  0.00    -0.453 OA
ATOM     23  C   LIG A   1      -7.643   4.843 129.713  0.00  0.00    +0.466 C 
ATOM     24  O   LIG A   1      -6.732   4.031 128.944  0.00  0.00    -0.453 OA
ENDBRANCH   3  16
TORSDOF 1
ENDMDL
MODEL 7
REMARK VINA RESULT:      -7.3      4.865      6.936
REMARK  Name = NuBBE_590
REMARK  3 active torsions:
REMARK  status: ('A' for Active; 'I' for Inactive)
REMARK    1  A    between atoms: C_1  and  C_2
REMARK    2  A    between atoms: C_4  and  C_19
REMARK    3  A    between atoms: C_13  and  C_15
REMARK                            x       y       z     vdW  Elec       q    Type
REMARK                         _______ _______ _______ _____ _____    ______ ____
ROOT
ATOM      1  C   LIG A   1      -5.240  -3.285 124.564  0.00  0.00    +0.009 C 
ATOM      2  C   LIG A   1      -6.165  -2.072 124.757  0.00  0.00    +0.001 C 
ATOM      3  C   LIG A   1      -5.663  -1.196 125.956  0.00  0.00    +0.056 C 
ATOM      4  C   LIG A   1      -6.083   0.267 125.902  0.00  0.00    +0.009 A 
ATOM      5  C   LIG A   1      -5.680   1.170 126.881  0.00  0.00    +0.170 A 
ATOM      6  C   LIG A   1      -6.064   2.493 126.869  0.00  0.00    +0.167 A 
ATOM      7  C   LIG A   1      -6.862   3.010 125.875  0.00  0.00    +0.050 A 
ATOM      8  C   LIG A   1      -7.260   2.146 124.854  0.00  0.00    +0.008 A 
ATOM      9  C   LIG A   1      -6.857   0.789 124.846  0.00  0.00    -0.040 A 
ATOM     10  C   LIG A   1      -7.285  -0.088 123.701  0.00  0.00    +0.039 C 
ATOM     11  C   LIG A   1      -6.294  -1.236 123.461  0.00  0.00    -0.006 C 
ATOM     12  C   LIG A   1      -6.764  -2.059 122.258  0.00  0.00    +0.008 C 
ATOM     13  O   LIG A   1      -5.568   3.196 127.922  0.00  0.00    -0.453 OA
ATOM     14  C   LIG A   1      -4.837   2.165 128.614  0.00  0.00    +0.466 C 
ATOM     15  O   LIG A   1      -4.870   0.893 127.942  0.00  0.00    -0.452 OA
ENDROOT
BRANCH   3  16
ATOM     16  C   LIG A   1      -6.060  -1.866 127.277  0.00  0.00    -0.036 A 
ATOM     17  C   LIG A   1      -5.069  -2.426 128.103  0.00  0.00    +0.053 A 
ATOM     18  C   LIG A   1      -5.463  -3.021 129.284  0.00  0.00    +0.167 A 
ATOM     19  C   LIG A   1      -6.782  -3.076 129.664  0.00  0.00    +0.166 A 
ATOM     20  C   LIG A   1      -7.784  -2.538 128.888  0.00  0.00    +0.050 A 
ATOM     21  C   LIG A   1      -7.416  -1.927 127.685  0.00  0.00    +0.008 A 
ATOM     22  O   LIG A   1      -6.953  -3.704 130.858  0.00  0.00    -0.453 OA
ATOM     23  C   LIG A   1      -5.588  -4.036 131.186  0.00  0.00    +0.466 C 
ATOM     24  O   LIG A   1      -4.636  -3.608 130.190  0.00  0.00    -0.453 OA
ENDBRANCH   3  16
TORSDOF 1
ENDMDL
MODEL 8
REMARK VINA RESULT:      -7.3      4.275      6.707
REMARK  Name = NuBBE_590
REMARK  3 active torsions:
REMARK  status: ('A' for Active; 'I' for Inactive)
REMARK    1  A    between atoms: C_1  and  C_2
REMARK    2  A    between atoms: C_4  and  C_19
REMARK    3  A    between atoms: C_13  and  C_15
REMARK                            x       y       z     vdW  Elec       q    Type
REMARK                         _______ _______ _______ _____ _____    ______ ____
ROOT
ATOM      1  C   LIG A   1      -7.173  -3.903 124.602  0.00  0.00    +0.009 C 
ATOM      2  C   LIG A   1      -7.794  -2.512 124.813  0.00  0.00    +0.001 C 
ATOM      3  C   LIG A   1      -6.719  -1.520 125.375  0.00  0.00    +0.056 C 
ATOM      4  C   LIG A   1      -6.989  -0.050 125.088  0.00  0.00    +0.009 A 
ATOM      5  C   LIG A   1      -6.100   0.941 125.496  0.00  0.00    +0.170 A 
ATOM      6  C   LIG A   1      -6.331   2.280 125.270  0.00  0.00    +0.167 A 
ATOM      7  C   LIG A   1      -7.453   2.723 124.609  0.00  0.00    +0.050 A 
ATOM      8  C   LIG A   1      -8.353   1.760 124.151  0.00  0.00    +0.008 A 
ATOM      9  C   LIG A   1      -8.118   0.380 124.362  0.00  0.00    -0.040 A 
ATOM     10  C   LIG A   1      -9.104  -0.616 123.815  0.00  0.00    +0.039 C 
ATOM     11  C   LIG A   1      -8.441  -1.968 123.516  0.00  0.00    -0.006 C 
ATOM     12  C   LIG A   1      -9.486  -2.916 122.921  0.00  0.00    +0.008 C 
ATOM     13  O   LIG A   1      -5.343   3.076 125.759  0.00  0.00    -0.453 OA
ATOM     14  C   LIG A   1      -4.465   2.090 126.337  0.00  0.00    +0.466 C 
ATOM     15  O   LIG A   1      -4.916   0.739 126.140  0.00  0.00    -0.452 OA
ENDROOT
BRANCH   3  16
ATOM     16  C   LIG A   1      -6.509  -1.791 126.870  0.00  0.00    -0.036 A 
ATOM     17  C   LIG A   1      -7.542  -1.514 127.784  0.00  0.00    +0.053 A 
ATOM     18  C   LIG A   1      -7.317  -1.770 129.121  0.00  0.00    +0.167 A 
ATOM     19  C   LIG A   1      -6.125  -2.283 129.571  0.00  0.00    +0.166 A 
ATOM     20  C   LIG A   1      -5.089  -2.572 128.712  0.00  0.00    +0.050 A 
ATOM     21  C   LIG A   1      -5.286  -2.323 127.350  0.00  0.00    +0.008 A 
ATOM     22  O   LIG A   1      -6.111  -2.459 130.920  0.00  0.00    -0.453 OA
ATOM     23  C   LIG A   1      -7.434  -1.999 131.265  0.00  0.00    +0.466 C 
ATOM     24  O   LIG A   1      -8.206  -1.558 130.129  0.00  0.00    -0.453 OA
ENDBRANCH   3  16
TORSDOF 1
ENDMDL
MODEL 9
REMARK VINA RESULT:      -7.2      2.177      3.250
REMARK  Name = NuBBE_590
REMARK  3 active torsions:
REMARK  status: ('A' for Active; 'I' for Inactive)
REMARK    1  A    between atoms: C_1  and  C_2
REMARK    2  A    between atoms: C_4  and  C_19
REMARK    3  A    between atoms: C_13  and  C_15
REMARK                            x       y       z     vdW  Elec       q    Type
REMARK                         _______ _______ _______ _____ _____    ______ ____
ROOT
ATOM      1  C   LIG A   1      -6.841   1.116 128.888  0.00  0.00    +0.009 C 
ATOM      2  C   LIG A   1      -6.015   1.574 127.674  0.00  0.00    +0.001 C 
ATOM      3  C   LIG A   1      -6.915   1.608 126.392  0.00  0.00    +0.056 C 
ATOM      4  C   LIG A   1      -6.440   2.556 125.300  0.00  0.00    +0.009 A 
ATOM      5  C   LIG A   1      -7.160   2.717 124.119  0.00  0.00    +0.170 A 
ATOM      6  C   LIG A   1      -6.742   3.550 123.105  0.00  0.00    +0.167 A 
ATOM      7  C   LIG A   1      -5.587   4.292 123.204  0.00  0.00    +0.050 A 
ATOM      8  C   LIG A   1      -4.854   4.188 124.386  0.00  0.00    +0.008 A 
ATOM      9  C   LIG A   1      -5.283   3.348 125.441  0.00  0.00    -0.040 A 
ATOM     10  C   LIG A   1      -4.472   3.303 126.708  0.00  0.00    +0.039 C 
ATOM     11  C   LIG A   1      -5.336   2.941 127.925  0.00  0.00    -0.006 C 
ATOM     12  C   LIG A   1      -4.461   2.958 129.182  0.00  0.00    +0.008 C 
ATOM     13  O   LIG A   1      -7.586   3.550 122.040  0.00  0.00    -0.453 OA
ATOM     14  C   LIG A   1      -8.581   2.608 122.485  0.00  0.00    +0.466 C 
ATOM     15  O   LIG A   1      -8.341   2.109 123.812  0.00  0.00    -0.452 OA
ENDROOT
BRANCH   3  16
ATOM     16  C   LIG A   1      -7.116   0.179 125.873  0.00  0.00    -0.036 A 
ATOM     17  C   LIG A   1      -8.396  -0.405 125.907  0.00  0.00    +0.053 A 
ATOM     18  C   LIG A   1      -8.538  -1.693 125.433  0.00  0.00    +0.167 A 
ATOM     19  C   LIG A   1      -7.475  -2.405 124.934  0.00  0.00    +0.166 A 
ATOM     20  C   LIG A   1      -6.207  -1.871 124.879  0.00  0.00    +0.050 A 
ATOM     21  C   LIG A   1      -6.030  -0.567 125.352  0.00  0.00    +0.008 A 
ATOM     22  O   LIG A   1      -7.831  -3.650 124.520  0.00  0.00    -0.453 OA
ATOM     23  C   LIG A   1      -9.244  -3.638 124.815  0.00  0.00    +0.466 C 
ATOM     24  O   LIG A   1      -9.700  -2.400 125.396  0.00  0.00    -0.453 OA
ENDBRANCH   3  16
TORSDOF 1
ENDMDL
