MODEL 1
REMARK VINA RESULT:      -8.2      0.000      0.000
REMARK  Name = NuBBE_1762
REMARK  8 active torsions:
REMARK  status: ('A' for Active; 'I' for Inactive)
REMARK    1  A    between atoms: C_1  and  O_2
REMARK    2  A    between atoms: O_2  and  C_3
REMARK    3  A    between atoms: C_4  and  C_6
REMARK    4  A    between atoms: C_15  and  C_17
REMARK    5  A    between atoms: C_18  and  C_19
REMARK    6  A    between atoms: C_19  and  C_20
REMARK    7  A    between atoms: C_24  and  O_26
REMARK    8  A    between atoms: C_28  and  O_30
REMARK                            x       y       z     vdW  Elec       q    Type
REMARK                         _______ _______ _______ _____ _____    ______ ____
ROOT
ATOM      1  C   LIG A   1      -7.476   0.091 125.704  0.00  0.00    +0.135 C 
ATOM      2  C   LIG A   1      -7.488   0.393 124.164  0.00  0.00    +0.060 C 
ATOM      3  C   LIG A   1      -6.820  -0.865 123.522  0.00  0.00    +0.006 C 
ATOM      4  C   LIG A   1      -7.734  -1.491 122.461  0.00  0.00    +0.009 C 
ATOM      5  C   LIG A   1      -6.379  -1.805 124.705  0.00  0.00    +0.013 C 
ATOM      6  C   LIG A   1      -7.455  -2.830 125.111  0.00  0.00    +0.087 C 
ATOM      7  C   LIG A   1      -8.750  -2.162 125.511  0.00  0.00    +0.165 C 
ATOM      8  C   LIG A   1      -8.713  -0.765 126.138  0.00  0.00    +0.215 C 
ATOM      9  O   LIG A   1      -9.830  -2.770 125.418  0.00  0.00    -0.294 OA
ATOM     10  C   LIG A   1      -6.253  -0.843 125.909  0.00  0.00    +0.157 C 
ENDROOT
BRANCH   2  11
ATOM     11  C   LIG A   1      -6.842   1.679 123.634  0.00  0.00    -0.037 A 
ATOM     12  C   LIG A   1      -6.329   2.678 124.494  0.00  0.00    +0.008 A 
ATOM     13  C   LIG A   1      -5.742   3.850 124.010  0.00  0.00    +0.050 A 
ATOM     14  C   LIG A   1      -5.655   4.005 122.650  0.00  0.00    +0.166 A 
ATOM     15  O   LIG A   1      -5.107   5.070 122.010  0.00  0.00    -0.453 OA
ATOM     16  C   LIG A   1      -5.288   4.676 120.636  0.00  0.00    +0.466 C 
ATOM     17  O   LIG A   1      -5.930   3.390 120.486  0.00  0.00    -0.453 OA
ATOM     18  C   LIG A   1      -6.124   3.044 121.788  0.00  0.00    +0.167 A 
ATOM     19  C   LIG A   1      -6.713   1.878 122.243  0.00  0.00    +0.053 A 
ENDBRANCH   2  11
BRANCH   1  21
ATOM     20  C   LIG A   1      -7.585   1.032 127.948  0.00  0.00    +0.195 C 
ATOM     21  O   LIG A   1      -7.287   1.228 126.569  0.00  0.00    -0.370 OA
ENDBRANCH   1  21
BRANCH   8  22
ATOM     22  O   LIG A   1      -9.958  -0.133 125.818  0.00  0.00    -0.381 OA
ATOM     23  H   LIG A   1      -9.931   0.747 126.250  0.00  0.00    +0.210 HD
ENDBRANCH   8  22
BRANCH  10  24
ATOM     24  O   LIG A   1      -5.019  -0.149 125.952  0.00  0.00    -0.388 OA
ATOM     25  H   LIG A   1      -4.374  -0.783 126.328  0.00  0.00    +0.210 HD
ENDBRANCH  10  24
BRANCH   5  26
ATOM     26  C   LIG A   1      -5.034  -2.518 124.384  0.00  0.00    +0.037 C 
BRANCH  26  27
ATOM     27  C   LIG A   1      -5.167  -3.937 123.896  0.00  0.00    -0.034 C 
ATOM     28  C   LIG A   1      -4.155  -4.711 123.488  0.00  0.00    +0.004 C 
ENDBRANCH  26  27
ENDBRANCH   5  26
TORSDOF 6
ENDMDL
MODEL 2
REMARK VINA RESULT:      -8.0      3.293      4.149
REMARK  Name = NuBBE_1762
REMARK  8 active torsions:
REMARK  status: ('A' for Active; 'I' for Inactive)
REMARK    1  A    between atoms: C_1  and  O_2
REMARK    2  A    between atoms: O_2  and  C_3
REMARK    3  A    between atoms: C_4  and  C_6
REMARK    4  A    between atoms: C_15  and  C_17
REMARK    5  A    between atoms: C_18  and  C_19
REMARK    6  A    between atoms: C_19  and  C_20
REMARK    7  A    between atoms: C_24  and  O_26
REMARK    8  A    between atoms: C_28  and  O_30
REMARK                            x       y       z     vdW  Elec       q    Type
REMARK                         _______ _______ _______ _____ _____    ______ ____
ROOT
ATOM      1  C   LIG A   1      -8.002  -2.117 126.519  0.00  0.00    +0.135 C 
ATOM      2  C   LIG A   1      -8.020  -0.689 125.868  0.00  0.00    +0.060 C 
ATOM      3  C   LIG A   1      -7.077  -0.820 124.629  0.00  0.00    +0.006 C 
ATOM      4  C   LIG A   1      -7.798  -0.397 123.343  0.00  0.00    +0.009 C 
ATOM      5  C   LIG A   1      -6.490  -2.280 124.651  0.00  0.00    +0.013 C 
ATOM      6  C   LIG A   1      -7.338  -3.297 123.863  0.00  0.00    +0.087 C 
ATOM      7  C   LIG A   1      -8.759  -3.364 124.372  0.00  0.00    +0.165 C 
ATOM      8  C   LIG A   1      -9.043  -3.075 125.849  0.00  0.00    +0.215 C 
ATOM      9  O   LIG A   1      -9.681  -3.735 123.626  0.00  0.00    -0.294 OA
ATOM     10  C   LIG A   1      -6.616  -2.703 126.133  0.00  0.00    +0.157 C 
ENDROOT
BRANCH   2  11
ATOM     11  C   LIG A   1      -7.644   0.537 126.708  0.00  0.00    -0.037 A 
ATOM     12  C   LIG A   1      -6.326   1.050 126.751  0.00  0.00    +0.008 A 
ATOM     13  C   LIG A   1      -5.984   2.166 127.518  0.00  0.00    +0.050 A 
ATOM     14  C   LIG A   1      -6.982   2.781 128.230  0.00  0.00    +0.166 A 
ATOM     15  O   LIG A   1      -6.832   3.879 129.014  0.00  0.00    -0.453 OA
ATOM     16  C   LIG A   1      -8.184   4.062 129.477  0.00  0.00    +0.466 C 
ATOM     17  O   LIG A   1      -9.108   3.080 128.958  0.00  0.00    -0.453 OA
ATOM     18  C   LIG A   1      -8.276   2.322 128.192  0.00  0.00    +0.167 A 
ATOM     19  C   LIG A   1      -8.639   1.216 127.444  0.00  0.00    +0.053 A 
ENDBRANCH   2  11
BRANCH   1  21
ATOM     20  C   LIG A   1      -8.347  -3.430 128.541  0.00  0.00    +0.195 C 
ATOM     21  O   LIG A   1      -8.090  -2.157 127.956  0.00  0.00    -0.370 OA
ENDBRANCH   1  21
BRANCH   8  22
ATOM     22  O   LIG A   1     -10.382  -2.570 125.924  0.00  0.00    -0.381 OA
ATOM     23  H   LIG A   1     -10.411  -2.007 126.727  0.00  0.00    +0.210 HD
ENDBRANCH   8  22
BRANCH  10  24
ATOM     24  O   LIG A   1      -5.561  -2.226 126.949  0.00  0.00    -0.388 OA
ATOM     25  H   LIG A   1      -5.993  -1.726 127.672  0.00  0.00    +0.210 HD
ENDBRANCH  10  24
BRANCH   5  26
ATOM     26  C   LIG A   1      -5.014  -2.299 124.162  0.00  0.00    +0.037 C 
BRANCH  26  27
ATOM     27  C   LIG A   1      -4.660  -3.448 123.254  0.00  0.00    -0.034 C 
ATOM     28  C   LIG A   1      -4.021  -4.562 123.632  0.00  0.00    +0.004 C 
ENDBRANCH  26  27
ENDBRANCH   5  26
TORSDOF 6
ENDMDL
MODEL 3
REMARK VINA RESULT:      -7.8      8.219     10.425
REMARK  Name = NuBBE_1762
REMARK  8 active torsions:
REMARK  status: ('A' for Active; 'I' for Inactive)
REMARK    1  A    between atoms: C_1  and  O_2
REMARK    2  A    between atoms: O_2  and  C_3
REMARK    3  A    between atoms: C_4  and  C_6
REMARK    4  A    between atoms: C_15  and  C_17
REMARK    5  A    between atoms: C_18  and  C_19
REMARK    6  A    between atoms: C_19  and  C_20
REMARK    7  A    between atoms: C_24  and  O_26
REMARK    8  A    between atoms: C_28  and  O_30
REMARK                            x       y       z     vdW  Elec       q    Type
REMARK                         _______ _______ _______ _____ _____    ______ ____
ROOT
ATOM      1  C   LIG A   1      -8.665   3.399 132.055  0.00  0.00    +0.135 C 
ATOM      2  C   LIG A   1      -8.631   4.875 131.520  0.00  0.00    +0.060 C 
ATOM      3  C   LIG A   1      -7.904   5.674 132.648  0.00  0.00    +0.006 C 
ATOM      4  C   LIG A   1      -6.692   6.431 132.090  0.00  0.00    +0.009 C 
ATOM      5  C   LIG A   1      -7.616   4.661 133.817  0.00  0.00    +0.013 C 
ATOM      6  C   LIG A   1      -6.248   3.963 133.704  0.00  0.00    +0.087 C 
ATOM      7  C   LIG A   1      -6.099   3.215 132.399  0.00  0.00    +0.165 C 
ATOM      8  C   LIG A   1      -7.343   2.630 131.724  0.00  0.00    +0.215 C 
ATOM      9  O   LIG A   1      -4.974   2.997 131.920  0.00  0.00    -0.294 OA
ATOM     10  C   LIG A   1      -8.664   3.545 133.601  0.00  0.00    +0.157 C 
ENDROOT
BRANCH   2  11
ATOM     11  C   LIG A   1      -9.937   5.571 131.118  0.00  0.00    -0.037 A 
ATOM     12  C   LIG A   1     -10.762   6.233 132.057  0.00  0.00    +0.008 A 
ATOM     13  C   LIG A   1     -11.953   6.865 131.691  0.00  0.00    +0.050 A 
ATOM     14  C   LIG A   1     -12.302   6.847 130.365  0.00  0.00    +0.166 A 
ATOM     15  O   LIG A   1     -13.412   7.419 129.832  0.00  0.00    -0.453 OA
ATOM     16  C   LIG A   1     -13.239   7.090 128.440  0.00  0.00    +0.466 C 
ATOM     17  O   LIG A   1     -12.035   6.339 128.172  0.00  0.00    -0.453 OA
ATOM     18  C   LIG A   1     -11.512   6.232 129.424  0.00  0.00    +0.167 A 
ATOM     19  C   LIG A   1     -10.332   5.595 129.764  0.00  0.00    +0.053 A 
ENDBRANCH   2  11
BRANCH   1  21
ATOM     20  C   LIG A   1      -9.745   1.221 131.911  0.00  0.00    +0.195 C 
ATOM     21  O   LIG A   1      -9.831   2.628 131.705  0.00  0.00    -0.370 OA
ENDBRANCH   1  21
BRANCH   8  22
ATOM     22  O   LIG A   1      -7.069   2.587 130.317  0.00  0.00    -0.381 OA
ATOM     23  H   LIG A   1      -6.092   2.616 130.234  0.00  0.00    +0.210 HD
ENDBRANCH   8  22
BRANCH  10  24
ATOM     24  O   LIG A   1      -9.939   3.856 134.134  0.00  0.00    -0.388 OA
ATOM     25  H   LIG A   1      -9.839   3.792 135.107  0.00  0.00    +0.210 HD
ENDBRANCH  10  24
BRANCH   5  26
ATOM     26  C   LIG A   1      -7.771   5.346 135.205  0.00  0.00    +0.037 C 
BRANCH  26  27
ATOM     27  C   LIG A   1      -6.510   5.407 136.028  0.00  0.00    -0.034 C 
ATOM     28  C   LIG A   1      -5.823   6.521 136.305  0.00  0.00    +0.004 C 
ENDBRANCH  26  27
ENDBRANCH   5  26
TORSDOF 6
ENDMDL
MODEL 4
REMARK VINA RESULT:      -7.7      2.763      3.283
REMARK  Name = NuBBE_1762
REMARK  8 active torsions:
REMARK  status: ('A' for Active; 'I' for Inactive)
REMARK    1  A    between atoms: C_1  and  O_2
REMARK    2  A    between atoms: O_2  and  C_3
REMARK    3  A    between atoms: C_4  and  C_6
REMARK    4  A    between atoms: C_15  and  C_17
REMARK    5  A    between atoms: C_18  and  C_19
REMARK    6  A    between atoms: C_19  and  C_20
REMARK    7  A    between atoms: C_24  and  O_26
REMARK    8  A    between atoms: C_28  and  O_30
REMARK                            x       y       z     vdW  Elec       q    Type
REMARK                         _______ _______ _______ _____ _____    ______ ____
ROOT
ATOM      1  C   LIG A   1      -7.613  -1.405 126.367  0.00  0.00    +0.135 C 
ATOM      2  C   LIG A   1      -7.235  -0.125 125.539  0.00  0.00    +0.060 C 
ATOM      3  C   LIG A   1      -6.401  -0.677 124.339  0.00  0.00    +0.006 C 
ATOM      4  C   LIG A   1      -7.002  -0.228 123.001  0.00  0.00    +0.009 C 
ATOM      5  C   LIG A   1      -6.260  -2.230 124.554  0.00  0.00    +0.013 C 
ATOM      6  C   LIG A   1      -7.385  -3.048 123.891  0.00  0.00    +0.087 C 
ATOM      7  C   LIG A   1      -8.752  -2.637 124.387  0.00  0.00    +0.165 C 
ATOM      8  C   LIG A   1      -8.902  -2.096 125.812  0.00  0.00    +0.215 C 
ATOM      9  O   LIG A   1      -9.760  -2.816 123.683  0.00  0.00    -0.294 OA
ATOM     10  C   LIG A   1      -6.465  -2.409 126.076  0.00  0.00    +0.157 C 
ENDROOT
BRANCH   2  11
ATOM     11  C   LIG A   1      -6.500   1.035 126.222  0.00  0.00    -0.037 A 
ATOM     12  C   LIG A   1      -7.162   1.960 127.063  0.00  0.00    +0.008 A 
ATOM     13  C   LIG A   1      -6.491   3.018 127.683  0.00  0.00    +0.050 A 
ATOM     14  C   LIG A   1      -5.141   3.130 127.469  0.00  0.00    +0.166 A 
ATOM     15  O   LIG A   1      -4.334   4.084 127.999  0.00  0.00    -0.453 OA
ATOM     16  C   LIG A   1      -3.063   3.695 127.444  0.00  0.00    +0.466 C 
ATOM     17  O   LIG A   1      -3.136   2.521 126.605  0.00  0.00    -0.453 OA
ATOM     18  C   LIG A   1      -4.465   2.235 126.675  0.00  0.00    +0.167 A 
ATOM     19  C   LIG A   1      -5.108   1.183 126.047  0.00  0.00    +0.053 A 
ENDBRANCH   2  11
BRANCH   1  21
ATOM     20  C   LIG A   1      -8.112  -2.363 128.550  0.00  0.00    +0.195 C 
ATOM     21  O   LIG A   1      -7.672  -1.237 127.797  0.00  0.00    -0.370 OA
ENDBRANCH   1  21
BRANCH   8  22
ATOM     22  O   LIG A   1     -10.036  -1.220 125.806  0.00  0.00    -0.381 OA
ATOM     23  H   LIG A   1      -9.944  -0.668 125.000  0.00  0.00    +0.210 HD
ENDBRANCH   8  22
BRANCH  10  24
ATOM     24  O   LIG A   1      -5.296  -2.160 126.837  0.00  0.00    -0.388 OA
ATOM     25  H   LIG A   1      -4.740  -2.960 126.731  0.00  0.00    +0.210 HD
ENDBRANCH  10  24
BRANCH   5  26
ATOM     26  C   LIG A   1      -4.865  -2.736 124.089  0.00  0.00    +0.037 C 
BRANCH  26  27
ATOM     27  C   LIG A   1      -4.655  -4.223 124.213  0.00  0.00    -0.034 C 
ATOM     28  C   LIG A   1      -4.210  -5.024 123.237  0.00  0.00    +0.004 C 
ENDBRANCH  26  27
ENDBRANCH   5  26
TORSDOF 6
ENDMDL
MODEL 5
REMARK VINA RESULT:      -7.7      2.655      6.615
REMARK  Name = NuBBE_1762
REMARK  8 active torsions:
REMARK  status: ('A' for Active; 'I' for Inactive)
REMARK    1  A    between atoms: C_1  and  O_2
REMARK    2  A    between atoms: O_2  and  C_3
REMARK    3  A    between atoms: C_4  and  C_6
REMARK    4  A    between atoms: C_15  and  C_17
REMARK    5  A    between atoms: C_18  and  C_19
REMARK    6  A    between atoms: C_19  and  C_20
REMARK    7  A    between atoms: C_24  and  O_26
REMARK    8  A    between atoms: C_28  and  O_30
REMARK                            x       y       z     vdW  Elec       q    Type
REMARK                         _______ _______ _______ _____ _____    ______ ____
ROOT
ATOM      1  C   LIG A   1      -7.702  -2.008 124.848  0.00  0.00    +0.135 C 
ATOM      2  C   LIG A   1      -8.447  -1.431 126.103  0.00  0.00    +0.060 C 
ATOM      3  C   LIG A   1      -8.320   0.118 125.947  0.00  0.00    +0.006 C 
ATOM      4  C   LIG A   1      -9.700   0.788 125.979  0.00  0.00    +0.009 C 
ATOM      5  C   LIG A   1      -7.448   0.380 124.663  0.00  0.00    +0.013 C 
ATOM      6  C   LIG A   1      -8.277   0.517 123.372  0.00  0.00    +0.087 C 
ATOM      7  C   LIG A   1      -9.125  -0.706 123.111  0.00  0.00    +0.165 C 
ATOM      8  C   LIG A   1      -8.638  -2.075 123.595  0.00  0.00    +0.215 C 
ATOM      9  O   LIG A   1     -10.164  -0.623 122.434  0.00  0.00    -0.294 OA
ATOM     10  C   LIG A   1      -6.642  -0.929 124.495  0.00  0.00    +0.157 C 
ENDROOT
BRANCH   2  11
ATOM     11  C   LIG A   1      -8.024  -1.870 127.510  0.00  0.00    -0.037 A 
ATOM     12  C   LIG A   1      -8.408  -3.115 128.062  0.00  0.00    +0.008 A 
ATOM     13  C   LIG A   1      -8.023  -3.513 129.345  0.00  0.00    +0.050 A 
ATOM     14  C   LIG A   1      -7.228  -2.659 130.066  0.00  0.00    +0.166 A 
ATOM     15  O   LIG A   1      -6.753  -2.889 131.317  0.00  0.00    -0.453 OA
ATOM     16  C   LIG A   1      -5.997  -1.683 131.540  0.00  0.00    +0.466 C 
ATOM     17  O   LIG A   1      -6.032  -0.767 130.423  0.00  0.00    -0.453 OA
ATOM     18  C   LIG A   1      -6.820  -1.453 129.551  0.00  0.00    +0.167 A 
ATOM     19  C   LIG A   1      -7.192  -1.035 128.285  0.00  0.00    +0.053 A 
ENDBRANCH   2  11
BRANCH   1  21
ATOM     20  C   LIG A   1      -6.189  -3.699 123.962  0.00  0.00    +0.195 C 
ATOM     21  O   LIG A   1      -6.992  -3.245 125.049  0.00  0.00    -0.370 OA
ENDBRANCH   1  21
BRANCH   8  22
ATOM     22  O   LIG A   1      -9.806  -2.873 123.824  0.00  0.00    -0.381 OA
ATOM     23  H   LIG A   1     -10.440  -2.291 124.294  0.00  0.00    +0.210 HD
ENDBRANCH   8  22
BRANCH  10  24
ATOM     24  O   LIG A   1      -5.487  -0.990 125.313  0.00  0.00    -0.388 OA
ATOM     25  H   LIG A   1      -4.781  -0.539 124.805  0.00  0.00    +0.210 HD
ENDBRANCH  10  24
BRANCH   5  26
ATOM     26  C   LIG A   1      -6.522   1.615 124.856  0.00  0.00    +0.037 C 
BRANCH  26  27
ATOM     27  C   LIG A   1      -6.724   2.723 123.855  0.00  0.00    -0.034 C 
ATOM     28  C   LIG A   1      -5.925   3.786 123.709  0.00  0.00    +0.004 C 
ENDBRANCH  26  27
ENDBRANCH   5  26
TORSDOF 6
ENDMDL
MODEL 6
REMARK VINA RESULT:      -7.3      6.114      9.560
REMARK  Name = NuBBE_1762
REMARK  8 active torsions:
REMARK  status: ('A' for Active; 'I' for Inactive)
REMARK    1  A    between atoms: C_1  and  O_2
REMARK    2  A    between atoms: O_2  and  C_3
REMARK    3  A    between atoms: C_4  and  C_6
REMARK    4  A    between atoms: C_15  and  C_17
REMARK    5  A    between atoms: C_18  and  C_19
REMARK    6  A    between atoms: C_19  and  C_20
REMARK    7  A    between atoms: C_24  and  O_26
REMARK    8  A    between atoms: C_28  and  O_30
REMARK                            x       y       z     vdW  Elec       q    Type
REMARK                         _______ _______ _______ _____ _____    ______ ____
ROOT
ATOM      1  C   LIG A   1      -7.865   3.825 129.839  0.00  0.00    +0.135 C 
ATOM      2  C   LIG A   1      -8.114   5.292 130.341  0.00  0.00    +0.060 C 
ATOM      3  C   LIG A   1      -7.511   5.312 131.781  0.00  0.00    +0.006 C 
ATOM      4  C   LIG A   1      -6.473   6.432 131.925  0.00  0.00    +0.009 C 
ATOM      5  C   LIG A   1      -7.010   3.853 132.090  0.00  0.00    +0.013 C 
ATOM      6  C   LIG A   1      -5.541   3.609 131.693  0.00  0.00    +0.087 C 
ATOM      7  C   LIG A   1      -5.299   3.879 130.226  0.00  0.00    +0.165 C 
ATOM      8  C   LIG A   1      -6.436   3.657 129.224  0.00  0.00    +0.215 C 
ATOM      9  O   LIG A   1      -4.168   4.192 129.819  0.00  0.00    -0.294 OA
ATOM     10  C   LIG A   1      -7.844   2.969 131.134  0.00  0.00    +0.157 C 
ENDROOT
BRANCH   2  11
ATOM     11  C   LIG A   1      -9.536   5.866 130.341  0.00  0.00    -0.037 A 
ATOM     12  C   LIG A   1     -10.308   5.976 131.521  0.00  0.00    +0.008 A 
ATOM     13  C   LIG A   1     -11.604   6.498 131.520  0.00  0.00    +0.050 A 
ATOM     14  C   LIG A   1     -12.116   6.931 130.324  0.00  0.00    +0.166 A 
ATOM     15  O   LIG A   1     -13.347   7.474 130.142  0.00  0.00    -0.453 OA
ATOM     16  C   LIG A   1     -13.316   7.734 128.725  0.00  0.00    +0.466 C 
ATOM     17  O   LIG A   1     -12.073   7.349 128.096  0.00  0.00    -0.453 OA
ATOM     18  C   LIG A   1     -11.385   6.858 129.163  0.00  0.00    +0.167 A 
ATOM     19  C   LIG A   1     -10.102   6.341 129.138  0.00  0.00    +0.053 A 
ENDBRANCH   2  11
BRANCH   1  21
ATOM     20  C   LIG A   1      -8.576   2.025 128.361  0.00  0.00    +0.195 C 
ATOM     21  O   LIG A   1      -8.882   3.269 128.983  0.00  0.00    -0.370 OA
ENDBRANCH   1  21
BRANCH   8  22
ATOM     22  O   LIG A   1      -6.201   4.548 128.126  0.00  0.00    -0.381 OA
ATOM     23  H   LIG A   1      -5.642   5.270 128.483  0.00  0.00    +0.210 HD
ENDBRANCH   8  22
BRANCH  10  24
ATOM     24  O   LIG A   1      -9.138   2.669 131.627  0.00  0.00    -0.388 OA
ATOM     25  H   LIG A   1      -9.210   3.145 132.481  0.00  0.00    +0.210 HD
ENDBRANCH  10  24
BRANCH   5  26
ATOM     26  C   LIG A   1      -7.244   3.482 133.582  0.00  0.00    +0.037 C 
BRANCH  26  27
ATOM     27  C   LIG A   1      -8.155   4.418 134.334  0.00  0.00    -0.034 C 
ATOM     28  C   LIG A   1      -7.789   5.188 135.365  0.00  0.00    +0.004 C 
ENDBRANCH  26  27
ENDBRANCH   5  26
TORSDOF 6
ENDMDL
MODEL 7
REMARK VINA RESULT:      -7.3      4.595      7.643
REMARK  Name = NuBBE_1762
REMARK  8 active torsions:
REMARK  status: ('A' for Active; 'I' for Inactive)
REMARK    1  A    between atoms: C_1  and  O_2
REMARK    2  A    between atoms: O_2  and  C_3
REMARK    3  A    between atoms: C_4  and  C_6
REMARK    4  A    between atoms: C_15  and  C_17
REMARK    5  A    between atoms: C_18  and  C_19
REMARK    6  A    between atoms: C_19  and  C_20
REMARK    7  A    between atoms: C_24  and  O_26
REMARK    8  A    between atoms: C_28  and  O_30
REMARK                            x       y       z     vdW  Elec       q    Type
REMARK                         _______ _______ _______ _____ _____    ______ ____
ROOT
ATOM      1  C   LIG A   1      -5.096  -2.325 129.805  0.00  0.00    +0.135 C 
ATOM      2  C   LIG A   1      -6.443  -1.676 129.327  0.00  0.00    +0.060 C 
ATOM      3  C   LIG A   1      -7.354  -1.704 130.596  0.00  0.00    +0.006 C 
ATOM      4  C   LIG A   1      -7.876  -0.300 130.927  0.00  0.00    +0.009 C 
ATOM      5  C   LIG A   1      -6.540  -2.431 131.730  0.00  0.00    +0.013 C 
ATOM      6  C   LIG A   1      -5.701  -1.472 132.596  0.00  0.00    +0.087 C 
ATOM      7  C   LIG A   1      -4.724  -0.669 131.769  0.00  0.00    +0.165 C 
ATOM      8  C   LIG A   1      -4.154  -1.275 130.483  0.00  0.00    +0.215 C 
ATOM      9  O   LIG A   1      -4.314   0.434 132.169  0.00  0.00    -0.294 OA
ATOM     10  C   LIG A   1      -5.512  -3.285 130.952  0.00  0.00    +0.157 C 
ENDROOT
BRANCH   2  11
ATOM     11  C   LIG A   1      -7.182  -2.259 128.116  0.00  0.00    -0.037 A 
ATOM     12  C   LIG A   1      -8.271  -3.152 128.253  0.00  0.00    +0.008 A 
ATOM     13  C   LIG A   1      -8.943  -3.685 127.149  0.00  0.00    +0.050 A 
ATOM     14  C   LIG A   1      -8.527  -3.296 125.901  0.00  0.00    +0.166 A 
ATOM     15  O   LIG A   1      -9.071  -3.702 124.726  0.00  0.00    -0.453 OA
ATOM     16  C   LIG A   1      -8.250  -2.977 123.789  0.00  0.00    +0.466 C 
ATOM     17  O   LIG A   1      -7.245  -2.154 124.421  0.00  0.00    -0.453 OA
ATOM     18  C   LIG A   1      -7.488  -2.413 125.735  0.00  0.00    +0.167 A 
ATOM     19  C   LIG A   1      -6.804  -1.877 126.812  0.00  0.00    +0.053 A 
ENDBRANCH   2  11
BRANCH   1  21
ATOM     20  C   LIG A   1      -3.093  -3.567 129.192  0.00  0.00    +0.195 C 
ATOM     21  O   LIG A   1      -4.394  -3.116 128.828  0.00  0.00    -0.370 OA
ENDBRANCH   1  21
BRANCH   8  22
ATOM     22  O   LIG A   1      -3.836  -0.180 129.615  0.00  0.00    -0.381 OA
ATOM     23  H   LIG A   1      -3.730  -0.570 128.721  0.00  0.00    +0.210 HD
ENDBRANCH   8  22
BRANCH  10  24
ATOM     24  O   LIG A   1      -6.037  -4.517 130.489  0.00  0.00    -0.388 OA
ATOM     25  H   LIG A   1      -5.257  -5.063 130.256  0.00  0.00    +0.210 HD
ENDBRANCH  10  24
BRANCH   5  26
ATOM     26  C   LIG A   1      -7.471  -3.303 132.619  0.00  0.00    +0.037 C 
BRANCH  26  27
ATOM     27  C   LIG A   1      -6.859  -3.769 133.915  0.00  0.00    -0.034 C 
ATOM     28  C   LIG A   1      -6.367  -4.992 134.140  0.00  0.00    +0.004 C 
ENDBRANCH  26  27
ENDBRANCH   5  26
TORSDOF 6
ENDMDL
MODEL 8
REMARK VINA RESULT:      -7.3      7.207     10.627
REMARK  Name = NuBBE_1762
REMARK  8 active torsions:
REMARK  status: ('A' for Active; 'I' for Inactive)
REMARK    1  A    between atoms: C_1  and  O_2
REMARK    2  A    between atoms: O_2  and  C_3
REMARK    3  A    between atoms: C_4  and  C_6
REMARK    4  A    between atoms: C_15  and  C_17
REMARK    5  A    between atoms: C_18  and  C_19
REMARK    6  A    between atoms: C_19  and  C_20
REMARK    7  A    between atoms: C_24  and  O_26
REMARK    8  A    between atoms: C_28  and  O_30
REMARK                            x       y       z     vdW  Elec       q    Type
REMARK                         _______ _______ _______ _____ _____    ______ ____
ROOT
ATOM      1  C   LIG A   1      -4.470   5.187 129.755  0.00  0.00    +0.135 C 
ATOM      2  C   LIG A   1      -5.132   6.462 130.388  0.00  0.00    +0.060 C 
ATOM      3  C   LIG A   1      -4.009   7.072 131.286  0.00  0.00    +0.006 C 
ATOM      4  C   LIG A   1      -3.745   8.536 130.914  0.00  0.00    +0.009 C 
ATOM      5  C   LIG A   1      -2.776   6.098 131.203  0.00  0.00    +0.013 C 
ATOM      6  C   LIG A   1      -1.788   6.448 130.073  0.00  0.00    +0.087 C 
ATOM      7  C   LIG A   1      -2.459   6.460 128.719  0.00  0.00    +0.165 C 
ATOM      8  C   LIG A   1      -3.654   5.537 128.466  0.00  0.00    +0.215 C 
ATOM      9  O   LIG A   1      -1.995   7.142 127.790  0.00  0.00    -0.294 OA
ATOM     10  C   LIG A   1      -3.403   4.746 130.793  0.00  0.00    +0.157 C 
ENDROOT
BRANCH   2  11
ATOM     11  C   LIG A   1      -6.442   6.329 131.175  0.00  0.00    -0.037 A 
ATOM     12  C   LIG A   1      -6.471   5.945 132.537  0.00  0.00    +0.008 A 
ATOM     13  C   LIG A   1      -7.665   5.823 133.253  0.00  0.00    +0.050 A 
ATOM     14  C   LIG A   1      -8.834   6.110 132.596  0.00  0.00    +0.166 A 
ATOM     15  O   LIG A   1     -10.078   6.056 133.138  0.00  0.00    -0.453 OA
ATOM     16  C   LIG A   1     -10.877   6.460 132.009  0.00  0.00    +0.466 C 
ATOM     17  O   LIG A   1     -10.099   6.751 130.827  0.00  0.00    -0.453 OA
ATOM     18  C   LIG A   1      -8.839   6.506 131.281  0.00  0.00    +0.167 A 
ATOM     19  C   LIG A   1      -7.671   6.630 130.550  0.00  0.00    +0.053 A 
ENDBRANCH   2  11
BRANCH   1  21
ATOM     20  C   LIG A   1      -4.835   3.010 128.727  0.00  0.00    +0.195 C 
ATOM     21  O   LIG A   1      -5.343   4.061 129.543  0.00  0.00    -0.370 OA
ENDBRANCH   1  21
BRANCH   8  22
ATOM     22  O   LIG A   1      -4.458   6.166 127.460  0.00  0.00    -0.381 OA
ATOM     23  H   LIG A   1      -5.082   6.750 127.943  0.00  0.00    +0.210 HD
ENDBRANCH   8  22
BRANCH  10  24
ATOM     24  O   LIG A   1      -3.949   4.023 131.882  0.00  0.00    -0.388 OA
ATOM     25  H   LIG A   1      -4.828   3.715 131.579  0.00  0.00    +0.210 HD
ENDBRANCH  10  24
BRANCH   5  26
ATOM     26  C   LIG A   1      -2.038   6.008 132.570  0.00  0.00    +0.037 C 
BRANCH  26  27
ATOM     27  C   LIG A   1      -1.221   7.222 132.931  0.00  0.00    -0.034 C 
ATOM     28  C   LIG A   1      -0.025   7.197 133.531  0.00  0.00    +0.004 C 
ENDBRANCH  26  27
ENDBRANCH   5  26
TORSDOF 6
ENDMDL
MODEL 9
REMARK VINA RESULT:      -7.1      7.607     10.810
REMARK  Name = NuBBE_1762
REMARK  8 active torsions:
REMARK  status: ('A' for Active; 'I' for Inactive)
REMARK    1  A    between atoms: C_1  and  O_2
REMARK    2  A    between atoms: O_2  and  C_3
REMARK    3  A    between atoms: C_4  and  C_6
REMARK    4  A    between atoms: C_15  and  C_17
REMARK    5  A    between atoms: C_18  and  C_19
REMARK    6  A    between atoms: C_19  and  C_20
REMARK    7  A    between atoms: C_24  and  O_26
REMARK    8  A    between atoms: C_28  and  O_30
REMARK                            x       y       z     vdW  Elec       q    Type
REMARK                         _______ _______ _______ _____ _____    ______ ____
ROOT
ATOM      1  C   LIG A   1      -7.783   4.856 132.640  0.00  0.00    +0.135 C 
ATOM      2  C   LIG A   1      -7.738   3.803 131.476  0.00  0.00    +0.060 C 
ATOM      3  C   LIG A   1      -8.859   4.269 130.494  0.00  0.00    +0.006 C 
ATOM      4  C   LIG A   1      -8.299   4.472 129.080  0.00  0.00    +0.009 C 
ATOM      5  C   LIG A   1      -9.558   5.516 131.152  0.00  0.00    +0.013 C 
ATOM      6  C   LIG A   1      -8.922   6.861 130.752  0.00  0.00    +0.087 C 
ATOM      7  C   LIG A   1      -7.453   6.919 131.100  0.00  0.00    +0.165 C 
ATOM      8  C   LIG A   1      -6.935   6.128 132.304  0.00  0.00    +0.215 C 
ATOM      9  O   LIG A   1      -6.684   7.668 130.474  0.00  0.00    -0.294 OA
ATOM     10  C   LIG A   1      -9.254   5.352 132.659  0.00  0.00    +0.157 C 
ENDROOT
BRANCH   2  11
ATOM     11  C   LIG A   1      -7.883   2.309 131.794  0.00  0.00    -0.037 A 
ATOM     12  C   LIG A   1      -9.055   1.580 131.483  0.00  0.00    +0.008 A 
ATOM     13  C   LIG A   1      -9.187   0.220 131.774  0.00  0.00    +0.050 A 
ATOM     14  C   LIG A   1      -8.122  -0.413 132.363  0.00  0.00    +0.166 A 
ATOM     15  O   LIG A   1      -8.072  -1.726 132.702  0.00  0.00    -0.453 OA
ATOM     16  C   LIG A   1      -6.744  -1.808 133.254  0.00  0.00    +0.466 C 
ATOM     17  O   LIG A   1      -6.031  -0.552 133.227  0.00  0.00    -0.453 OA
ATOM     18  C   LIG A   1      -6.962   0.262 132.658  0.00  0.00    +0.167 A 
ATOM     19  C   LIG A   1      -6.809   1.609 132.384  0.00  0.00    +0.053 A 
ENDBRANCH   2  11
BRANCH   1  21
ATOM     20  C   LIG A   1      -7.320   5.327 134.984  0.00  0.00    +0.195 C 
ATOM     21  O   LIG A   1      -7.490   4.353 133.958  0.00  0.00    -0.370 OA
ENDBRANCH   1  21
BRANCH   8  22
ATOM     22  O   LIG A   1      -5.561   5.818 132.037  0.00  0.00    -0.381 OA
ATOM     23  H   LIG A   1      -5.335   5.071 132.631  0.00  0.00    +0.210 HD
ENDBRANCH   8  22
BRANCH  10  24
ATOM     24  O   LIG A   1     -10.136   4.461 133.320  0.00  0.00    -0.388 OA
ATOM     25  H   LIG A   1      -9.885   4.498 134.267  0.00  0.00    +0.210 HD
ENDBRANCH  10  24
BRANCH   5  26
ATOM     26  C   LIG A   1     -11.086   5.521 130.862  0.00  0.00    +0.037 C 
BRANCH  26  27
ATOM     27  C   LIG A   1     -11.692   6.888 130.677  0.00  0.00    -0.034 C 
ATOM     28  C   LIG A   1     -12.736   7.369 131.363  0.00  0.00    +0.004 C 
ENDBRANCH  26  27
ENDBRANCH   5  26
TORSDOF 6
ENDMDL
