MODEL 1
REMARK VINA RESULT:      -3.5      0.000      0.000
REMARK  Name = NuBBE_1386
REMARK  4 active torsions:
REMARK  status: ('A' for Active; 'I' for Inactive)
REMARK    1  A    between atoms: C_1  and  C_2
REMARK    2  A    between atoms: C_2  and  O_3
REMARK    3  A    between atoms: O_3  and  C_4
REMARK    4  A    between atoms: C_4  and  C_5
REMARK                            x       y       z     vdW  Elec       q    Type
REMARK                         _______ _______ _______ _____ _____    ______ ____
ROOT
ATOM      1  C   LIG A   1      -6.566   4.875 119.029  0.00  0.00    +0.136 C 
ATOM      2  C   LIG A   1      -5.418   5.075 119.968  0.00  0.00    +0.304 C 
ATOM      3  O   LIG A   1      -4.859   6.147 120.153  0.00  0.00    -0.251 OA
ENDROOT
BRANCH   2   4
ATOM      4  O   LIG A   1      -5.099   3.898 120.573  0.00  0.00    -0.465 OA
BRANCH   4   5
ATOM      5  C   LIG A   1      -6.016   3.454 121.584  0.00  0.00    +0.228 C 
ATOM      6  C   LIG A   1      -5.702   4.122 122.910  0.00  0.00    +0.048 C 
ENDBRANCH   4   5
ENDBRANCH   2   4
TORSDOF 2
ENDMDL
MODEL 2
REMARK VINA RESULT:      -3.3      9.007      9.791
REMARK  Name = NuBBE_1386
REMARK  4 active torsions:
REMARK  status: ('A' for Active; 'I' for Inactive)
REMARK    1  A    between atoms: C_1  and  C_2
REMARK    2  A    between atoms: C_2  and  O_3
REMARK    3  A    between atoms: O_3  and  C_4
REMARK    4  A    between atoms: C_4  and  C_5
REMARK                            x       y       z     vdW  Elec       q    Type
REMARK                         _______ _______ _______ _____ _____    ______ ____
ROOT
ATOM      1  C   LIG A   1     -10.502   8.382 128.126  0.00  0.00    +0.136 C 
ATOM      2  C   LIG A   1     -11.059   7.573 126.995  0.00  0.00    +0.304 C 
ATOM      3  O   LIG A   1     -10.896   7.841 125.813  0.00  0.00    -0.251 OA
ENDROOT
BRANCH   2   4
ATOM      4  O   LIG A   1     -11.761   6.513 127.481  0.00  0.00    -0.465 OA
BRANCH   4   5
ATOM      5  C   LIG A   1     -12.803   6.837 128.414  0.00  0.00    +0.228 C 
ATOM      6  C   LIG A   1     -13.887   7.650 127.731  0.00  0.00    +0.048 C 
ENDBRANCH   4   5
ENDBRANCH   2   4
TORSDOF 2
ENDMDL
MODEL 3
REMARK VINA RESULT:      -3.3      8.471      9.234
REMARK  Name = NuBBE_1386
REMARK  4 active torsions:
REMARK  status: ('A' for Active; 'I' for Inactive)
REMARK    1  A    between atoms: C_1  and  C_2
REMARK    2  A    between atoms: C_2  and  O_3
REMARK    3  A    between atoms: O_3  and  C_4
REMARK    4  A    between atoms: C_4  and  C_5
REMARK                            x       y       z     vdW  Elec       q    Type
REMARK                         _______ _______ _______ _____ _____    ______ ____
ROOT
ATOM      1  C   LIG A   1     -12.401   7.235 127.126  0.00  0.00    +0.136 C 
ATOM      2  C   LIG A   1     -11.045   7.611 126.613  0.00  0.00    +0.304 C 
ATOM      3  O   LIG A   1     -10.824   7.999 125.474  0.00  0.00    -0.251 OA
ENDROOT
BRANCH   2   4
ATOM      4  O   LIG A   1     -10.116   7.456 127.595  0.00  0.00    -0.465 OA
BRANCH   4   5
ATOM      5  C   LIG A   1     -10.477   7.989 128.878  0.00  0.00    +0.228 C 
ATOM      6  C   LIG A   1      -9.740   7.252 129.981  0.00  0.00    +0.048 C 
ENDBRANCH   4   5
ENDBRANCH   2   4
TORSDOF 2
ENDMDL
MODEL 4
REMARK VINA RESULT:      -3.3      9.544     10.317
REMARK  Name = NuBBE_1386
REMARK  4 active torsions:
REMARK  status: ('A' for Active; 'I' for Inactive)
REMARK    1  A    between atoms: C_1  and  C_2
REMARK    2  A    between atoms: C_2  and  O_3
REMARK    3  A    between atoms: O_3  and  C_4
REMARK    4  A    between atoms: C_4  and  C_5
REMARK                            x       y       z     vdW  Elec       q    Type
REMARK                         _______ _______ _______ _____ _____    ______ ____
ROOT
ATOM      1  C   LIG A   1     -10.645   8.440 127.929  0.00  0.00    +0.136 C 
ATOM      2  C   LIG A   1     -11.314   7.180 127.472  0.00  0.00    +0.304 C 
ATOM      3  O   LIG A   1     -11.401   6.833 126.303  0.00  0.00    -0.251 OA
ENDROOT
BRANCH   2   4
ATOM      4  O   LIG A   1     -11.800   6.496 128.544  0.00  0.00    -0.465 OA
BRANCH   4   5
ATOM      5  C   LIG A   1     -13.031   6.993 129.089  0.00  0.00    +0.228 C 
ATOM      6  C   LIG A   1     -12.905   7.181 130.590  0.00  0.00    +0.048 C 
ENDBRANCH   4   5
ENDBRANCH   2   4
TORSDOF 2
ENDMDL
MODEL 5
REMARK VINA RESULT:      -3.2      9.918     10.680
REMARK  Name = NuBBE_1386
REMARK  4 active torsions:
REMARK  status: ('A' for Active; 'I' for Inactive)
REMARK    1  A    between atoms: C_1  and  C_2
REMARK    2  A    between atoms: C_2  and  O_3
REMARK    3  A    between atoms: O_3  and  C_4
REMARK    4  A    between atoms: C_4  and  C_5
REMARK                            x       y       z     vdW  Elec       q    Type
REMARK                         _______ _______ _______ _____ _____    ______ ____
ROOT
ATOM      1  C   LIG A   1     -11.020   7.825 126.812  0.00  0.00    +0.136 C 
ATOM      2  C   LIG A   1     -10.798   8.332 128.204  0.00  0.00    +0.304 C 
ATOM      3  O   LIG A   1      -9.740   8.237 128.809  0.00  0.00    -0.251 OA
ENDROOT
BRANCH   2   4
ATOM      4  O   LIG A   1     -11.938   8.904 128.679  0.00  0.00    -0.465 OA
BRANCH   4   5
ATOM      5  C   LIG A   1     -12.937   7.990 129.156  0.00  0.00    +0.228 C 
ATOM      6  C   LIG A   1     -12.714   7.686 130.626  0.00  0.00    +0.048 C 
ENDBRANCH   4   5
ENDBRANCH   2   4
TORSDOF 2
ENDMDL
MODEL 6
REMARK VINA RESULT:      -3.2      9.217     10.184
REMARK  Name = NuBBE_1386
REMARK  4 active torsions:
REMARK  status: ('A' for Active; 'I' for Inactive)
REMARK    1  A    between atoms: C_1  and  C_2
REMARK    2  A    between atoms: C_2  and  O_3
REMARK    3  A    between atoms: O_3  and  C_4
REMARK    4  A    between atoms: C_4  and  C_5
REMARK                            x       y       z     vdW  Elec       q    Type
REMARK                         _______ _______ _______ _____ _____    ______ ____
ROOT
ATOM      1  C   LIG A   1     -10.274   7.722 129.297  0.00  0.00    +0.136 C 
ATOM      2  C   LIG A   1     -10.592   7.497 127.851  0.00  0.00    +0.304 C 
ATOM      3  O   LIG A   1     -10.069   6.637 127.158  0.00  0.00    -0.251 OA
ENDROOT
BRANCH   2   4
ATOM      4  O   LIG A   1     -11.539   8.385 127.439  0.00  0.00    -0.465 OA
BRANCH   4   5
ATOM      5  C   LIG A   1     -12.697   8.489 128.280  0.00  0.00    +0.228 C 
ATOM      6  C   LIG A   1     -13.722   7.437 127.899  0.00  0.00    +0.048 C 
ENDBRANCH   4   5
ENDBRANCH   2   4
TORSDOF 2
ENDMDL
MODEL 7
REMARK VINA RESULT:      -3.0      9.258      9.993
REMARK  Name = NuBBE_1386
REMARK  4 active torsions:
REMARK  status: ('A' for Active; 'I' for Inactive)
REMARK    1  A    between atoms: C_1  and  C_2
REMARK    2  A    between atoms: C_2  and  O_3
REMARK    3  A    between atoms: O_3  and  C_4
REMARK    4  A    between atoms: C_4  and  C_5
REMARK                            x       y       z     vdW  Elec       q    Type
REMARK                         _______ _______ _______ _____ _____    ______ ____
ROOT
ATOM      1  C   LIG A   1     -11.468   8.407 128.250  0.00  0.00    +0.136 C 
ATOM      2  C   LIG A   1     -10.256   7.536 128.370  0.00  0.00    +0.304 C 
ATOM      3  O   LIG A   1     -10.001   6.605 127.619  0.00  0.00    -0.251 OA
ENDROOT
BRANCH   2   4
ATOM      4  O   LIG A   1      -9.498   7.936 129.427  0.00  0.00    -0.465 OA
BRANCH   4   5
ATOM      5  C   LIG A   1      -9.404   6.999 130.511  0.00  0.00    +0.228 C 
ATOM      6  C   LIG A   1      -7.962   6.855 130.960  0.00  0.00    +0.048 C 
ENDBRANCH   4   5
ENDBRANCH   2   4
TORSDOF 2
ENDMDL
MODEL 8
REMARK VINA RESULT:      -3.0     10.963     11.679
REMARK  Name = NuBBE_1386
REMARK  4 active torsions:
REMARK  status: ('A' for Active; 'I' for Inactive)
REMARK    1  A    between atoms: C_1  and  C_2
REMARK    2  A    between atoms: C_2  and  O_3
REMARK    3  A    between atoms: O_3  and  C_4
REMARK    4  A    between atoms: C_4  and  C_5
REMARK                            x       y       z     vdW  Elec       q    Type
REMARK                         _______ _______ _______ _____ _____    ______ ____
ROOT
ATOM      1  C   LIG A   1     -11.461   8.407 127.896  0.00  0.00    +0.136 C 
ATOM      2  C   LIG A   1     -12.831   8.568 128.478  0.00  0.00    +0.304 C 
ATOM      3  O   LIG A   1     -13.454   9.621 128.490  0.00  0.00    -0.251 OA
ENDROOT
BRANCH   2   4
ATOM      4  O   LIG A   1     -13.266   7.381 128.982  0.00  0.00    -0.465 OA
BRANCH   4   5
ATOM      5  C   LIG A   1     -12.478   6.838 130.053  0.00  0.00    +0.228 C 
ATOM      6  C   LIG A   1     -12.833   7.516 131.363  0.00  0.00    +0.048 C 
ENDBRANCH   4   5
ENDBRANCH   2   4
TORSDOF 2
ENDMDL
MODEL 9
REMARK VINA RESULT:      -3.0     10.840     11.876
REMARK  Name = NuBBE_1386
REMARK  4 active torsions:
REMARK  status: ('A' for Active; 'I' for Inactive)
REMARK    1  A    between atoms: C_1  and  C_2
REMARK    2  A    between atoms: C_2  and  O_3
REMARK    3  A    between atoms: O_3  and  C_4
REMARK    4  A    between atoms: C_4  and  C_5
REMARK                            x       y       z     vdW  Elec       q    Type
REMARK                         _______ _______ _______ _____ _____    ______ ____
ROOT
ATOM      1  C   LIG A   1     -11.548   5.717 130.470  0.00  0.00    +0.136 C 
ATOM      2  C   LIG A   1     -12.263   7.001 130.756  0.00  0.00    +0.304 C 
ATOM      3  O   LIG A   1     -13.198   7.108 131.537  0.00  0.00    -0.251 OA
ENDROOT
BRANCH   2   4
ATOM      4  O   LIG A   1     -11.717   8.012 130.025  0.00  0.00    -0.465 OA
BRANCH   4   5
ATOM      5  C   LIG A   1     -11.965   7.956 128.612  0.00  0.00    +0.228 C 
ATOM      6  C   LIG A   1     -10.728   8.382 127.844  0.00  0.00    +0.048 C 
ENDBRANCH   4   5
ENDBRANCH   2   4
TORSDOF 2
ENDMDL
