MODEL 1
REMARK VINA RESULT:      -9.5      0.000      0.000
REMARK  Name = NuBBE_365
REMARK  10 active torsions:
REMARK  status: ('A' for Active; 'I' for Inactive)
REMARK    1  A    between atoms: C_1  and  C_2
REMARK    2  A    between atoms: C_2  and  C_36
REMARK    3  A    between atoms: C_5  and  C_34
REMARK    4  A    between atoms: C_8  and  C_33
REMARK    5  A    between atoms: C_9  and  C_32
REMARK    6  A    between atoms: C_14  and  C_15
REMARK    7  A    between atoms: C_14  and  C_31
REMARK    8  A    between atoms: C_16  and  O_30
REMARK    9  A    between atoms: C_20  and  C_29
REMARK   10  A    between atoms: C_34  and  O_35
REMARK                            x       y       z     vdW  Elec       q    Type
REMARK                         _______ _______ _______ _____ _____    ______ ____
ROOT
ATOM      1  C   LIG A   1      -5.687  -2.031 122.992  0.00  0.00    +0.011 C 
ATOM      2  C   LIG A   1      -6.042  -2.886 124.224  0.00  0.00    -0.034 C 
ATOM      3  C   LIG A   1      -7.457  -3.469 124.030  0.00  0.00    +0.007 C 
ATOM      4  C   LIG A   1      -8.053  -4.060 125.308  0.00  0.00    +0.010 C 
ATOM      5  C   LIG A   1      -8.037  -3.075 126.513  0.00  0.00    +0.000 C 
ATOM      6  C   LIG A   1      -8.528  -3.857 127.754  0.00  0.00    +0.010 C 
ATOM      7  C   LIG A   1      -8.379  -3.102 129.076  0.00  0.00    +0.012 C 
ATOM      8  C   LIG A   1      -6.963  -2.487 129.369  0.00  0.00    -0.005 C 
ATOM      9  C   LIG A   1      -7.057  -1.394 130.579  0.00  0.00    -0.019 C 
ATOM     10  C   LIG A   1      -7.521  -2.019 131.931  0.00  0.00    +0.008 C 
ATOM     11  C   LIG A   1      -6.446  -2.376 132.953  0.00  0.00    +0.005 C 
ATOM     12  C   LIG A   1      -5.489  -1.198 133.190  0.00  0.00    +0.003 C 
ATOM     13  C   LIG A   1      -4.655  -1.291 134.522  0.00  0.00    -0.006 C 
ATOM     14  C   LIG A   1      -5.618  -1.286 135.744  0.00  0.00    +0.014 C 
ATOM     15  C   LIG A   1      -3.771  -0.014 134.645  0.00  0.00    +0.120 C 
ATOM     16  C   LIG A   1      -2.936   0.280 133.405  0.00  0.00    +0.032 C 
ATOM     17  C   LIG A   1      -3.798   0.379 132.149  0.00  0.00    +0.010 C 
ATOM     18  C   LIG A   1      -4.689  -0.876 131.876  0.00  0.00    -0.025 C 
ATOM     19  C   LIG A   1      -5.759  -0.504 130.754  0.00  0.00    +0.006 C 
ATOM     20  C   LIG A   1      -5.177  -0.029 129.404  0.00  0.00    +0.031 C 
ATOM     21  C   LIG A   1      -5.578  -0.769 128.168  0.00  0.00    -0.026 C 
ATOM     22  C   LIG A   1      -6.355  -1.864 128.092  0.00  0.00    -0.063 C 
ATOM     23  C   LIG A   1      -6.566  -2.635 126.769  0.00  0.00    +0.024 C 
ATOM     24  C   LIG A   1      -5.959  -1.994 125.492  0.00  0.00    +0.014 C 
ATOM     25  C   LIG A   1      -3.749  -2.011 131.424  0.00  0.00    +0.012 C 
ATOM     26  C   LIG A   1      -3.821  -2.582 134.644  0.00  0.00    +0.014 C 
ATOM     27  C   LIG A   1      -8.190  -0.349 130.230  0.00  0.00    +0.012 C 
ATOM     28  C   LIG A   1      -6.048  -3.686 129.721  0.00  0.00    +0.016 C 
ATOM     29  C   LIG A   1      -5.013  -4.032 124.311  0.00  0.00    +0.011 C 
ENDROOT
BRANCH  15  30
ATOM     30  O   LIG A   1      -2.909  -0.075 135.781  0.00  0.00    -0.391 OA
ATOM     31  H   LIG A   1      -2.551  -0.976 135.842  0.00  0.00    +0.210 HD
ENDBRANCH  15  30
BRANCH   5  32
ATOM     32  C   LIG A   1      -9.008  -1.905 126.169  0.00  0.00    +0.163 C 
BRANCH  32  33
ATOM     33  O   LIG A   1     -10.234  -2.315 125.597  0.00  0.00    -0.394 OA
ATOM     34  H   LIG A   1     -10.048  -3.066 125.011  0.00  0.00    +0.209 HD
ENDBRANCH  32  33
ENDBRANCH   5  32
TORSDOF 3
ENDMDL
MODEL 2
REMARK VINA RESULT:      -8.7      2.233      3.127
REMARK  Name = NuBBE_365
REMARK  10 active torsions:
REMARK  status: ('A' for Active; 'I' for Inactive)
REMARK    1  A    between atoms: C_1  and  C_2
REMARK    2  A    between atoms: C_2  and  C_36
REMARK    3  A    between atoms: C_5  and  C_34
REMARK    4  A    between atoms: C_8  and  C_33
REMARK    5  A    between atoms: C_9  and  C_32
REMARK    6  A    between atoms: C_14  and  C_15
REMARK    7  A    between atoms: C_14  and  C_31
REMARK    8  A    between atoms: C_16  and  O_30
REMARK    9  A    between atoms: C_20  and  C_29
REMARK   10  A    between atoms: C_34  and  O_35
REMARK                            x       y       z     vdW  Elec       q    Type
REMARK                         _______ _______ _______ _____ _____    ______ ____
ROOT
ATOM      1  C   LIG A   1      -5.252  -2.725 123.233  0.00  0.00    +0.011 C 
ATOM      2  C   LIG A   1      -6.272  -2.534 124.373  0.00  0.00    -0.034 C 
ATOM      3  C   LIG A   1      -7.021  -1.204 124.149  0.00  0.00    +0.007 C 
ATOM      4  C   LIG A   1      -7.818  -0.742 125.370  0.00  0.00    +0.010 C 
ATOM      5  C   LIG A   1      -6.970  -0.669 126.673  0.00  0.00    +0.000 C 
ATOM      6  C   LIG A   1      -7.937  -0.335 127.833  0.00  0.00    +0.010 C 
ATOM      7  C   LIG A   1      -7.310  -0.430 129.225  0.00  0.00    +0.012 C 
ATOM      8  C   LIG A   1      -6.539  -1.760 129.551  0.00  0.00    -0.005 C 
ATOM      9  C   LIG A   1      -5.601  -1.565 130.873  0.00  0.00    -0.019 C 
ATOM     10  C   LIG A   1      -6.421  -1.240 132.160  0.00  0.00    +0.008 C 
ATOM     11  C   LIG A   1      -6.730  -2.390 133.113  0.00  0.00    +0.005 C 
ATOM     12  C   LIG A   1      -5.462  -3.188 133.454  0.00  0.00    +0.003 C 
ATOM     13  C   LIG A   1      -5.576  -4.076 134.749  0.00  0.00    -0.006 C 
ATOM     14  C   LIG A   1      -5.831  -3.166 135.986  0.00  0.00    +0.014 C 
ATOM     15  C   LIG A   1      -4.209  -4.782 134.989  0.00  0.00    +0.120 C 
ATOM     16  C   LIG A   1      -3.676  -5.523 133.769  0.00  0.00    +0.032 C 
ATOM     17  C   LIG A   1      -3.566  -4.610 132.551  0.00  0.00    +0.010 C 
ATOM     18  C   LIG A   1      -4.898  -3.887 132.165  0.00  0.00    -0.025 C 
ATOM     19  C   LIG A   1      -4.563  -2.735 131.114  0.00  0.00    +0.006 C 
ATOM     20  C   LIG A   1      -3.874  -3.198 129.810  0.00  0.00    +0.031 C 
ATOM     21  C   LIG A   1      -4.531  -2.854 128.511  0.00  0.00    -0.026 C 
ATOM     22  C   LIG A   1      -5.709  -2.231 128.335  0.00  0.00    -0.063 C 
ATOM     23  C   LIG A   1      -6.360  -2.076 126.942  0.00  0.00    +0.024 C 
ATOM     24  C   LIG A   1      -5.513  -2.543 125.728  0.00  0.00    +0.014 C 
ATOM     25  C   LIG A   1      -5.839  -4.955 131.572  0.00  0.00    +0.012 C 
ATOM     26  C   LIG A   1      -6.745  -5.080 134.712  0.00  0.00    +0.014 C 
ATOM     27  C   LIG A   1      -4.692  -0.288 130.665  0.00  0.00    +0.012 C 
ATOM     28  C   LIG A   1      -7.630  -2.840 129.751  0.00  0.00    +0.016 C 
ATOM     29  C   LIG A   1      -7.267  -3.711 124.313  0.00  0.00    +0.011 C 
ENDROOT
BRANCH  15  30
ATOM     30  O   LIG A   1      -4.267  -5.686 136.092  0.00  0.00    -0.391 OA
ATOM     31  H   LIG A   1      -3.437  -5.611 136.590  0.00  0.00    +0.210 HD
ENDBRANCH  15  30
BRANCH   5  32
ATOM     32  C   LIG A   1      -5.917   0.463 126.479  0.00  0.00    +0.163 C 
BRANCH  32  33
ATOM     33  O   LIG A   1      -6.458   1.768 126.480  0.00  0.00    -0.394 OA
ATOM     34  H   LIG A   1      -7.422   1.686 126.562  0.00  0.00    +0.209 HD
ENDBRANCH  32  33
ENDBRANCH   5  32
TORSDOF 3
ENDMDL
MODEL 3
REMARK VINA RESULT:      -8.6      2.354      3.486
REMARK  Name = NuBBE_365
REMARK  10 active torsions:
REMARK  status: ('A' for Active; 'I' for Inactive)
REMARK    1  A    between atoms: C_1  and  C_2
REMARK    2  A    between atoms: C_2  and  C_36
REMARK    3  A    between atoms: C_5  and  C_34
REMARK    4  A    between atoms: C_8  and  C_33
REMARK    5  A    between atoms: C_9  and  C_32
REMARK    6  A    between atoms: C_14  and  C_15
REMARK    7  A    between atoms: C_14  and  C_31
REMARK    8  A    between atoms: C_16  and  O_30
REMARK    9  A    between atoms: C_20  and  C_29
REMARK   10  A    between atoms: C_34  and  O_35
REMARK                            x       y       z     vdW  Elec       q    Type
REMARK                         _______ _______ _______ _____ _____    ______ ____
ROOT
ATOM      1  C   LIG A   1      -8.379   3.399 124.912  0.00  0.00    +0.011 C 
ATOM      2  C   LIG A   1      -7.447   2.180 125.057  0.00  0.00    -0.034 C 
ATOM      3  C   LIG A   1      -7.630   1.268 123.827  0.00  0.00    +0.007 C 
ATOM      4  C   LIG A   1      -7.015  -0.121 124.002  0.00  0.00    +0.010 C 
ATOM      5  C   LIG A   1      -7.492  -0.853 125.290  0.00  0.00    +0.000 C 
ATOM      6  C   LIG A   1      -6.679  -2.164 125.402  0.00  0.00    +0.010 C 
ATOM      7  C   LIG A   1      -6.868  -2.913 126.722  0.00  0.00    +0.012 C 
ATOM      8  C   LIG A   1      -6.683  -2.067 128.034  0.00  0.00    -0.005 C 
ATOM      9  C   LIG A   1      -7.298  -2.866 129.318  0.00  0.00    -0.019 C 
ATOM     10  C   LIG A   1      -6.575  -4.220 129.598  0.00  0.00    +0.008 C 
ATOM     11  C   LIG A   1      -5.501  -4.239 130.680  0.00  0.00    +0.005 C 
ATOM     12  C   LIG A   1      -6.012  -3.608 131.985  0.00  0.00    +0.003 C 
ATOM     13  C   LIG A   1      -5.177  -3.984 133.265  0.00  0.00    -0.006 C 
ATOM     14  C   LIG A   1      -5.246  -5.521 133.501  0.00  0.00    +0.014 C 
ATOM     15  C   LIG A   1      -5.839  -3.312 134.505  0.00  0.00    +0.120 C 
ATOM     16  C   LIG A   1      -6.085  -1.818 134.337  0.00  0.00    +0.032 C 
ATOM     17  C   LIG A   1      -6.916  -1.513 133.093  0.00  0.00    +0.010 C 
ATOM     18  C   LIG A   1      -6.320  -2.083 131.764  0.00  0.00    -0.025 C 
ATOM     19  C   LIG A   1      -7.434  -1.988 130.628  0.00  0.00    +0.006 C 
ATOM     20  C   LIG A   1      -7.978  -0.570 130.340  0.00  0.00    +0.031 C 
ATOM     21  C   LIG A   1      -7.887  -0.056 128.939  0.00  0.00    -0.026 C 
ATOM     22  C   LIG A   1      -7.320  -0.666 127.883  0.00  0.00    -0.063 C 
ATOM     23  C   LIG A   1      -7.145   0.038 126.519  0.00  0.00    +0.024 C 
ATOM     24  C   LIG A   1      -7.798   1.439 126.376  0.00  0.00    +0.014 C 
ATOM     25  C   LIG A   1      -5.075  -1.238 131.426  0.00  0.00    +0.012 C 
ATOM     26  C   LIG A   1      -3.679  -3.639 133.153  0.00  0.00    +0.014 C 
ATOM     27  C   LIG A   1      -8.786  -3.287 128.988  0.00  0.00    +0.012 C 
ATOM     28  C   LIG A   1      -5.161  -1.818 128.163  0.00  0.00    +0.016 C 
ATOM     29  C   LIG A   1      -5.997   2.703 125.109  0.00  0.00    +0.011 C 
ENDROOT
BRANCH  15  30
ATOM     30  O   LIG A   1      -5.076  -3.526 135.692  0.00  0.00    -0.391 OA
ATOM     31  H   LIG A   1      -4.551  -4.335 135.573  0.00  0.00    +0.210 HD
ENDBRANCH  15  30
BRANCH   5  32
ATOM     32  C   LIG A   1      -9.013  -1.150 125.119  0.00  0.00    +0.163 C 
BRANCH  32  33
ATOM     33  O   LIG A   1      -9.321  -1.998 124.032  0.00  0.00    -0.394 OA
ATOM     34  H   LIG A   1      -9.126  -2.909 124.305  0.00  0.00    +0.209 HD
ENDBRANCH  32  33
ENDBRANCH   5  32
TORSDOF 3
ENDMDL
MODEL 4
REMARK VINA RESULT:      -8.6      3.688      4.873
REMARK  Name = NuBBE_365
REMARK  10 active torsions:
REMARK  status: ('A' for Active; 'I' for Inactive)
REMARK    1  A    between atoms: C_1  and  C_2
REMARK    2  A    between atoms: C_2  and  C_36
REMARK    3  A    between atoms: C_5  and  C_34
REMARK    4  A    between atoms: C_8  and  C_33
REMARK    5  A    between atoms: C_9  and  C_32
REMARK    6  A    between atoms: C_14  and  C_15
REMARK    7  A    between atoms: C_14  and  C_31
REMARK    8  A    between atoms: C_16  and  O_30
REMARK    9  A    between atoms: C_20  and  C_29
REMARK   10  A    between atoms: C_34  and  O_35
REMARK                            x       y       z     vdW  Elec       q    Type
REMARK                         _______ _______ _______ _____ _____    ______ ____
ROOT
ATOM      1  C   LIG A   1      -6.179  -2.350 122.138  0.00  0.00    +0.011 C 
ATOM      2  C   LIG A   1      -6.074  -2.379 123.676  0.00  0.00    -0.034 C 
ATOM      3  C   LIG A   1      -7.217  -3.252 124.233  0.00  0.00    +0.007 C 
ATOM      4  C   LIG A   1      -7.421  -3.098 125.741  0.00  0.00    +0.010 C 
ATOM      5  C   LIG A   1      -7.600  -1.620 126.195  0.00  0.00    +0.000 C 
ATOM      6  C   LIG A   1      -7.645  -1.616 127.741  0.00  0.00    +0.010 C 
ATOM      7  C   LIG A   1      -7.608  -0.222 128.370  0.00  0.00    +0.012 C 
ATOM      8  C   LIG A   1      -6.463   0.734 127.875  0.00  0.00    -0.005 C 
ATOM      9  C   LIG A   1      -6.781   2.276 128.309  0.00  0.00    -0.019 C 
ATOM     10  C   LIG A   1      -6.841   2.474 129.856  0.00  0.00    +0.008 C 
ATOM     11  C   LIG A   1      -5.597   3.018 130.549  0.00  0.00    +0.005 C 
ATOM     12  C   LIG A   1      -5.078   4.285 129.852  0.00  0.00    +0.003 C 
ATOM     13  C   LIG A   1      -4.112   5.167 130.728  0.00  0.00    -0.006 C 
ATOM     14  C   LIG A   1      -4.869   5.676 131.989  0.00  0.00    +0.014 C 
ATOM     15  C   LIG A   1      -3.710   6.428 129.908  0.00  0.00    +0.120 C 
ATOM     16  C   LIG A   1      -3.178   6.114 128.515  0.00  0.00    +0.032 C 
ATOM     17  C   LIG A   1      -4.163   5.277 127.704  0.00  0.00    +0.010 C 
ATOM     18  C   LIG A   1      -4.597   3.943 128.395  0.00  0.00    -0.025 C 
ATOM     19  C   LIG A   1      -5.854   3.353 127.612  0.00  0.00    +0.006 C 
ATOM     20  C   LIG A   1      -5.632   3.064 126.110  0.00  0.00    +0.031 C 
ATOM     21  C   LIG A   1      -5.899   1.678 125.616  0.00  0.00    -0.026 C 
ATOM     22  C   LIG A   1      -6.258   0.608 126.348  0.00  0.00    -0.063 C 
ATOM     23  C   LIG A   1      -6.348  -0.812 125.745  0.00  0.00    +0.024 C 
ATOM     24  C   LIG A   1      -6.152  -0.923 124.209  0.00  0.00    +0.014 C 
ATOM     25  C   LIG A   1      -3.386   2.991 128.346  0.00  0.00    +0.012 C 
ATOM     26  C   LIG A   1      -2.880   4.403 131.252  0.00  0.00    +0.014 C 
ATOM     27  C   LIG A   1      -8.236   2.650 127.817  0.00  0.00    +0.012 C 
ATOM     28  C   LIG A   1      -5.159   0.194 128.513  0.00  0.00    +0.016 C 
ATOM     29  C   LIG A   1      -4.712  -3.007 124.039  0.00  0.00    +0.011 C 
ENDROOT
BRANCH  15  30
ATOM     30  O   LIG A   1      -2.752   7.226 130.602  0.00  0.00    -0.391 OA
ATOM     31  H   LIG A   1      -3.221   7.963 131.026  0.00  0.00    +0.210 HD
ENDBRANCH  15  30
BRANCH   5  32
ATOM     32  C   LIG A   1      -8.945  -1.110 125.595  0.00  0.00    +0.163 C 
BRANCH  32  33
ATOM     33  O   LIG A   1      -9.959  -2.092 125.521  0.00  0.00    -0.394 OA
ATOM     34  H   LIG A   1      -9.941  -2.466 124.625  0.00  0.00    +0.209 HD
ENDBRANCH  32  33
ENDBRANCH   5  32
TORSDOF 3
ENDMDL
MODEL 5
REMARK VINA RESULT:      -8.4      1.846      8.188
REMARK  Name = NuBBE_365
REMARK  10 active torsions:
REMARK  status: ('A' for Active; 'I' for Inactive)
REMARK    1  A    between atoms: C_1  and  C_2
REMARK    2  A    between atoms: C_2  and  C_36
REMARK    3  A    between atoms: C_5  and  C_34
REMARK    4  A    between atoms: C_8  and  C_33
REMARK    5  A    between atoms: C_9  and  C_32
REMARK    6  A    between atoms: C_14  and  C_15
REMARK    7  A    between atoms: C_14  and  C_31
REMARK    8  A    between atoms: C_16  and  O_30
REMARK    9  A    between atoms: C_20  and  C_29
REMARK   10  A    between atoms: C_34  and  O_35
REMARK                            x       y       z     vdW  Elec       q    Type
REMARK                         _______ _______ _______ _____ _____    ______ ____
ROOT
ATOM      1  C   LIG A   1      -6.347  -5.423 134.720  0.00  0.00    +0.011 C 
ATOM      2  C   LIG A   1      -5.474  -4.605 133.747  0.00  0.00    -0.034 C 
ATOM      3  C   LIG A   1      -4.800  -3.461 134.531  0.00  0.00    +0.007 C 
ATOM      4  C   LIG A   1      -4.176  -2.392 133.632  0.00  0.00    +0.010 C 
ATOM      5  C   LIG A   1      -5.164  -1.814 132.577  0.00  0.00    +0.000 C 
ATOM      6  C   LIG A   1      -4.356  -0.868 131.659  0.00  0.00    +0.010 C 
ATOM      7  C   LIG A   1      -5.124  -0.370 130.433  0.00  0.00    +0.012 C 
ATOM      8  C   LIG A   1      -5.830  -1.470 129.561  0.00  0.00    -0.005 C 
ATOM      9  C   LIG A   1      -6.919  -0.785 128.554  0.00  0.00    -0.019 C 
ATOM     10  C   LIG A   1      -6.269   0.196 127.530  0.00  0.00    +0.008 C 
ATOM     11  C   LIG A   1      -5.986  -0.330 126.126  0.00  0.00    +0.005 C 
ATOM     12  C   LIG A   1      -7.225  -1.013 125.526  0.00  0.00    +0.003 C 
ATOM     13  C   LIG A   1      -7.192  -1.171 123.960  0.00  0.00    -0.006 C 
ATOM     14  C   LIG A   1      -7.138   0.234 123.295  0.00  0.00    +0.014 C 
ATOM     15  C   LIG A   1      -8.524  -1.833 123.499  0.00  0.00    +0.120 C 
ATOM     16  C   LIG A   1      -8.867  -3.115 124.248  0.00  0.00    +0.032 C 
ATOM     17  C   LIG A   1      -8.906  -2.899 125.759  0.00  0.00    +0.010 C 
ATOM     18  C   LIG A   1      -7.594  -2.294 126.358  0.00  0.00    -0.025 C 
ATOM     19  C   LIG A   1      -7.892  -1.816 127.850  0.00  0.00    +0.006 C 
ATOM     20  C   LIG A   1      -8.400  -2.911 128.815  0.00  0.00    +0.031 C 
ATOM     21  C   LIG A   1      -7.631  -3.144 130.077  0.00  0.00    -0.026 C 
ATOM     22  C   LIG A   1      -6.487  -2.547 130.455  0.00  0.00    -0.063 C 
ATOM     23  C   LIG A   1      -5.700  -2.990 131.708  0.00  0.00    +0.024 C 
ATOM     24  C   LIG A   1      -6.374  -4.065 132.603  0.00  0.00    +0.014 C 
ATOM     25  C   LIG A   1      -6.521  -3.400 126.309  0.00  0.00    +0.012 C 
ATOM     26  C   LIG A   1      -5.958  -1.935 123.440  0.00  0.00    +0.014 C 
ATOM     27  C   LIG A   1      -7.887   0.131 129.404  0.00  0.00    +0.012 C 
ATOM     28  C   LIG A   1      -4.695  -2.198 128.802  0.00  0.00    +0.016 C 
ATOM     29  C   LIG A   1      -4.398  -5.552 133.175  0.00  0.00    +0.011 C 
ENDROOT
BRANCH  15  30
ATOM     30  O   LIG A   1      -8.523  -2.102 122.098  0.00  0.00    -0.391 OA
ATOM     31  H   LIG A   1      -9.008  -2.930 121.947  0.00  0.00    +0.210 HD
ENDBRANCH  15  30
BRANCH   5  32
ATOM     32  C   LIG A   1      -6.267  -1.034 133.353  0.00  0.00    +0.163 C 
BRANCH  32  33
ATOM     33  O   LIG A   1      -5.790   0.080 134.081  0.00  0.00    -0.394 OA
ATOM     34  H   LIG A   1      -6.057  -0.037 135.007  0.00  0.00    +0.209 HD
ENDBRANCH  32  33
ENDBRANCH   5  32
TORSDOF 3
ENDMDL
MODEL 6
REMARK VINA RESULT:      -8.3      4.438      9.038
REMARK  Name = NuBBE_365
REMARK  10 active torsions:
REMARK  status: ('A' for Active; 'I' for Inactive)
REMARK    1  A    between atoms: C_1  and  C_2
REMARK    2  A    between atoms: C_2  and  C_36
REMARK    3  A    between atoms: C_5  and  C_34
REMARK    4  A    between atoms: C_8  and  C_33
REMARK    5  A    between atoms: C_9  and  C_32
REMARK    6  A    between atoms: C_14  and  C_15
REMARK    7  A    between atoms: C_14  and  C_31
REMARK    8  A    between atoms: C_16  and  O_30
REMARK    9  A    between atoms: C_20  and  C_29
REMARK   10  A    between atoms: C_34  and  O_35
REMARK                            x       y       z     vdW  Elec       q    Type
REMARK                         _______ _______ _______ _____ _____    ______ ____
ROOT
ATOM      1  C   LIG A   1      -2.704   6.046 133.906  0.00  0.00    +0.011 C 
ATOM      2  C   LIG A   1      -2.354   5.568 132.483  0.00  0.00    -0.034 C 
ATOM      3  C   LIG A   1      -1.940   6.791 131.639  0.00  0.00    +0.007 C 
ATOM      4  C   LIG A   1      -1.886   6.504 130.138  0.00  0.00    +0.010 C 
ATOM      5  C   LIG A   1      -3.197   5.881 129.577  0.00  0.00    +0.000 C 
ATOM      6  C   LIG A   1      -2.937   5.515 128.097  0.00  0.00    +0.010 C 
ATOM      7  C   LIG A   1      -4.053   4.699 127.443  0.00  0.00    +0.012 C 
ATOM      8  C   LIG A   1      -4.529   3.421 128.225  0.00  0.00    -0.005 C 
ATOM      9  C   LIG A   1      -5.958   2.893 127.636  0.00  0.00    -0.019 C 
ATOM     10  C   LIG A   1      -5.877   2.454 126.141  0.00  0.00    +0.008 C 
ATOM     11  C   LIG A   1      -5.728   0.964 125.847  0.00  0.00    +0.005 C 
ATOM     12  C   LIG A   1      -6.775   0.138 126.609  0.00  0.00    +0.003 C 
ATOM     13  C   LIG A   1      -7.008  -1.311 126.038  0.00  0.00    -0.006 C 
ATOM     14  C   LIG A   1      -7.542  -1.218 124.580  0.00  0.00    +0.014 C 
ATOM     15  C   LIG A   1      -8.121  -2.004 126.879  0.00  0.00    +0.120 C 
ATOM     16  C   LIG A   1      -7.877  -1.957 128.382  0.00  0.00    +0.032 C 
ATOM     17  C   LIG A   1      -7.680  -0.529 128.883  0.00  0.00    +0.010 C 
ATOM     18  C   LIG A   1      -6.539   0.258 128.158  0.00  0.00    -0.025 C 
ATOM     19  C   LIG A   1      -6.669   1.801 128.535  0.00  0.00    +0.006 C 
ATOM     20  C   LIG A   1      -6.594   2.131 130.043  0.00  0.00    +0.031 C 
ATOM     21  C   LIG A   1      -5.555   3.106 130.496  0.00  0.00    -0.026 C 
ATOM     22  C   LIG A   1      -4.612   3.700 129.743  0.00  0.00    -0.063 C 
ATOM     23  C   LIG A   1      -3.490   4.566 130.357  0.00  0.00    +0.024 C 
ATOM     24  C   LIG A   1      -3.590   4.848 131.881  0.00  0.00    +0.014 C 
ATOM     25  C   LIG A   1      -5.201  -0.343 128.633  0.00  0.00    +0.012 C 
ATOM     26  C   LIG A   1      -5.725  -2.163 125.966  0.00  0.00    +0.014 C 
ATOM     27  C   LIG A   1      -6.978   4.101 127.627  0.00  0.00    +0.012 C 
ATOM     28  C   LIG A   1      -3.396   2.379 128.057  0.00  0.00    +0.016 C 
ATOM     29  C   LIG A   1      -1.169   4.587 132.597  0.00  0.00    +0.011 C 
ENDROOT
BRANCH  15  30
ATOM     30  O   LIG A   1      -8.315  -3.361 126.482  0.00  0.00    -0.391 OA
ATOM     31  H   LIG A   1      -7.603  -3.895 126.872  0.00  0.00    +0.210 HD
ENDBRANCH  15  30
BRANCH   5  32
ATOM     32  C   LIG A   1      -4.313   6.963 129.698  0.00  0.00    +0.163 C 
BRANCH  32  33
ATOM     33  O   LIG A   1      -4.137   8.078 128.847  0.00  0.00    -0.394 OA
ATOM     34  H   LIG A   1      -3.332   7.927 128.328  0.00  0.00    +0.209 HD
ENDBRANCH  32  33
ENDBRANCH   5  32
TORSDOF 3
ENDMDL
MODEL 7
REMARK VINA RESULT:      -8.3      6.796      9.024
REMARK  Name = NuBBE_365
REMARK  10 active torsions:
REMARK  status: ('A' for Active; 'I' for Inactive)
REMARK    1  A    between atoms: C_1  and  C_2
REMARK    2  A    between atoms: C_2  and  C_36
REMARK    3  A    between atoms: C_5  and  C_34
REMARK    4  A    between atoms: C_8  and  C_33
REMARK    5  A    between atoms: C_9  and  C_32
REMARK    6  A    between atoms: C_14  and  C_15
REMARK    7  A    between atoms: C_14  and  C_31
REMARK    8  A    between atoms: C_16  and  O_30
REMARK    9  A    between atoms: C_20  and  C_29
REMARK   10  A    between atoms: C_34  and  O_35
REMARK                            x       y       z     vdW  Elec       q    Type
REMARK                         _______ _______ _______ _____ _____    ______ ____
ROOT
ATOM      1  C   LIG A   1      -3.903   3.848 125.686  0.00  0.00    +0.011 C 
ATOM      2  C   LIG A   1      -3.401   3.406 127.075  0.00  0.00    -0.034 C 
ATOM      3  C   LIG A   1      -4.175   2.141 127.500  0.00  0.00    +0.007 C 
ATOM      4  C   LIG A   1      -4.009   1.796 128.981  0.00  0.00    +0.010 C 
ATOM      5  C   LIG A   1      -4.344   2.979 129.936  0.00  0.00    +0.000 C 
ATOM      6  C   LIG A   1      -3.989   2.526 131.371  0.00  0.00    +0.010 C 
ATOM      7  C   LIG A   1      -4.057   3.639 132.419  0.00  0.00    +0.012 C 
ATOM      8  C   LIG A   1      -3.282   4.962 132.079  0.00  0.00    -0.005 C 
ATOM      9  C   LIG A   1      -3.765   6.173 133.062  0.00  0.00    -0.019 C 
ATOM     10  C   LIG A   1      -3.462   5.895 134.567  0.00  0.00    +0.008 C 
ATOM     11  C   LIG A   1      -2.208   6.525 135.166  0.00  0.00    +0.005 C 
ATOM     12  C   LIG A   1      -2.138   8.028 134.859  0.00  0.00    +0.003 C 
ATOM     13  C   LIG A   1      -1.165   8.843 135.791  0.00  0.00    -0.006 C 
ATOM     14  C   LIG A   1      -1.654   8.750 137.265  0.00  0.00    +0.014 C 
ATOM     15  C   LIG A   1      -1.236  10.346 135.390  0.00  0.00    +0.120 C 
ATOM     16  C   LIG A   1      -1.030  10.598 133.902  0.00  0.00    +0.032 C 
ATOM     17  C   LIG A   1      -2.013   9.801 133.048  0.00  0.00    +0.010 C 
ATOM     18  C   LIG A   1      -1.992   8.259 133.311  0.00  0.00    -0.025 C 
ATOM     19  C   LIG A   1      -3.272   7.610 132.616  0.00  0.00    +0.006 C 
ATOM     20  C   LIG A   1      -3.393   7.835 131.092  0.00  0.00    +0.031 C 
ATOM     21  C   LIG A   1      -3.510   6.630 130.214  0.00  0.00    -0.026 C 
ATOM     22  C   LIG A   1      -3.458   5.340 130.590  0.00  0.00    -0.063 C 
ATOM     23  C   LIG A   1      -3.427   4.182 129.567  0.00  0.00    +0.024 C 
ATOM     24  C   LIG A   1      -3.615   4.573 128.076  0.00  0.00    +0.014 C 
ATOM     25  C   LIG A   1      -0.676   7.716 132.720  0.00  0.00    +0.012 C 
ATOM     26  C   LIG A   1       0.283   8.313 135.790  0.00  0.00    +0.014 C 
ATOM     27  C   LIG A   1      -5.342   6.277 133.001  0.00  0.00    +0.012 C 
ATOM     28  C   LIG A   1      -1.780   4.625 132.246  0.00  0.00    +0.016 C 
ATOM     29  C   LIG A   1      -1.898   3.082 126.948  0.00  0.00    +0.011 C 
ENDROOT
BRANCH  15  30
ATOM     30  O   LIG A   1      -0.301  11.134 136.127  0.00  0.00    -0.391 OA
ATOM     31  H   LIG A   1       0.573  10.716 136.053  0.00  0.00    +0.210 HD
ENDBRANCH  15  30
BRANCH   5  32
ATOM     32  C   LIG A   1      -5.869   3.267 129.801  0.00  0.00    +0.163 C 
BRANCH  32  33
ATOM     33  O   LIG A   1      -6.701   2.203 130.218  0.00  0.00    -0.394 OA
ATOM     34  H   LIG A   1      -7.227   2.519 130.970  0.00  0.00    +0.209 HD
ENDBRANCH  32  33
ENDBRANCH   5  32
TORSDOF 3
ENDMDL
MODEL 8
REMARK VINA RESULT:      -8.2      2.035      8.202
REMARK  Name = NuBBE_365
REMARK  10 active torsions:
REMARK  status: ('A' for Active; 'I' for Inactive)
REMARK    1  A    between atoms: C_1  and  C_2
REMARK    2  A    between atoms: C_2  and  C_36
REMARK    3  A    between atoms: C_5  and  C_34
REMARK    4  A    between atoms: C_8  and  C_33
REMARK    5  A    between atoms: C_9  and  C_32
REMARK    6  A    between atoms: C_14  and  C_15
REMARK    7  A    between atoms: C_14  and  C_31
REMARK    8  A    between atoms: C_16  and  O_30
REMARK    9  A    between atoms: C_20  and  C_29
REMARK   10  A    between atoms: C_34  and  O_35
REMARK                            x       y       z     vdW  Elec       q    Type
REMARK                         _______ _______ _______ _____ _____    ______ ____
ROOT
ATOM      1  C   LIG A   1      -8.581  -3.107 136.720  0.00  0.00    +0.011 C 
ATOM      2  C   LIG A   1      -7.837  -3.871 135.607  0.00  0.00    -0.034 C 
ATOM      3  C   LIG A   1      -6.470  -4.332 136.153  0.00  0.00    +0.007 C 
ATOM      4  C   LIG A   1      -5.509  -4.808 135.064  0.00  0.00    +0.010 C 
ATOM      5  C   LIG A   1      -5.310  -3.775 133.917  0.00  0.00    +0.000 C 
ATOM      6  C   LIG A   1      -4.440  -4.453 132.832  0.00  0.00    +0.010 C 
ATOM      7  C   LIG A   1      -4.316  -3.655 131.533  0.00  0.00    +0.012 C 
ATOM      8  C   LIG A   1      -5.662  -3.157 130.892  0.00  0.00    -0.005 C 
ATOM      9  C   LIG A   1      -5.366  -2.007 129.771  0.00  0.00    -0.019 C 
ATOM     10  C   LIG A   1      -4.509  -2.526 128.575  0.00  0.00    +0.008 C 
ATOM     11  C   LIG A   1      -5.243  -2.931 127.301  0.00  0.00    +0.005 C 
ATOM     12  C   LIG A   1      -6.217  -1.834 126.845  0.00  0.00    +0.003 C 
ATOM     13  C   LIG A   1      -6.666  -1.940 125.340  0.00  0.00    -0.006 C 
ATOM     14  C   LIG A   1      -5.424  -1.794 124.413  0.00  0.00    +0.014 C 
ATOM     15  C   LIG A   1      -7.609  -0.743 125.016  0.00  0.00    +0.120 C 
ATOM     16  C   LIG A   1      -8.760  -0.583 126.001  0.00  0.00    +0.032 C 
ATOM     17  C   LIG A   1      -8.267  -0.463 127.440  0.00  0.00    +0.010 C 
ATOM     18  C   LIG A   1      -7.357  -1.645 127.911  0.00  0.00    -0.025 C 
ATOM     19  C   LIG A   1      -6.655  -1.230 129.281  0.00  0.00    +0.006 C 
ATOM     20  C   LIG A   1      -7.611  -0.870 130.441  0.00  0.00    +0.031 C 
ATOM     21  C   LIG A   1      -7.472  -1.626 131.723  0.00  0.00    -0.026 C 
ATOM     22  C   LIG A   1      -6.638  -2.650 131.978  0.00  0.00    -0.063 C 
ATOM     23  C   LIG A   1      -6.701  -3.458 133.294  0.00  0.00    +0.024 C 
ATOM     24  C   LIG A   1      -7.677  -2.932 134.381  0.00  0.00    +0.014 C 
ATOM     25  C   LIG A   1      -8.266  -2.879 128.077  0.00  0.00    +0.012 C 
ATOM     26  C   LIG A   1      -7.308  -3.294 124.978  0.00  0.00    +0.014 C 
ATOM     27  C   LIG A   1      -4.471  -0.880 130.426  0.00  0.00    +0.012 C 
ATOM     28  C   LIG A   1      -6.332  -4.416 130.289  0.00  0.00    +0.016 C 
ATOM     29  C   LIG A   1      -8.691  -5.099 135.231  0.00  0.00    +0.011 C 
ENDROOT
BRANCH  15  30
ATOM     30  O   LIG A   1      -8.137  -0.830 123.694  0.00  0.00    -0.391 OA
ATOM     31  H   LIG A   1      -7.517  -0.389 123.090  0.00  0.00    +0.210 HD
ENDBRANCH  15  30
BRANCH   5  32
ATOM     32  C   LIG A   1      -4.581  -2.540 134.526  0.00  0.00    +0.163 C 
BRANCH  32  33
ATOM     33  O   LIG A   1      -3.234  -2.776 134.882  0.00  0.00    -0.394 OA
ATOM     34  H   LIG A   1      -2.678  -2.480 134.142  0.00  0.00    +0.209 HD
ENDBRANCH  32  33
ENDBRANCH   5  32
TORSDOF 3
ENDMDL
MODEL 9
REMARK VINA RESULT:      -8.2      3.964      8.739
REMARK  Name = NuBBE_365
REMARK  10 active torsions:
REMARK  status: ('A' for Active; 'I' for Inactive)
REMARK    1  A    between atoms: C_1  and  C_2
REMARK    2  A    between atoms: C_2  and  C_36
REMARK    3  A    between atoms: C_5  and  C_34
REMARK    4  A    between atoms: C_8  and  C_33
REMARK    5  A    between atoms: C_9  and  C_32
REMARK    6  A    between atoms: C_14  and  C_15
REMARK    7  A    between atoms: C_14  and  C_31
REMARK    8  A    between atoms: C_16  and  O_30
REMARK    9  A    between atoms: C_20  and  C_29
REMARK   10  A    between atoms: C_34  and  O_35
REMARK                            x       y       z     vdW  Elec       q    Type
REMARK                         _______ _______ _______ _____ _____    ______ ____
ROOT
ATOM      1  C   LIG A   1      -1.192   5.757 132.266  0.00  0.00    +0.011 C 
ATOM      2  C   LIG A   1      -2.419   5.899 131.344  0.00  0.00    -0.034 C 
ATOM      3  C   LIG A   1      -3.432   6.850 132.013  0.00  0.00    +0.007 C 
ATOM      4  C   LIG A   1      -4.817   6.818 131.365  0.00  0.00    +0.010 C 
ATOM      5  C   LIG A   1      -5.416   5.386 131.251  0.00  0.00    +0.000 C 
ATOM      6  C   LIG A   1      -6.734   5.501 130.450  0.00  0.00    +0.010 C 
ATOM      7  C   LIG A   1      -7.355   4.158 130.061  0.00  0.00    +0.012 C 
ATOM      8  C   LIG A   1      -6.400   3.129 129.355  0.00  0.00    -0.005 C 
ATOM      9  C   LIG A   1      -7.062   1.636 129.368  0.00  0.00    -0.019 C 
ATOM     10  C   LIG A   1      -8.405   1.558 128.578  0.00  0.00    +0.008 C 
ATOM     11  C   LIG A   1      -8.357   1.025 127.149  0.00  0.00    +0.005 C 
ATOM     12  C   LIG A   1      -7.597  -0.308 127.077  0.00  0.00    +0.003 C 
ATOM     13  C   LIG A   1      -7.879  -1.153 125.779  0.00  0.00    -0.006 C 
ATOM     14  C   LIG A   1      -9.386  -1.539 125.725  0.00  0.00    +0.014 C 
ATOM     15  C   LIG A   1      -7.079  -2.486 125.870  0.00  0.00    +0.120 C 
ATOM     16  C   LIG A   1      -5.600  -2.297 126.182  0.00  0.00    +0.032 C 
ATOM     17  C   LIG A   1      -5.386  -1.491 127.460  0.00  0.00    +0.010 C 
ATOM     18  C   LIG A   1      -6.089  -0.094 127.467  0.00  0.00    -0.025 C 
ATOM     19  C   LIG A   1      -6.066   0.478 128.955  0.00  0.00    +0.006 C 
ATOM     20  C   LIG A   1      -4.665   0.644 129.586  0.00  0.00    +0.031 C 
ATOM     21  C   LIG A   1      -4.282   1.997 130.096  0.00  0.00    -0.026 C 
ATOM     22  C   LIG A   1      -5.001   3.131 130.013  0.00  0.00    -0.063 C 
ATOM     23  C   LIG A   1      -4.428   4.503 130.433  0.00  0.00    +0.024 C 
ATOM     24  C   LIG A   1      -3.027   4.491 131.103  0.00  0.00    +0.014 C 
ATOM     25  C   LIG A   1      -5.314   0.809 126.488  0.00  0.00    +0.012 C 
ATOM     26  C   LIG A   1      -7.588  -0.395 124.469  0.00  0.00    +0.014 C 
ATOM     27  C   LIG A   1      -7.469   1.275 130.853  0.00  0.00    +0.012 C 
ATOM     28  C   LIG A   1      -6.183   3.670 127.921  0.00  0.00    +0.016 C 
ATOM     29  C   LIG A   1      -1.935   6.506 130.011  0.00  0.00    +0.011 C 
ENDROOT
BRANCH  15  30
ATOM     30  O   LIG A   1      -7.207  -3.262 124.679  0.00  0.00    -0.391 OA
ATOM     31  H   LIG A   1      -7.091  -2.669 123.918  0.00  0.00    +0.210 HD
ENDBRANCH  15  30
BRANCH   5  32
ATOM     32  C   LIG A   1      -5.684   4.878 132.700  0.00  0.00    +0.163 C 
BRANCH  32  33
ATOM     33  O   LIG A   1      -6.618   5.653 133.424  0.00  0.00    -0.394 OA
ATOM     34  H   LIG A   1      -7.425   5.718 132.888  0.00  0.00    +0.209 HD
ENDBRANCH  32  33
ENDBRANCH   5  32
TORSDOF 3
ENDMDL
