MODEL 1
REMARK VINA RESULT:      -6.7      0.000      0.000
REMARK  Name = NuBBE_616
REMARK  6 active torsions:
REMARK  status: ('A' for Active; 'I' for Inactive)
REMARK    1  A    between atoms: C_3  and  C_4
REMARK    2  A    between atoms: C_4  and  C_7
REMARK    3  A    between atoms: C_7  and  O_8
REMARK    4  A    between atoms: C_12  and  C_13
REMARK    5  A    between atoms: C_14  and  C_16
REMARK    6  A    between atoms: C_17  and  O_19
REMARK                            x       y       z     vdW  Elec       q    Type
REMARK                         _______ _______ _______ _____ _____    ______ ____
ROOT
ATOM      1  O   LIG A   1      -9.803   8.166 128.933  0.00  0.00    -0.289 OA
ATOM      2  C   LIG A   1      -9.626   7.296 129.783  0.00  0.00    +0.193 C 
ATOM      3  C   LIG A   1     -10.679   6.308 130.126  0.00  0.00    +0.191 C 
ATOM      4  O   LIG A   1     -10.454   5.025 129.505  0.00  0.00    -0.352 OA
ATOM      5  C   LIG A   1     -10.288   5.077 130.930  0.00  0.00    +0.173 C 
ATOM      6  C   LIG A   1      -8.858   4.882 131.446  0.00  0.00    +0.024 C 
ATOM      7  C   LIG A   1      -8.184   3.755 130.625  0.00  0.00    +0.019 C 
ATOM      8  C   LIG A   1      -8.939   4.487 132.977  0.00  0.00    +0.027 C 
ATOM      9  C   LIG A   1      -9.546   3.087 133.217  0.00  0.00    +0.011 C 
ATOM     10  C   LIG A   1      -7.576   4.569 133.705  0.00  0.00    +0.119 C 
ATOM     11  C   LIG A   1      -6.888   5.910 133.490  0.00  0.00    +0.036 C 
ATOM     12  C   LIG A   1      -6.685   6.186 132.013  0.00  0.00    +0.034 C 
ATOM     13  C   LIG A   1      -8.007   6.157 131.288  0.00  0.00    -0.057 C 
ATOM     14  C   LIG A   1      -8.365   7.222 130.544  0.00  0.00    +0.049 C 
ENDROOT
BRANCH   3  15
ATOM     15  C   LIG A   1     -12.140   6.818 130.110  0.00  0.00    +0.154 C 
ATOM     16  O   LIG A   1     -12.308   8.212 130.475  0.00  0.00    -0.362 OA
ATOM     17  C   LIG A   1     -12.861   7.250 131.376  0.00  0.00    +0.201 C 
BRANCH  15  18
ATOM     18  C   LIG A   1     -12.964   6.471 128.894  0.00  0.00    +0.196 C 
BRANCH  18  19
ATOM     19  O   LIG A   1     -12.148   6.592 127.731  0.00  0.00    -0.392 OA
ATOM     20  H   LIG A   1     -12.165   7.538 127.496  0.00  0.00    +0.209 HD
ENDBRANCH  18  19
ENDBRANCH  15  18
ENDBRANCH   3  15
BRANCH  10  21
ATOM     21  O   LIG A   1      -7.751   4.410 135.113  0.00  0.00    -0.392 OA
ATOM     22  H   LIG A   1      -7.550   5.260 135.540  0.00  0.00    +0.210 HD
ENDBRANCH  10  21
TORSDOF 4
ENDMDL
MODEL 2
REMARK VINA RESULT:      -6.5      2.007      5.661
REMARK  Name = NuBBE_616
REMARK  6 active torsions:
REMARK  status: ('A' for Active; 'I' for Inactive)
REMARK    1  A    between atoms: C_3  and  C_4
REMARK    2  A    between atoms: C_4  and  C_7
REMARK    3  A    between atoms: C_7  and  O_8
REMARK    4  A    between atoms: C_12  and  C_13
REMARK    5  A    between atoms: C_14  and  C_16
REMARK    6  A    between atoms: C_17  and  O_19
REMARK                            x       y       z     vdW  Elec       q    Type
REMARK                         _______ _______ _______ _____ _____    ______ ____
ROOT
ATOM      1  O   LIG A   1      -9.440   4.919 132.958  0.00  0.00    -0.289 OA
ATOM      2  C   LIG A   1      -9.891   5.620 132.055  0.00  0.00    +0.193 C 
ATOM      3  C   LIG A   1      -9.174   5.797 130.767  0.00  0.00    +0.191 C 
ATOM      4  O   LIG A   1      -9.725   4.980 129.713  0.00  0.00    -0.352 OA
ATOM      5  C   LIG A   1      -9.928   6.397 129.590  0.00  0.00    +0.173 C 
ATOM      6  C   LIG A   1     -11.375   6.881 129.733  0.00  0.00    +0.024 C 
ATOM      7  C   LIG A   1     -12.305   5.894 128.985  0.00  0.00    +0.019 C 
ATOM      8  C   LIG A   1     -11.472   8.329 129.101  0.00  0.00    +0.027 C 
ATOM      9  C   LIG A   1     -11.294   8.341 127.566  0.00  0.00    +0.011 C 
ATOM     10  C   LIG A   1     -12.786   9.067 129.454  0.00  0.00    +0.119 C 
ATOM     11  C   LIG A   1     -13.059   9.072 130.952  0.00  0.00    +0.036 C 
ATOM     12  C   LIG A   1     -13.115   7.659 131.499  0.00  0.00    +0.034 C 
ATOM     13  C   LIG A   1     -11.825   6.932 131.207  0.00  0.00    -0.057 C 
ATOM     14  C   LIG A   1     -11.151   6.366 132.226  0.00  0.00    +0.049 C 
ENDROOT
BRANCH   3  15
ATOM     15  C   LIG A   1      -7.629   5.856 130.836  0.00  0.00    +0.154 C 
ATOM     16  O   LIG A   1      -7.089   6.404 132.066  0.00  0.00    -0.362 OA
ATOM     17  C   LIG A   1      -6.870   7.172 130.881  0.00  0.00    +0.201 C 
BRANCH  15  18
ATOM     18  C   LIG A   1      -6.886   4.609 130.425  0.00  0.00    +0.196 C 
BRANCH  18  19
ATOM     19  O   LIG A   1      -7.587   3.468 130.913  0.00  0.00    -0.392 OA
ATOM     20  H   LIG A   1      -6.974   3.028 131.532  0.00  0.00    +0.209 HD
ENDBRANCH  18  19
ENDBRANCH  15  18
ENDBRANCH   3  15
BRANCH  10  21
ATOM     21  O   LIG A   1     -12.720  10.431 129.038  0.00  0.00    -0.392 OA
ATOM     22  H   LIG A   1     -13.350  10.554 128.308  0.00  0.00    +0.210 HD
ENDBRANCH  10  21
TORSDOF 4
ENDMDL
MODEL 3
REMARK VINA RESULT:      -6.1      7.923     10.172
REMARK  Name = NuBBE_616
REMARK  6 active torsions:
REMARK  status: ('A' for Active; 'I' for Inactive)
REMARK    1  A    between atoms: C_3  and  C_4
REMARK    2  A    between atoms: C_4  and  C_7
REMARK    3  A    between atoms: C_7  and  O_8
REMARK    4  A    between atoms: C_12  and  C_13
REMARK    5  A    between atoms: C_14  and  C_16
REMARK    6  A    between atoms: C_17  and  O_19
REMARK                            x       y       z     vdW  Elec       q    Type
REMARK                         _______ _______ _______ _____ _____    ______ ____
ROOT
ATOM      1  O   LIG A   1      -7.153  -1.370 126.304  0.00  0.00    -0.289 OA
ATOM      2  C   LIG A   1      -7.107  -0.402 125.548  0.00  0.00    +0.193 C 
ATOM      3  C   LIG A   1      -7.649  -0.459 124.166  0.00  0.00    +0.191 C 
ATOM      4  O   LIG A   1      -8.946   0.164 124.058  0.00  0.00    -0.352 OA
ATOM      5  C   LIG A   1      -7.859   0.845 123.411  0.00  0.00    +0.173 C 
ATOM      6  C   LIG A   1      -7.456   2.192 124.020  0.00  0.00    +0.024 C 
ATOM      7  C   LIG A   1      -8.741   2.967 124.404  0.00  0.00    +0.019 C 
ATOM      8  C   LIG A   1      -6.624   2.990 122.936  0.00  0.00    +0.027 C 
ATOM      9  C   LIG A   1      -7.469   3.441 121.724  0.00  0.00    +0.011 C 
ATOM     10  C   LIG A   1      -5.886   4.223 123.512  0.00  0.00    +0.119 C 
ATOM     11  C   LIG A   1      -5.052   3.874 124.737  0.00  0.00    +0.036 C 
ATOM     12  C   LIG A   1      -5.912   3.252 125.821  0.00  0.00    +0.034 C 
ATOM     13  C   LIG A   1      -6.607   2.020 125.296  0.00  0.00    -0.057 C 
ATOM     14  C   LIG A   1      -6.464   0.858 125.961  0.00  0.00    +0.049 C 
ENDROOT
BRANCH   3  15
ATOM     15  C   LIG A   1      -7.480  -1.799 123.411  0.00  0.00    +0.154 C 
ATOM     16  O   LIG A   1      -6.308  -2.570 123.781  0.00  0.00    -0.362 OA
ATOM     17  C   LIG A   1      -6.328  -2.047 122.451  0.00  0.00    +0.201 C 
BRANCH  15  18
ATOM     18  C   LIG A   1      -8.701  -2.680 123.314  0.00  0.00    +0.196 C 
BRANCH  18  19
ATOM     19  O   LIG A   1      -9.458  -2.558 124.515  0.00  0.00    -0.392 OA
ATOM     20  H   LIG A   1      -9.177  -3.303 125.079  0.00  0.00    +0.209 HD
ENDBRANCH  18  19
ENDBRANCH  15  18
ENDBRANCH   3  15
BRANCH  10  21
ATOM     21  O   LIG A   1      -4.993   4.770 122.541  0.00  0.00    -0.392 OA
ATOM     22  H   LIG A   1      -5.148   4.314 121.698  0.00  0.00    +0.210 HD
ENDBRANCH  10  21
TORSDOF 4
ENDMDL
MODEL 4
REMARK VINA RESULT:      -6.0      7.154      9.318
REMARK  Name = NuBBE_616
REMARK  6 active torsions:
REMARK  status: ('A' for Active; 'I' for Inactive)
REMARK    1  A    between atoms: C_3  and  C_4
REMARK    2  A    between atoms: C_4  and  C_7
REMARK    3  A    between atoms: C_7  and  O_8
REMARK    4  A    between atoms: C_12  and  C_13
REMARK    5  A    between atoms: C_14  and  C_16
REMARK    6  A    between atoms: C_17  and  O_19
REMARK                            x       y       z     vdW  Elec       q    Type
REMARK                         _______ _______ _______ _____ _____    ______ ____
ROOT
ATOM      1  O   LIG A   1      -7.359   2.263 127.640  0.00  0.00    -0.289 OA
ATOM      2  C   LIG A   1      -7.502   1.379 126.799  0.00  0.00    +0.193 C 
ATOM      3  C   LIG A   1      -7.178   1.600 125.367  0.00  0.00    +0.191 C 
ATOM      4  O   LIG A   1      -5.902   1.037 124.997  0.00  0.00    -0.352 OA
ATOM      5  C   LIG A   1      -7.062   0.390 124.451  0.00  0.00    +0.173 C 
ATOM      6  C   LIG A   1      -7.342  -1.027 124.963  0.00  0.00    +0.024 C 
ATOM      7  C   LIG A   1      -6.000  -1.793 125.063  0.00  0.00    +0.019 C 
ATOM      8  C   LIG A   1      -8.315  -1.736 123.935  0.00  0.00    +0.027 C 
ATOM      9  C   LIG A   1      -7.657  -2.027 122.569  0.00  0.00    +0.011 C 
ATOM     10  C   LIG A   1      -8.933  -3.047 124.478  0.00  0.00    +0.119 C 
ATOM     11  C   LIG A   1      -9.576  -2.858 125.845  0.00  0.00    +0.036 C 
ATOM     12  C   LIG A   1      -8.573  -2.324 126.848  0.00  0.00    +0.034 C 
ATOM     13  C   LIG A   1      -7.989  -1.020 126.362  0.00  0.00    -0.057 C 
ATOM     14  C   LIG A   1      -8.051   0.061 127.164  0.00  0.00    +0.049 C 
ENDROOT
BRANCH   3  15
ATOM     15  C   LIG A   1      -7.487   3.004 124.796  0.00  0.00    +0.154 C 
ATOM     16  O   LIG A   1      -8.834   3.485 125.039  0.00  0.00    -0.362 OA
ATOM     17  C   LIG A   1      -8.492   3.221 123.676  0.00  0.00    +0.201 C 
BRANCH  15  18
ATOM     18  C   LIG A   1      -6.467   4.084 125.067  0.00  0.00    +0.196 C 
BRANCH  18  19
ATOM     19  O   LIG A   1      -6.896   4.855 126.187  0.00  0.00    -0.392 OA
ATOM     20  H   LIG A   1      -6.119   5.381 126.456  0.00  0.00    +0.209 HD
ENDBRANCH  18  19
ENDBRANCH  15  18
ENDBRANCH   3  15
BRANCH  10  21
ATOM     21  O   LIG A   1      -9.954  -3.520 123.598  0.00  0.00    -0.392 OA
ATOM     22  H   LIG A   1     -10.459  -2.753 123.281  0.00  0.00    +0.210 HD
ENDBRANCH  10  21
TORSDOF 4
ENDMDL
MODEL 5
REMARK VINA RESULT:      -6.0      7.521      9.545
REMARK  Name = NuBBE_616
REMARK  6 active torsions:
REMARK  status: ('A' for Active; 'I' for Inactive)
REMARK    1  A    between atoms: C_3  and  C_4
REMARK    2  A    between atoms: C_4  and  C_7
REMARK    3  A    between atoms: C_7  and  O_8
REMARK    4  A    between atoms: C_12  and  C_13
REMARK    5  A    between atoms: C_14  and  C_16
REMARK    6  A    between atoms: C_17  and  O_19
REMARK                            x       y       z     vdW  Elec       q    Type
REMARK                         _______ _______ _______ _____ _____    ______ ____
ROOT
ATOM      1  O   LIG A   1      -9.802  -2.902 125.446  0.00  0.00    -0.289 OA
ATOM      2  C   LIG A   1      -8.909  -2.532 126.204  0.00  0.00    +0.193 C 
ATOM      3  C   LIG A   1      -8.018  -1.392 125.868  0.00  0.00    +0.191 C 
ATOM      4  O   LIG A   1      -8.398  -0.177 126.549  0.00  0.00    -0.352 OA
ATOM      5  C   LIG A   1      -7.166  -0.784 126.972  0.00  0.00    +0.173 C 
ATOM      6  C   LIG A   1      -7.160  -1.369 128.389  0.00  0.00    +0.024 C 
ATOM      7  C   LIG A   1      -7.913  -0.397 129.331  0.00  0.00    +0.019 C 
ATOM      8  C   LIG A   1      -5.653  -1.535 128.843  0.00  0.00    +0.027 C 
ATOM      9  C   LIG A   1      -4.928  -0.189 129.064  0.00  0.00    +0.011 C 
ATOM     10  C   LIG A   1      -5.487  -2.402 130.115  0.00  0.00    +0.119 C 
ATOM     11  C   LIG A   1      -6.204  -3.740 129.997  0.00  0.00    +0.036 C 
ATOM     12  C   LIG A   1      -7.681  -3.541 129.715  0.00  0.00    +0.034 C 
ATOM     13  C   LIG A   1      -7.870  -2.736 128.453  0.00  0.00    -0.057 C 
ATOM     14  C   LIG A   1      -8.643  -3.237 127.470  0.00  0.00    +0.049 C 
ENDROOT
BRANCH   3  15
ATOM     15  C   LIG A   1      -7.624  -1.235 124.380  0.00  0.00    +0.154 C 
ATOM     16  O   LIG A   1      -7.489  -2.479 123.646  0.00  0.00    -0.362 OA
ATOM     17  C   LIG A   1      -6.291  -1.725 123.840  0.00  0.00    +0.201 C 
BRANCH  15  18
ATOM     18  C   LIG A   1      -8.394  -0.213 123.580  0.00  0.00    +0.196 C 
BRANCH  18  19
ATOM     19  O   LIG A   1      -9.779  -0.326 123.894  0.00  0.00    -0.392 OA
ATOM     20  H   LIG A   1     -10.180   0.520 123.620  0.00  0.00    +0.209 HD
ENDBRANCH  18  19
ENDBRANCH  15  18
ENDBRANCH   3  15
BRANCH  10  21
ATOM     21  O   LIG A   1      -4.107  -2.688 130.348  0.00  0.00    -0.392 OA
ATOM     22  H   LIG A   1      -3.593  -2.311 129.615  0.00  0.00    +0.210 HD
ENDBRANCH  10  21
TORSDOF 4
ENDMDL
MODEL 6
REMARK VINA RESULT:      -5.9      7.356      9.282
REMARK  Name = NuBBE_616
REMARK  6 active torsions:
REMARK  status: ('A' for Active; 'I' for Inactive)
REMARK    1  A    between atoms: C_3  and  C_4
REMARK    2  A    between atoms: C_4  and  C_7
REMARK    3  A    between atoms: C_7  and  O_8
REMARK    4  A    between atoms: C_12  and  C_13
REMARK    5  A    between atoms: C_14  and  C_16
REMARK    6  A    between atoms: C_17  and  O_19
REMARK                            x       y       z     vdW  Elec       q    Type
REMARK                         _______ _______ _______ _____ _____    ______ ____
ROOT
ATOM      1  O   LIG A   1      -8.985   3.095 123.037  0.00  0.00    -0.289 OA
ATOM      2  C   LIG A   1      -8.373   2.176 123.576  0.00  0.00    +0.193 C 
ATOM      3  C   LIG A   1      -7.580   2.382 124.815  0.00  0.00    +0.191 C 
ATOM      4  O   LIG A   1      -8.276   1.931 125.996  0.00  0.00    -0.352 OA
ATOM      5  C   LIG A   1      -7.129   1.161 125.602  0.00  0.00    +0.173 C 
ATOM      6  C   LIG A   1      -7.415  -0.260 125.104  0.00  0.00    +0.024 C 
ATOM      7  C   LIG A   1      -8.504  -0.892 126.005  0.00  0.00    +0.019 C 
ATOM      8  C   LIG A   1      -6.069  -1.088 125.188  0.00  0.00    +0.027 C 
ATOM      9  C   LIG A   1      -5.605  -1.358 126.636  0.00  0.00    +0.011 C 
ATOM     10  C   LIG A   1      -6.128  -2.435 124.427  0.00  0.00    +0.119 C 
ATOM     11  C   LIG A   1      -6.612  -2.265 122.993  0.00  0.00    +0.036 C 
ATOM     12  C   LIG A   1      -7.978  -1.608 122.956  0.00  0.00    +0.034 C 
ATOM     13  C   LIG A   1      -7.936  -0.270 123.653  0.00  0.00    -0.057 C 
ATOM     14  C   LIG A   1      -8.357   0.824 122.989  0.00  0.00    +0.049 C 
ENDROOT
BRANCH   3  15
ATOM     15  C   LIG A   1      -6.837   3.733 124.945  0.00  0.00    +0.154 C 
ATOM     16  O   LIG A   1      -6.275   4.247 123.710  0.00  0.00    -0.362 OA
ATOM     17  C   LIG A   1      -5.340   3.859 124.718  0.00  0.00    +0.201 C 
BRANCH  15  18
ATOM     18  C   LIG A   1      -7.543   4.822 125.715  0.00  0.00    +0.196 C 
BRANCH  18  19
ATOM     19  O   LIG A   1      -8.926   4.812 125.369  0.00  0.00    -0.392 OA
ATOM     20  H   LIG A   1      -9.160   3.873 125.247  0.00  0.00    +0.209 HD
ENDBRANCH  18  19
ENDBRANCH  15  18
ENDBRANCH   3  15
BRANCH  10  21
ATOM     21  O   LIG A   1      -4.831  -3.029 124.361  0.00  0.00    -0.392 OA
ATOM     22  H   LIG A   1      -4.821  -3.649 123.613  0.00  0.00    +0.210 HD
ENDBRANCH  10  21
TORSDOF 4
ENDMDL
MODEL 7
REMARK VINA RESULT:      -5.9      2.018      3.536
REMARK  Name = NuBBE_616
REMARK  6 active torsions:
REMARK  status: ('A' for Active; 'I' for Inactive)
REMARK    1  A    between atoms: C_3  and  C_4
REMARK    2  A    between atoms: C_4  and  C_7
REMARK    3  A    between atoms: C_7  and  O_8
REMARK    4  A    between atoms: C_12  and  C_13
REMARK    5  A    between atoms: C_14  and  C_16
REMARK    6  A    between atoms: C_17  and  O_19
REMARK                            x       y       z     vdW  Elec       q    Type
REMARK                         _______ _______ _______ _____ _____    ______ ____
ROOT
ATOM      1  O   LIG A   1     -11.710   4.237 130.236  0.00  0.00    -0.289 OA
ATOM      2  C   LIG A   1     -10.552   4.630 130.360  0.00  0.00    +0.193 C 
ATOM      3  C   LIG A   1     -10.221   6.074 130.463  0.00  0.00    +0.191 C 
ATOM      4  O   LIG A   1      -9.966   6.485 131.822  0.00  0.00    -0.352 OA
ATOM      5  C   LIG A   1      -8.832   6.470 130.941  0.00  0.00    +0.173 C 
ATOM      6  C   LIG A   1      -7.762   5.415 131.244  0.00  0.00    +0.024 C 
ATOM      7  C   LIG A   1      -7.556   5.344 132.778  0.00  0.00    +0.019 C 
ATOM      8  C   LIG A   1      -6.424   5.853 130.520  0.00  0.00    +0.027 C 
ATOM      9  C   LIG A   1      -5.786   7.122 131.126  0.00  0.00    +0.011 C 
ATOM     10  C   LIG A   1      -5.356   4.734 130.474  0.00  0.00    +0.119 C 
ATOM     11  C   LIG A   1      -5.912   3.429 129.920  0.00  0.00    +0.036 C 
ATOM     12  C   LIG A   1      -7.100   2.956 130.734  0.00  0.00    +0.034 C 
ATOM     13  C   LIG A   1      -8.176   4.013 130.756  0.00  0.00    -0.057 C 
ATOM     14  C   LIG A   1      -9.423   3.683 130.366  0.00  0.00    +0.049 C 
ENDROOT
BRANCH   3  15
ATOM     15  C   LIG A   1     -11.078   7.043 129.614  0.00  0.00    +0.154 C 
ATOM     16  O   LIG A   1     -11.443   6.551 128.299  0.00  0.00    -0.362 OA
ATOM     17  C   LIG A   1     -10.558   7.673 128.333  0.00  0.00    +0.201 C 
BRANCH  15  18
ATOM     18  C   LIG A   1     -12.260   7.680 130.303  0.00  0.00    +0.196 C 
BRANCH  18  19
ATOM     19  O   LIG A   1     -12.681   6.839 131.374  0.00  0.00    -0.392 OA
ATOM     20  H   LIG A   1     -11.862   6.541 131.811  0.00  0.00    +0.209 HD
ENDBRANCH  18  19
ENDBRANCH  15  18
ENDBRANCH   3  15
BRANCH  10  21
ATOM     21  O   LIG A   1      -4.268   5.115 129.631  0.00  0.00    -0.392 OA
ATOM     22  H   LIG A   1      -3.992   4.334 129.124  0.00  0.00    +0.210 HD
ENDBRANCH  10  21
TORSDOF 4
ENDMDL
MODEL 8
REMARK VINA RESULT:      -5.7      7.027      8.915
REMARK  Name = NuBBE_616
REMARK  6 active torsions:
REMARK  status: ('A' for Active; 'I' for Inactive)
REMARK    1  A    between atoms: C_3  and  C_4
REMARK    2  A    between atoms: C_4  and  C_7
REMARK    3  A    between atoms: C_7  and  O_8
REMARK    4  A    between atoms: C_12  and  C_13
REMARK    5  A    between atoms: C_14  and  C_16
REMARK    6  A    between atoms: C_17  and  O_19
REMARK                            x       y       z     vdW  Elec       q    Type
REMARK                         _______ _______ _______ _____ _____    ______ ____
ROOT
ATOM      1  O   LIG A   1     -10.492   0.281 123.374  0.00  0.00    -0.289 OA
ATOM      2  C   LIG A   1      -9.498   0.718 123.949  0.00  0.00    +0.193 C 
ATOM      3  C   LIG A   1      -8.320  -0.138 124.241  0.00  0.00    +0.191 C 
ATOM      4  O   LIG A   1      -7.241   0.072 123.306  0.00  0.00    -0.352 OA
ATOM      5  C   LIG A   1      -7.016   0.531 124.648  0.00  0.00    +0.173 C 
ATOM      6  C   LIG A   1      -6.922   2.050 124.829  0.00  0.00    +0.024 C 
ATOM      7  C   LIG A   1      -6.099   2.640 123.657  0.00  0.00    +0.019 C 
ATOM      8  C   LIG A   1      -6.208   2.335 126.213  0.00  0.00    +0.027 C 
ATOM      9  C   LIG A   1      -4.717   1.930 126.228  0.00  0.00    +0.011 C 
ATOM     10  C   LIG A   1      -6.327   3.807 126.674  0.00  0.00    +0.119 C 
ATOM     11  C   LIG A   1      -7.767   4.302 126.656  0.00  0.00    +0.036 C 
ATOM     12  C   LIG A   1      -8.373   4.159 125.273  0.00  0.00    +0.034 C 
ATOM     13  C   LIG A   1      -8.310   2.721 124.819  0.00  0.00    -0.057 C 
ATOM     14  C   LIG A   1      -9.445   2.112 124.425  0.00  0.00    +0.049 C 
ENDROOT
BRANCH   3  15
ATOM     15  C   LIG A   1      -8.610  -1.611 124.616  0.00  0.00    +0.154 C 
ATOM     16  O   LIG A   1      -9.672  -1.801 125.586  0.00  0.00    -0.362 OA
ATOM     17  C   LIG A   1      -8.354  -2.158 126.010  0.00  0.00    +0.201 C 
BRANCH  15  18
ATOM     18  C   LIG A   1      -8.739  -2.587 123.472  0.00  0.00    +0.196 C 
BRANCH  18  19
ATOM     19  O   LIG A   1     -10.121  -2.830 123.222  0.00  0.00    -0.392 OA
ATOM     20  H   LIG A   1     -10.587  -2.551 124.033  0.00  0.00    +0.209 HD
ENDBRANCH  18  19
ENDBRANCH  15  18
ENDBRANCH   3  15
BRANCH  10  21
ATOM     21  O   LIG A   1      -5.854   3.951 128.014  0.00  0.00    -0.392 OA
ATOM     22  H   LIG A   1      -6.580   3.722 128.617  0.00  0.00    +0.210 HD
ENDBRANCH  10  21
TORSDOF 4
ENDMDL
MODEL 9
REMARK VINA RESULT:      -5.5      7.862     10.460
REMARK  Name = NuBBE_616
REMARK  6 active torsions:
REMARK  status: ('A' for Active; 'I' for Inactive)
REMARK    1  A    between atoms: C_3  and  C_4
REMARK    2  A    between atoms: C_4  and  C_7
REMARK    3  A    between atoms: C_7  and  O_8
REMARK    4  A    between atoms: C_12  and  C_13
REMARK    5  A    between atoms: C_14  and  C_16
REMARK    6  A    between atoms: C_17  and  O_19
REMARK                            x       y       z     vdW  Elec       q    Type
REMARK                         _______ _______ _______ _____ _____    ______ ____
ROOT
ATOM      1  O   LIG A   1      -4.685  -2.826 127.785  0.00  0.00    -0.289 OA
ATOM      2  C   LIG A   1      -5.586  -2.255 127.175  0.00  0.00    +0.193 C 
ATOM      3  C   LIG A   1      -6.695  -1.563 127.879  0.00  0.00    +0.191 C 
ATOM      4  O   LIG A   1      -6.512  -0.132 127.921  0.00  0.00    -0.352 OA
ATOM      5  C   LIG A   1      -7.579  -0.612 127.088  0.00  0.00    +0.173 C 
ATOM      6  C   LIG A   1      -7.391  -0.416 125.580  0.00  0.00    +0.024 C 
ATOM      7  C   LIG A   1      -6.782   0.987 125.334  0.00  0.00    +0.019 C 
ATOM      8  C   LIG A   1      -8.810  -0.539 124.889  0.00  0.00    +0.027 C 
ATOM      9  C   LIG A   1      -9.762   0.627 125.234  0.00  0.00    +0.011 C 
ATOM     10  C   LIG A   1      -8.733  -0.678 123.350  0.00  0.00    +0.119 C 
ATOM     11  C   LIG A   1      -7.784  -1.788 122.918  0.00  0.00    +0.036 C 
ATOM     12  C   LIG A   1      -6.391  -1.555 123.471  0.00  0.00    +0.034 C 
ATOM     13  C   LIG A   1      -6.432  -1.461 124.976  0.00  0.00    -0.057 C 
ATOM     14  C   LIG A   1      -5.637  -2.271 125.701  0.00  0.00    +0.049 C 
ENDROOT
BRANCH   3  15
ATOM     15  C   LIG A   1      -7.199  -2.217 129.188  0.00  0.00    +0.154 C 
ATOM     16  O   LIG A   1      -7.080  -3.662 129.238  0.00  0.00    -0.362 OA
ATOM     17  C   LIG A   1      -8.408  -3.136 129.220  0.00  0.00    +0.201 C 
BRANCH  15  18
ATOM     18  C   LIG A   1      -6.737  -1.589 130.480  0.00  0.00    +0.196 C 
BRANCH  18  19
ATOM     19  O   LIG A   1      -5.328  -1.385 130.419  0.00  0.00    -0.392 OA
ATOM     20  H   LIG A   1      -4.935  -2.111 130.938  0.00  0.00    +0.209 HD
ENDBRANCH  18  19
ENDBRANCH  15  18
ENDBRANCH   3  15
BRANCH  10  21
ATOM     21  O   LIG A   1     -10.018  -0.997 122.812  0.00  0.00    -0.392 OA
ATOM     22  H   LIG A   1     -10.525  -0.171 122.734  0.00  0.00    +0.210 HD
ENDBRANCH  10  21
TORSDOF 4
ENDMDL
