MODEL 1
REMARK VINA RESULT:      -8.5      0.000      0.000
REMARK  Name = NuBBE_675
REMARK  16 active torsions:
REMARK  status: ('A' for Active; 'I' for Inactive)
REMARK    1  A    between atoms: C_1  and  C_2
REMARK    2  A    between atoms: C_2  and  O_4
REMARK    3  A    between atoms: C_2  and  C_17
REMARK    4  A    between atoms: O_4  and  C_5
REMARK    5  A    between atoms: C_5  and  C_6
REMARK    6  A    between atoms: C_6  and  O_8
REMARK    7  A    between atoms: C_6  and  C_10
REMARK    8  A    between atoms: O_8  and  C_9
REMARK    9  A    between atoms: C_17  and  C_19
REMARK   10  A    between atoms: C_17  and  C_20
REMARK   11  A    between atoms: C_20  and  C_21
REMARK   12  A    between atoms: C_26  and  C_27
REMARK   13  A    between atoms: C_28  and  C_29
REMARK   14  A    between atoms: C_29  and  C_31
REMARK   15  A    between atoms: C_29  and  C_32
REMARK   16  A    between atoms: C_32  and  C_33
REMARK                            x       y       z     vdW  Elec       q    Type
REMARK                         _______ _______ _______ _____ _____    ______ ____
ROOT
ATOM      1  C   LIG A   1      -4.104   5.976 131.041  0.00  0.00    +0.109 C 
ATOM      2  C   LIG A   1      -5.172   6.303 131.778  0.00  0.00    +0.028 C 
ATOM      3  C   LIG A   1      -6.586   6.467 131.524  0.00  0.00    +0.027 C 
ATOM      4  C   LIG A   1      -7.080   7.254 130.552  0.00  0.00    +0.204 C 
ATOM      5  O   LIG A   1      -8.426   7.476 130.329  0.00  0.00    -0.463 OA
ATOM      6  C   LIG A   1      -9.358   6.760 131.079  0.00  0.00    +0.128 C 
ATOM      7  C   LIG A   1      -8.992   5.949 132.089  0.00  0.00    +0.056 C 
ATOM      8  C   LIG A   1      -7.577   5.862 132.454  0.00  0.00    +0.011 C 
ATOM      9  C   LIG A   1      -7.142   5.249 133.580  0.00  0.00    +0.095 C 
ATOM     10 CL   LIG A   1      -8.163   4.445 134.719  0.00  0.00    -0.079 Cl
ATOM     11  C   LIG A   1      -4.846   6.359 133.220  0.00  0.00    +0.280 C 
ATOM     12  O   LIG A   1      -3.456   6.132 133.268  0.00  0.00    -0.445 OA
ATOM     13  C   LIG A   1      -3.046   5.751 132.035  0.00  0.00    +0.344 C 
ATOM     14  O   LIG A   1      -1.929   5.295 131.808  0.00  0.00    -0.245 OA
ATOM     15  C   LIG A   1      -5.679   5.288 133.931  0.00  0.00    +0.220 C 
ATOM     16  O   LIG A   1      -5.191   4.520 134.759  0.00  0.00    -0.287 OA
ENDROOT
BRANCH   1  17
ATOM     17  C   LIG A   1      -4.024   5.766 129.565  0.00  0.00    +0.177 C 
ATOM     18  O   LIG A   1      -3.901   6.734 128.820  0.00  0.00    -0.291 OA
BRANCH  17  19
ATOM     19  C   LIG A   1      -4.106   4.352 128.980  0.00  0.00    +0.098 C 
ATOM     20  C   LIG A   1      -4.007   3.280 130.074  0.00  0.00    +0.020 C 
BRANCH  19  22
ATOM     21  C   LIG A   1      -5.156   4.623 126.631  0.00  0.00    +0.052 C 
ATOM     22  C   LIG A   1      -5.349   4.161 128.086  0.00  0.00    +0.184 C 
BRANCH  22  23
ATOM     23  O   LIG A   1      -6.548   4.823 128.552  0.00  0.00    -0.459 OA
BRANCH  23  24
ATOM     24  C   LIG A   1      -7.790   4.407 128.174  0.00  0.00    +0.341 C 
ATOM     25  O   LIG A   1      -8.694   5.128 127.769  0.00  0.00    -0.247 OA
BRANCH  24  26
ATOM     26  C   LIG A   1      -7.988   2.911 128.464  0.00  0.00    +0.256 C 
BRANCH  26  27
ATOM     27  C   LIG A   1      -8.422   2.608 129.894  0.00  0.00    -0.008 A 
ATOM     28  C   LIG A   1      -9.747   2.745 130.340  0.00  0.00    +0.007 A 
ATOM     29  C   LIG A   1     -10.094   2.474 131.665  0.00  0.00    +0.000 A 
ATOM     30  C   LIG A   1      -9.125   2.046 132.565  0.00  0.00    +0.000 A 
ATOM     31  C   LIG A   1      -7.813   1.867 132.135  0.00  0.00    +0.000 A 
ATOM     32  C   LIG A   1      -7.467   2.134 130.808  0.00  0.00    +0.007 A 
ENDBRANCH  26  27
BRANCH  26  33
ATOM     33  O   LIG A   1      -8.924   2.295 127.573  0.00  0.00    -0.364 OA
ATOM     34  C   LIG A   1      -8.315   1.641 126.462  0.00  0.00    +0.195 C 
ENDBRANCH  26  33
ENDBRANCH  24  26
ENDBRANCH  23  24
ENDBRANCH  22  23
ENDBRANCH  19  22
ENDBRANCH  17  19
ENDBRANCH   1  17
BRANCH   6  35
ATOM     35  C   LIG A   1     -10.738   6.936 130.670  0.00  0.00    +0.042 C 
ATOM     36  C   LIG A   1     -11.142   7.708 129.645  0.00  0.00    -0.020 C 
BRANCH  36  37
ATOM     37  C   LIG A   1     -12.593   7.949 129.280  0.00  0.00    +0.008 C 
ATOM     38  C   LIG A   1     -12.951   9.403 129.603  0.00  0.00    +0.012 C 
BRANCH  37  39
ATOM     39  C   LIG A   1     -12.880   7.614 127.802  0.00  0.00    +0.004 C 
ATOM     40  C   LIG A   1     -11.605   7.387 126.990  0.00  0.00    +0.004 C 
ENDBRANCH  37  39
ENDBRANCH  36  37
ENDBRANCH   6  35
TORSDOF 11
ENDMDL
MODEL 2
REMARK VINA RESULT:      -8.1      4.159      8.468
REMARK  Name = NuBBE_675
REMARK  16 active torsions:
REMARK  status: ('A' for Active; 'I' for Inactive)
REMARK    1  A    between atoms: C_1  and  C_2
REMARK    2  A    between atoms: C_2  and  O_4
REMARK    3  A    between atoms: C_2  and  C_17
REMARK    4  A    between atoms: O_4  and  C_5
REMARK    5  A    between atoms: C_5  and  C_6
REMARK    6  A    between atoms: C_6  and  O_8
REMARK    7  A    between atoms: C_6  and  C_10
REMARK    8  A    between atoms: O_8  and  C_9
REMARK    9  A    between atoms: C_17  and  C_19
REMARK   10  A    between atoms: C_17  and  C_20
REMARK   11  A    between atoms: C_20  and  C_21
REMARK   12  A    between atoms: C_26  and  C_27
REMARK   13  A    between atoms: C_28  and  C_29
REMARK   14  A    between atoms: C_29  and  C_31
REMARK   15  A    between atoms: C_29  and  C_32
REMARK   16  A    between atoms: C_32  and  C_33
REMARK                            x       y       z     vdW  Elec       q    Type
REMARK                         _______ _______ _______ _____ _____    ______ ____
ROOT
ATOM      1  C   LIG A   1      -6.871   0.400 131.963  0.00  0.00    +0.109 C 
ATOM      2  C   LIG A   1      -6.645  -0.702 131.237  0.00  0.00    +0.028 C 
ATOM      3  C   LIG A   1      -6.437  -0.983 129.834  0.00  0.00    +0.027 C 
ATOM      4  C   LIG A   1      -7.271  -0.576 128.861  0.00  0.00    +0.204 C 
ATOM      5  O   LIG A   1      -7.126  -0.885 127.521  0.00  0.00    -0.463 OA
ATOM      6  C   LIG A   1      -5.987  -1.572 127.110  0.00  0.00    +0.128 C 
ATOM      7  C   LIG A   1      -5.080  -2.044 127.986  0.00  0.00    +0.056 C 
ATOM      8  C   LIG A   1      -5.330  -1.888 129.420  0.00  0.00    +0.011 C 
ATOM      9  C   LIG A   1      -4.594  -2.513 130.369  0.00  0.00    +0.095 C 
ATOM     10 CL   LIG A   1      -3.240  -3.537 130.048  0.00  0.00    -0.079 Cl
ATOM     11  C   LIG A   1      -6.401  -1.883 132.093  0.00  0.00    +0.280 C 
ATOM     12  O   LIG A   1      -6.601  -1.406 133.403  0.00  0.00    -0.445 OA
ATOM     13  C   LIG A   1      -6.714  -0.057 133.350  0.00  0.00    +0.344 C 
ATOM     14  O   LIG A   1      -6.699   0.660 134.347  0.00  0.00    -0.245 OA
ATOM     15  C   LIG A   1      -4.976  -2.375 131.818  0.00  0.00    +0.220 C 
ATOM     16  O   LIG A   1      -4.197  -2.666 132.724  0.00  0.00    -0.287 OA
ENDROOT
BRANCH   1  17
ATOM     17  C   LIG A   1      -7.107   1.794 131.486  0.00  0.00    +0.177 C 
ATOM     18  O   LIG A   1      -6.151   2.504 131.186  0.00  0.00    -0.291 OA
BRANCH  17  19
ATOM     19  C   LIG A   1      -8.534   2.344 131.382  0.00  0.00    +0.098 C 
ATOM     20  C   LIG A   1      -9.577   1.289 131.778  0.00  0.00    +0.020 C 
BRANCH  19  22
ATOM     21  C   LIG A   1      -8.760   3.487 133.692  0.00  0.00    +0.052 C 
ATOM     22  C   LIG A   1      -8.710   3.662 132.164  0.00  0.00    +0.184 C 
BRANCH  22  23
ATOM     23  O   LIG A   1      -9.888   4.427 131.819  0.00  0.00    -0.459 OA
BRANCH  23  24
ATOM     24  C   LIG A   1      -9.878   5.791 131.801  0.00  0.00    +0.341 C 
ATOM     25  O   LIG A   1     -10.272   6.521 132.703  0.00  0.00    -0.247 OA
BRANCH  24  26
ATOM     26  C   LIG A   1      -9.447   6.327 130.428  0.00  0.00    +0.256 C 
BRANCH  26  27
ATOM     27  C   LIG A   1     -10.592   6.893 129.594  0.00  0.00    -0.008 A 
ATOM     28  C   LIG A   1     -10.463   8.037 128.790  0.00  0.00    +0.007 A 
ATOM     29  C   LIG A   1     -11.546   8.531 128.059  0.00  0.00    +0.000 A 
ATOM     30  C   LIG A   1     -12.772   7.878 128.106  0.00  0.00    +0.000 A 
ATOM     31  C   LIG A   1     -12.911   6.720 128.866  0.00  0.00    +0.000 A 
ATOM     32  C   LIG A   1     -11.827   6.225 129.595  0.00  0.00    +0.007 A 
ENDBRANCH  26  27
BRANCH  26  33
ATOM     33  O   LIG A   1      -8.425   7.326 130.521  0.00  0.00    -0.364 OA
ATOM     34  C   LIG A   1      -7.203   6.848 131.079  0.00  0.00    +0.195 C 
ENDBRANCH  26  33
ENDBRANCH  24  26
ENDBRANCH  23  24
ENDBRANCH  22  23
ENDBRANCH  19  22
ENDBRANCH  17  19
ENDBRANCH   1  17
BRANCH   6  35
ATOM     35  C   LIG A   1      -5.840  -1.712 125.674  0.00  0.00    +0.042 C 
ATOM     36  C   LIG A   1      -6.331  -2.735 124.950  0.00  0.00    -0.020 C 
BRANCH  36  37
ATOM     37  C   LIG A   1      -6.100  -2.912 123.462  0.00  0.00    +0.008 C 
ATOM     38  C   LIG A   1      -6.474  -1.612 122.744  0.00  0.00    +0.012 C 
BRANCH  37  39
ATOM     39  C   LIG A   1      -4.649  -3.331 123.149  0.00  0.00    +0.004 C 
ATOM     40  C   LIG A   1      -4.339  -4.761 123.589  0.00  0.00    +0.004 C 
ENDBRANCH  37  39
ENDBRANCH  36  37
ENDBRANCH   6  35
TORSDOF 11
ENDMDL
MODEL 3
REMARK VINA RESULT:      -8.0      3.271      7.534
REMARK  Name = NuBBE_675
REMARK  16 active torsions:
REMARK  status: ('A' for Active; 'I' for Inactive)
REMARK    1  A    between atoms: C_1  and  C_2
REMARK    2  A    between atoms: C_2  and  O_4
REMARK    3  A    between atoms: C_2  and  C_17
REMARK    4  A    between atoms: O_4  and  C_5
REMARK    5  A    between atoms: C_5  and  C_6
REMARK    6  A    between atoms: C_6  and  O_8
REMARK    7  A    between atoms: C_6  and  C_10
REMARK    8  A    between atoms: O_8  and  C_9
REMARK    9  A    between atoms: C_17  and  C_19
REMARK   10  A    between atoms: C_17  and  C_20
REMARK   11  A    between atoms: C_20  and  C_21
REMARK   12  A    between atoms: C_26  and  C_27
REMARK   13  A    between atoms: C_28  and  C_29
REMARK   14  A    between atoms: C_29  and  C_31
REMARK   15  A    between atoms: C_29  and  C_32
REMARK   16  A    between atoms: C_32  and  C_33
REMARK                            x       y       z     vdW  Elec       q    Type
REMARK                         _______ _______ _______ _____ _____    ______ ____
ROOT
ATOM      1  C   LIG A   1      -5.036   3.654 130.727  0.00  0.00    +0.109 C 
ATOM      2  C   LIG A   1      -4.561   3.235 129.549  0.00  0.00    +0.028 C 
ATOM      3  C   LIG A   1      -4.831   2.119 128.670  0.00  0.00    +0.027 C 
ATOM      4  C   LIG A   1      -4.822   0.836 129.071  0.00  0.00    +0.204 C 
ATOM      5  O   LIG A   1      -5.015  -0.250 128.238  0.00  0.00    -0.463 OA
ATOM      6  C   LIG A   1      -5.355  -0.022 126.906  0.00  0.00    +0.128 C 
ATOM      7  C   LIG A   1      -5.387   1.216 126.378  0.00  0.00    +0.056 C 
ATOM      8  C   LIG A   1      -4.993   2.353 127.209  0.00  0.00    +0.011 C 
ATOM      9  C   LIG A   1      -4.787   3.595 126.710  0.00  0.00    +0.095 C 
ATOM     10 CL   LIG A   1      -5.000   4.037 125.053  0.00  0.00    -0.079 Cl
ATOM     11  C   LIG A   1      -3.658   4.232 128.935  0.00  0.00    +0.280 C 
ATOM     12  O   LIG A   1      -3.557   5.249 129.906  0.00  0.00    -0.445 OA
ATOM     13  C   LIG A   1      -4.473   5.003 130.874  0.00  0.00    +0.344 C 
ATOM     14  O   LIG A   1      -4.760   5.813 131.750  0.00  0.00    -0.245 OA
ATOM     15  C   LIG A   1      -4.289   4.689 127.616  0.00  0.00    +0.220 C 
ATOM     16  O   LIG A   1      -4.364   5.875 127.302  0.00  0.00    -0.287 OA
ENDROOT
BRANCH   1  17
ATOM     17  C   LIG A   1      -6.008   2.972 131.633  0.00  0.00    +0.177 C 
ATOM     18  O   LIG A   1      -5.605   2.133 132.434  0.00  0.00    -0.291 OA
BRANCH  17  19
ATOM     19  C   LIG A   1      -7.501   3.307 131.556  0.00  0.00    +0.098 C 
ATOM     20  C   LIG A   1      -8.372   2.050 131.695  0.00  0.00    +0.020 C 
BRANCH  19  22
ATOM     21  C   LIG A   1      -8.614   3.886 133.819  0.00  0.00    +0.052 C 
ATOM     22  C   LIG A   1      -7.905   4.410 132.557  0.00  0.00    +0.184 C 
BRANCH  22  23
ATOM     23  O   LIG A   1      -8.767   5.440 132.021  0.00  0.00    -0.459 OA
BRANCH  23  24
ATOM     24  C   LIG A   1      -8.486   6.071 130.845  0.00  0.00    +0.341 C 
ATOM     25  O   LIG A   1      -7.596   6.895 130.671  0.00  0.00    -0.247 OA
BRANCH  24  26
ATOM     26  C   LIG A   1      -9.533   5.739 129.771  0.00  0.00    +0.256 C 
BRANCH  26  27
ATOM     27  C   LIG A   1     -10.648   6.772 129.651  0.00  0.00    -0.008 A 
ATOM     28  C   LIG A   1     -11.730   6.841 130.544  0.00  0.00    +0.007 A 
ATOM     29  C   LIG A   1     -12.739   7.792 130.383  0.00  0.00    +0.000 A 
ATOM     30  C   LIG A   1     -12.676   8.702 129.334  0.00  0.00    +0.000 A 
ATOM     31  C   LIG A   1     -11.594   8.676 128.460  0.00  0.00    +0.000 A 
ATOM     32  C   LIG A   1     -10.582   7.727 128.623  0.00  0.00    +0.007 A 
ENDBRANCH  26  27
BRANCH  26  33
ATOM     33  O   LIG A   1      -8.953   5.553 128.475  0.00  0.00    -0.364 OA
ATOM     34  C   LIG A   1      -8.161   4.372 128.364  0.00  0.00    +0.195 C 
ENDBRANCH  26  33
ENDBRANCH  24  26
ENDBRANCH  23  24
ENDBRANCH  22  23
ENDBRANCH  19  22
ENDBRANCH  17  19
ENDBRANCH   1  17
BRANCH   6  35
ATOM     35  C   LIG A   1      -5.695  -1.211 126.149  0.00  0.00    +0.042 C 
ATOM     36  C   LIG A   1      -5.413  -1.396 124.846  0.00  0.00    -0.020 C 
BRANCH  36  37
ATOM     37  C   LIG A   1      -5.847  -2.608 124.045  0.00  0.00    +0.008 C 
ATOM     38  C   LIG A   1      -6.915  -2.177 123.034  0.00  0.00    +0.012 C 
BRANCH  37  39
ATOM     39  C   LIG A   1      -4.656  -3.294 123.346  0.00  0.00    +0.004 C 
ATOM     40  C   LIG A   1      -4.558  -4.784 123.674  0.00  0.00    +0.004 C 
ENDBRANCH  37  39
ENDBRANCH  36  37
ENDBRANCH   6  35
TORSDOF 11
ENDMDL
MODEL 4
REMARK VINA RESULT:      -8.0      2.398      4.303
REMARK  Name = NuBBE_675
REMARK  16 active torsions:
REMARK  status: ('A' for Active; 'I' for Inactive)
REMARK    1  A    between atoms: C_1  and  C_2
REMARK    2  A    between atoms: C_2  and  O_4
REMARK    3  A    between atoms: C_2  and  C_17
REMARK    4  A    between atoms: O_4  and  C_5
REMARK    5  A    between atoms: C_5  and  C_6
REMARK    6  A    between atoms: C_6  and  O_8
REMARK    7  A    between atoms: C_6  and  C_10
REMARK    8  A    between atoms: O_8  and  C_9
REMARK    9  A    between atoms: C_17  and  C_19
REMARK   10  A    between atoms: C_17  and  C_20
REMARK   11  A    between atoms: C_20  and  C_21
REMARK   12  A    between atoms: C_26  and  C_27
REMARK   13  A    between atoms: C_28  and  C_29
REMARK   14  A    between atoms: C_29  and  C_31
REMARK   15  A    between atoms: C_29  and  C_32
REMARK   16  A    between atoms: C_32  and  C_33
REMARK                            x       y       z     vdW  Elec       q    Type
REMARK                         _______ _______ _______ _____ _____    ______ ____
ROOT
ATOM      1  C   LIG A   1      -3.121   6.574 130.795  0.00  0.00    +0.109 C 
ATOM      2  C   LIG A   1      -4.133   6.768 131.649  0.00  0.00    +0.028 C 
ATOM      3  C   LIG A   1      -5.575   6.696 131.567  0.00  0.00    +0.027 C 
ATOM      4  C   LIG A   1      -6.301   7.344 130.639  0.00  0.00    +0.204 C 
ATOM      5  O   LIG A   1      -7.682   7.341 130.579  0.00  0.00    -0.463 OA
ATOM      6  C   LIG A   1      -8.391   6.529 131.462  0.00  0.00    +0.128 C 
ATOM      7  C   LIG A   1      -7.782   5.839 132.445  0.00  0.00    +0.056 C 
ATOM      8  C   LIG A   1      -6.339   5.994 132.633  0.00  0.00    +0.011 C 
ATOM      9  C   LIG A   1      -5.681   5.516 133.715  0.00  0.00    +0.095 C 
ATOM     10 CL   LIG A   1      -6.417   4.622 134.999  0.00  0.00    -0.079 Cl
ATOM     11  C   LIG A   1      -3.653   6.950 133.036  0.00  0.00    +0.280 C 
ATOM     12  O   LIG A   1      -2.249   6.946 132.918  0.00  0.00    -0.445 OA
ATOM     13  C   LIG A   1      -1.931   6.569 131.656  0.00  0.00    +0.344 C 
ATOM     14  O   LIG A   1      -0.789   6.283 131.307  0.00  0.00    -0.245 OA
ATOM     15  C   LIG A   1      -4.213   5.800 133.881  0.00  0.00    +0.220 C 
ATOM     16  O   LIG A   1      -3.513   5.163 134.665  0.00  0.00    -0.287 OA
ENDROOT
BRANCH   1  17
ATOM     17  C   LIG A   1      -3.182   6.303 129.328  0.00  0.00    +0.177 C 
ATOM     18  O   LIG A   1      -2.929   7.204 128.533  0.00  0.00    -0.291 OA
BRANCH  17  19
ATOM     19  C   LIG A   1      -3.570   4.912 128.816  0.00  0.00    +0.098 C 
ATOM     20  C   LIG A   1      -3.635   3.886 129.956  0.00  0.00    +0.020 C 
BRANCH  19  22
ATOM     21  C   LIG A   1      -6.012   4.097 128.566  0.00  0.00    +0.052 C 
ATOM     22  C   LIG A   1      -4.866   4.938 127.979  0.00  0.00    +0.184 C 
BRANCH  22  23
ATOM     23  O   LIG A   1      -4.720   4.499 126.608  0.00  0.00    -0.459 OA
BRANCH  23  24
ATOM     24  C   LIG A   1      -5.622   4.844 125.645  0.00  0.00    +0.341 C 
ATOM     25  O   LIG A   1      -6.085   5.965 125.467  0.00  0.00    -0.247 OA
BRANCH  24  26
ATOM     26  C   LIG A   1      -6.123   3.608 124.882  0.00  0.00    +0.256 C 
BRANCH  26  27
ATOM     27  C   LIG A   1      -6.115   3.768 123.366  0.00  0.00    -0.008 A 
ATOM     28  C   LIG A   1      -5.023   4.297 122.656  0.00  0.00    +0.007 A 
ATOM     29  C   LIG A   1      -5.068   4.443 121.268  0.00  0.00    +0.000 A 
ATOM     30  C   LIG A   1      -6.199   4.048 120.564  0.00  0.00    +0.000 A 
ATOM     31  C   LIG A   1      -7.276   3.487 121.243  0.00  0.00    +0.000 A 
ATOM     32  C   LIG A   1      -7.230   3.337 122.631  0.00  0.00    +0.007 A 
ENDBRANCH  26  27
BRANCH  26  33
ATOM     33  O   LIG A   1      -5.391   2.423 125.212  0.00  0.00    -0.364 OA
ATOM     34  C   LIG A   1      -6.217   1.325 125.594  0.00  0.00    +0.195 C 
ENDBRANCH  26  33
ENDBRANCH  24  26
ENDBRANCH  23  24
ENDBRANCH  22  23
ENDBRANCH  19  22
ENDBRANCH  17  19
ENDBRANCH   1  17
BRANCH   6  35
ATOM     35  C   LIG A   1      -9.820   6.465 131.223  0.00  0.00    +0.042 C 
ATOM     36  C   LIG A   1     -10.438   6.959 130.134  0.00  0.00    -0.020 C 
BRANCH  36  37
ATOM     37  C   LIG A   1     -11.940   6.960 129.935  0.00  0.00    +0.008 C 
ATOM     38  C   LIG A   1     -12.608   7.505 131.201  0.00  0.00    +0.012 C 
BRANCH  37  39
ATOM     39  C   LIG A   1     -12.357   7.766 128.688  0.00  0.00    +0.004 C 
ATOM     40  C   LIG A   1     -11.191   8.533 128.064  0.00  0.00    +0.004 C 
ENDBRANCH  37  39
ENDBRANCH  36  37
ENDBRANCH   6  35
TORSDOF 11
ENDMDL
MODEL 5
REMARK VINA RESULT:      -8.0      4.946      9.107
REMARK  Name = NuBBE_675
REMARK  16 active torsions:
REMARK  status: ('A' for Active; 'I' for Inactive)
REMARK    1  A    between atoms: C_1  and  C_2
REMARK    2  A    between atoms: C_2  and  O_4
REMARK    3  A    between atoms: C_2  and  C_17
REMARK    4  A    between atoms: O_4  and  C_5
REMARK    5  A    between atoms: C_5  and  C_6
REMARK    6  A    between atoms: C_6  and  O_8
REMARK    7  A    between atoms: C_6  and  C_10
REMARK    8  A    between atoms: O_8  and  C_9
REMARK    9  A    between atoms: C_17  and  C_19
REMARK   10  A    between atoms: C_17  and  C_20
REMARK   11  A    between atoms: C_20  and  C_21
REMARK   12  A    between atoms: C_26  and  C_27
REMARK   13  A    between atoms: C_28  and  C_29
REMARK   14  A    between atoms: C_29  and  C_31
REMARK   15  A    between atoms: C_29  and  C_32
REMARK   16  A    between atoms: C_32  and  C_33
REMARK                            x       y       z     vdW  Elec       q    Type
REMARK                         _______ _______ _______ _____ _____    ______ ____
ROOT
ATOM      1  C   LIG A   1      -9.376   1.244 124.010  0.00  0.00    +0.109 C 
ATOM      2  C   LIG A   1      -8.648   2.364 124.086  0.00  0.00    +0.028 C 
ATOM      3  C   LIG A   1      -7.741   2.937 125.055  0.00  0.00    +0.027 C 
ATOM      4  C   LIG A   1      -8.051   3.112 126.352  0.00  0.00    +0.204 C 
ATOM      5  O   LIG A   1      -7.225   3.713 127.283  0.00  0.00    -0.463 OA
ATOM      6  C   LIG A   1      -5.933   4.072 126.903  0.00  0.00    +0.128 C 
ATOM      7  C   LIG A   1      -5.504   3.958 125.632  0.00  0.00    +0.056 C 
ATOM      8  C   LIG A   1      -6.441   3.504 124.604  0.00  0.00    +0.011 C 
ATOM      9  C   LIG A   1      -6.168   3.563 123.279  0.00  0.00    +0.095 C 
ATOM     10 CL   LIG A   1      -4.681   4.130 122.606  0.00  0.00    -0.079 Cl
ATOM     11  C   LIG A   1      -8.660   3.114 122.811  0.00  0.00    +0.280 C 
ATOM     12  O   LIG A   1      -9.548   2.388 121.992  0.00  0.00    -0.445 OA
ATOM     13  C   LIG A   1      -9.841   1.222 122.617  0.00  0.00    +0.344 C 
ATOM     14  O   LIG A   1     -10.430   0.295 122.068  0.00  0.00    -0.245 OA
ATOM     15  C   LIG A   1      -7.223   3.166 122.282  0.00  0.00    +0.220 C 
ATOM     16  O   LIG A   1      -6.947   2.921 121.109  0.00  0.00    -0.287 OA
ENDROOT
BRANCH   1  17
ATOM     17  C   LIG A   1      -9.576   0.194 125.052  0.00  0.00    +0.177 C 
ATOM     18  O   LIG A   1     -10.449   0.342 125.903  0.00  0.00    -0.291 OA
BRANCH  17  19
ATOM     19  C   LIG A   1      -8.690  -1.056 125.068  0.00  0.00    +0.098 C 
ATOM     20  C   LIG A   1      -8.926  -1.901 126.329  0.00  0.00    +0.020 C 
BRANCH  19  22
ATOM     21  C   LIG A   1      -9.417  -3.292 123.988  0.00  0.00    +0.052 C 
ATOM     22  C   LIG A   1      -8.827  -1.887 123.775  0.00  0.00    +0.184 C 
BRANCH  22  23
ATOM     23  O   LIG A   1      -7.598  -2.085 123.040  0.00  0.00    -0.459 OA
BRANCH  23  24
ATOM     24  C   LIG A   1      -6.529  -1.250 123.191  0.00  0.00    +0.341 C 
ATOM     25  O   LIG A   1      -6.363  -0.188 122.604  0.00  0.00    -0.247 OA
BRANCH  24  26
ATOM     26  C   LIG A   1      -5.454  -1.879 124.090  0.00  0.00    +0.256 C 
BRANCH  26  27
ATOM     27  C   LIG A   1      -5.435  -1.331 125.512  0.00  0.00    -0.008 A 
ATOM     28  C   LIG A   1      -5.440   0.043 125.806  0.00  0.00    +0.007 A 
ATOM     29  C   LIG A   1      -5.403   0.499 127.125  0.00  0.00    +0.000 A 
ATOM     30  C   LIG A   1      -5.377  -0.411 128.175  0.00  0.00    +0.000 A 
ATOM     31  C   LIG A   1      -5.410  -1.777 127.908  0.00  0.00    +0.000 A 
ATOM     32  C   LIG A   1      -5.451  -2.233 126.588  0.00  0.00    +0.007 A 
ENDBRANCH  26  27
BRANCH  26  33
ATOM     33  O   LIG A   1      -5.559  -3.306 124.161  0.00  0.00    -0.364 OA
ATOM     34  C   LIG A   1      -4.474  -3.993 123.540  0.00  0.00    +0.195 C 
ENDBRANCH  26  33
ENDBRANCH  24  26
ENDBRANCH  23  24
ENDBRANCH  22  23
ENDBRANCH  19  22
ENDBRANCH  17  19
ENDBRANCH   1  17
BRANCH   6  35
ATOM     35  C   LIG A   1      -5.087   4.546 127.981  0.00  0.00    +0.042 C 
ATOM     36  C   LIG A   1      -3.744   4.457 127.996  0.00  0.00    -0.020 C 
BRANCH  36  37
ATOM     37  C   LIG A   1      -2.876   4.882 129.165  0.00  0.00    +0.008 C 
ATOM     38  C   LIG A   1      -2.229   6.231 128.838  0.00  0.00    +0.012 C 
BRANCH  37  39
ATOM     39  C   LIG A   1      -3.675   4.945 130.483  0.00  0.00    +0.004 C 
ATOM     40  C   LIG A   1      -3.793   6.366 131.033  0.00  0.00    +0.004 C 
ENDBRANCH  37  39
ENDBRANCH  36  37
ENDBRANCH   6  35
TORSDOF 11
ENDMDL
MODEL 6
REMARK VINA RESULT:      -7.9      1.349      1.908
REMARK  Name = NuBBE_675
REMARK  16 active torsions:
REMARK  status: ('A' for Active; 'I' for Inactive)
REMARK    1  A    between atoms: C_1  and  C_2
REMARK    2  A    between atoms: C_2  and  O_4
REMARK    3  A    between atoms: C_2  and  C_17
REMARK    4  A    between atoms: O_4  and  C_5
REMARK    5  A    between atoms: C_5  and  C_6
REMARK    6  A    between atoms: C_6  and  O_8
REMARK    7  A    between atoms: C_6  and  C_10
REMARK    8  A    between atoms: O_8  and  C_9
REMARK    9  A    between atoms: C_17  and  C_19
REMARK   10  A    between atoms: C_17  and  C_20
REMARK   11  A    between atoms: C_20  and  C_21
REMARK   12  A    between atoms: C_26  and  C_27
REMARK   13  A    between atoms: C_28  and  C_29
REMARK   14  A    between atoms: C_29  and  C_31
REMARK   15  A    between atoms: C_29  and  C_32
REMARK   16  A    between atoms: C_32  and  C_33
REMARK                            x       y       z     vdW  Elec       q    Type
REMARK                         _______ _______ _______ _____ _____    ______ ____
ROOT
ATOM      1  C   LIG A   1      -3.572   5.717 131.639  0.00  0.00    +0.109 C 
ATOM      2  C   LIG A   1      -4.721   6.053 132.237  0.00  0.00    +0.028 C 
ATOM      3  C   LIG A   1      -6.072   6.318 131.794  0.00  0.00    +0.027 C 
ATOM      4  C   LIG A   1      -6.378   7.200 130.826  0.00  0.00    +0.204 C 
ATOM      5  O   LIG A   1      -7.663   7.516 130.428  0.00  0.00    -0.463 OA
ATOM      6  C   LIG A   1      -8.729   6.805 130.975  0.00  0.00    +0.128 C 
ATOM      7  C   LIG A   1      -8.557   5.903 131.960  0.00  0.00    +0.056 C 
ATOM      8  C   LIG A   1      -7.219   5.707 132.519  0.00  0.00    +0.011 C 
ATOM      9  C   LIG A   1      -6.987   4.991 133.643  0.00  0.00    +0.095 C 
ATOM     10 CL   LIG A   1      -8.203   4.168 134.554  0.00  0.00    -0.079 Cl
ATOM     11  C   LIG A   1      -4.613   5.986 133.711  0.00  0.00    +0.280 C 
ATOM     12  O   LIG A   1      -3.258   5.675 133.943  0.00  0.00    -0.445 OA
ATOM     13  C   LIG A   1      -2.687   5.360 132.756  0.00  0.00    +0.344 C 
ATOM     14  O   LIG A   1      -1.571   4.857 132.658  0.00  0.00    -0.245 OA
ATOM     15  C   LIG A   1      -5.593   4.918 134.206  0.00  0.00    +0.220 C 
ATOM     16  O   LIG A   1      -5.271   4.066 135.032  0.00  0.00    -0.287 OA
ENDROOT
BRANCH   1  17
ATOM     17  C   LIG A   1      -3.282   5.609 130.179  0.00  0.00    +0.177 C 
ATOM     18  O   LIG A   1      -2.397   6.301 129.683  0.00  0.00    -0.291 OA
BRANCH  17  19
ATOM     19  C   LIG A   1      -4.091   4.650 129.299  0.00  0.00    +0.098 C 
ATOM     20  C   LIG A   1      -4.446   5.285 127.947  0.00  0.00    +0.020 C 
BRANCH  19  22
ATOM     21  C   LIG A   1      -2.982   2.951 127.694  0.00  0.00    +0.052 C 
ATOM     22  C   LIG A   1      -3.399   3.281 129.138  0.00  0.00    +0.184 C 
BRANCH  22  23
ATOM     23  O   LIG A   1      -4.173   2.145 129.592  0.00  0.00    -0.459 OA
BRANCH  23  24
ATOM     24  C   LIG A   1      -5.325   2.301 130.305  0.00  0.00    +0.341 C 
ATOM     25  O   LIG A   1      -5.401   2.681 131.467  0.00  0.00    -0.247 OA
BRANCH  24  26
ATOM     26  C   LIG A   1      -6.540   1.789 129.517  0.00  0.00    +0.256 C 
BRANCH  26  27
ATOM     27  C   LIG A   1      -7.876   2.026 130.213  0.00  0.00    -0.008 A 
ATOM     28  C   LIG A   1      -8.290   1.307 131.346  0.00  0.00    +0.007 A 
ATOM     29  C   LIG A   1      -9.532   1.545 131.939  0.00  0.00    +0.000 A 
ATOM     30  C   LIG A   1     -10.375   2.520 131.417  0.00  0.00    +0.000 A 
ATOM     31  C   LIG A   1      -9.969   3.270 130.319  0.00  0.00    +0.000 A 
ATOM     32  C   LIG A   1      -8.725   3.034 129.728  0.00  0.00    +0.007 A 
ENDBRANCH  26  27
BRANCH  26  33
ATOM     33  O   LIG A   1      -6.617   2.343 128.199  0.00  0.00    -0.364 OA
ATOM     34  C   LIG A   1      -6.520   1.370 127.160  0.00  0.00    +0.195 C 
ENDBRANCH  26  33
ENDBRANCH  24  26
ENDBRANCH  23  24
ENDBRANCH  22  23
ENDBRANCH  19  22
ENDBRANCH  17  19
ENDBRANCH   1  17
BRANCH   6  35
ATOM     35  C   LIG A   1     -10.023   7.090 130.385  0.00  0.00    +0.042 C 
ATOM     36  C   LIG A   1     -11.203   6.926 131.011  0.00  0.00    -0.020 C 
BRANCH  36  37
ATOM     37  C   LIG A   1     -12.552   7.148 130.356  0.00  0.00    +0.008 C 
ATOM     38  C   LIG A   1     -12.757   8.651 130.140  0.00  0.00    +0.012 C 
BRANCH  37  39
ATOM     39  C   LIG A   1     -12.687   6.366 129.033  0.00  0.00    +0.004 C 
ATOM     40  C   LIG A   1     -13.577   7.077 128.015  0.00  0.00    +0.004 C 
ENDBRANCH  37  39
ENDBRANCH  36  37
ENDBRANCH   6  35
TORSDOF 11
ENDMDL
MODEL 7
REMARK VINA RESULT:      -7.7      2.980      6.474
REMARK  Name = NuBBE_675
REMARK  16 active torsions:
REMARK  status: ('A' for Active; 'I' for Inactive)
REMARK    1  A    between atoms: C_1  and  C_2
REMARK    2  A    between atoms: C_2  and  O_4
REMARK    3  A    between atoms: C_2  and  C_17
REMARK    4  A    between atoms: O_4  and  C_5
REMARK    5  A    between atoms: C_5  and  C_6
REMARK    6  A    between atoms: C_6  and  O_8
REMARK    7  A    between atoms: C_6  and  C_10
REMARK    8  A    between atoms: O_8  and  C_9
REMARK    9  A    between atoms: C_17  and  C_19
REMARK   10  A    between atoms: C_17  and  C_20
REMARK   11  A    between atoms: C_20  and  C_21
REMARK   12  A    between atoms: C_26  and  C_27
REMARK   13  A    between atoms: C_28  and  C_29
REMARK   14  A    between atoms: C_29  and  C_31
REMARK   15  A    between atoms: C_29  and  C_32
REMARK   16  A    between atoms: C_32  and  C_33
REMARK                            x       y       z     vdW  Elec       q    Type
REMARK                         _______ _______ _______ _____ _____    ______ ____
ROOT
ATOM      1  C   LIG A   1      -3.857   4.258 130.812  0.00  0.00    +0.109 C 
ATOM      2  C   LIG A   1      -3.837   3.586 129.655  0.00  0.00    +0.028 C 
ATOM      3  C   LIG A   1      -4.397   2.340 129.180  0.00  0.00    +0.027 C 
ATOM      4  C   LIG A   1      -4.231   1.162 129.808  0.00  0.00    +0.204 C 
ATOM      5  O   LIG A   1      -4.703  -0.050 129.341  0.00  0.00    -0.463 OA
ATOM      6  C   LIG A   1      -5.505  -0.065 128.202  0.00  0.00    +0.128 C 
ATOM      7  C   LIG A   1      -5.738   1.045 127.476  0.00  0.00    +0.056 C 
ATOM      8  C   LIG A   1      -5.079   2.295 127.858  0.00  0.00    +0.011 C 
ATOM      9  C   LIG A   1      -5.080   3.398 127.075  0.00  0.00    +0.095 C 
ATOM     10 CL   LIG A   1      -5.883   3.521 125.549  0.00  0.00    -0.079 Cl
ATOM     11  C   LIG A   1      -3.227   4.382 128.568  0.00  0.00    +0.280 C 
ATOM     12  O   LIG A   1      -2.790   5.559 129.207  0.00  0.00    -0.445 OA
ATOM     13  C   LIG A   1      -3.291   5.568 130.466  0.00  0.00    +0.344 C 
ATOM     14  O   LIG A   1      -3.248   6.552 131.200  0.00  0.00    -0.245 OA
ATOM     15  C   LIG A   1      -4.298   4.613 127.497  0.00  0.00    +0.220 C 
ATOM     16  O   LIG A   1      -4.492   5.717 126.992  0.00  0.00    -0.287 OA
ENDROOT
BRANCH   1  17
ATOM     17  C   LIG A   1      -4.428   3.832 132.124  0.00  0.00    +0.177 C 
ATOM     18  O   LIG A   1      -3.683   3.672 133.087  0.00  0.00    -0.291 OA
BRANCH  17  19
ATOM     19  C   LIG A   1      -5.933   3.584 132.267  0.00  0.00    +0.098 C 
ATOM     20  C   LIG A   1      -6.223   2.323 133.093  0.00  0.00    +0.020 C 
BRANCH  19  22
ATOM     21  C   LIG A   1      -7.460   4.566 134.110  0.00  0.00    +0.052 C 
ATOM     22  C   LIG A   1      -6.680   4.821 132.808  0.00  0.00    +0.184 C 
BRANCH  22  23
ATOM     23  O   LIG A   1      -7.629   5.414 131.892  0.00  0.00    -0.459 OA
BRANCH  23  24
ATOM     24  C   LIG A   1      -7.593   5.153 130.553  0.00  0.00    +0.341 C 
ATOM     25  O   LIG A   1      -6.745   5.560 129.768  0.00  0.00    -0.247 OA
BRANCH  24  26
ATOM     26  C   LIG A   1      -8.852   4.398 130.099  0.00  0.00    +0.256 C 
BRANCH  26  27
ATOM     27  C   LIG A   1      -8.913   2.951 130.576  0.00  0.00    -0.008 A 
ATOM     28  C   LIG A   1      -8.209   1.907 129.953  0.00  0.00    +0.007 A 
ATOM     29  C   LIG A   1      -8.311   0.592 130.413  0.00  0.00    +0.000 A 
ATOM     30  C   LIG A   1      -9.107   0.301 131.515  0.00  0.00    +0.000 A 
ATOM     31  C   LIG A   1      -9.784   1.326 132.169  0.00  0.00    +0.000 A 
ATOM     32  C   LIG A   1      -9.678   2.642 131.711  0.00  0.00    +0.007 A 
ENDBRANCH  26  27
BRANCH  26  33
ATOM     33  O   LIG A   1     -10.062   5.052 130.496  0.00  0.00    -0.364 OA
ATOM     34  C   LIG A   1     -10.452   6.114 129.628  0.00  0.00    +0.195 C 
ENDBRANCH  26  33
ENDBRANCH  24  26
ENDBRANCH  23  24
ENDBRANCH  22  23
ENDBRANCH  19  22
ENDBRANCH  17  19
ENDBRANCH   1  17
BRANCH   6  35
ATOM     35  C   LIG A   1      -6.086  -1.354 127.878  0.00  0.00    +0.042 C 
ATOM     36  C   LIG A   1      -7.389  -1.563 127.617  0.00  0.00    -0.020 C 
BRANCH  36  37
ATOM     37  C   LIG A   1      -7.998  -2.928 127.362  0.00  0.00    +0.008 C 
ATOM     38  C   LIG A   1      -8.540  -3.484 128.683  0.00  0.00    +0.012 C 
BRANCH  37  39
ATOM     39  C   LIG A   1      -9.095  -2.877 126.280  0.00  0.00    +0.004 C 
ATOM     40  C   LIG A   1      -8.602  -3.353 124.915  0.00  0.00    +0.004 C 
ENDBRANCH  37  39
ENDBRANCH  36  37
ENDBRANCH   6  35
TORSDOF 11
ENDMDL
MODEL 8
REMARK VINA RESULT:      -7.6      3.494      7.720
REMARK  Name = NuBBE_675
REMARK  16 active torsions:
REMARK  status: ('A' for Active; 'I' for Inactive)
REMARK    1  A    between atoms: C_1  and  C_2
REMARK    2  A    between atoms: C_2  and  O_4
REMARK    3  A    between atoms: C_2  and  C_17
REMARK    4  A    between atoms: O_4  and  C_5
REMARK    5  A    between atoms: C_5  and  C_6
REMARK    6  A    between atoms: C_6  and  O_8
REMARK    7  A    between atoms: C_6  and  C_10
REMARK    8  A    between atoms: O_8  and  C_9
REMARK    9  A    between atoms: C_17  and  C_19
REMARK   10  A    between atoms: C_17  and  C_20
REMARK   11  A    between atoms: C_20  and  C_21
REMARK   12  A    between atoms: C_26  and  C_27
REMARK   13  A    between atoms: C_28  and  C_29
REMARK   14  A    between atoms: C_29  and  C_31
REMARK   15  A    between atoms: C_29  and  C_32
REMARK   16  A    between atoms: C_32  and  C_33
REMARK                            x       y       z     vdW  Elec       q    Type
REMARK                         _______ _______ _______ _____ _____    ______ ____
ROOT
ATOM      1  C   LIG A   1      -7.303   2.270 131.110  0.00  0.00    +0.109 C 
ATOM      2  C   LIG A   1      -7.854   1.126 130.689  0.00  0.00    +0.028 C 
ATOM      3  C   LIG A   1      -7.756   0.317 129.494  0.00  0.00    +0.027 C 
ATOM      4  C   LIG A   1      -7.935   0.800 128.252  0.00  0.00    +0.204 C 
ATOM      5  O   LIG A   1      -7.909   0.036 127.100  0.00  0.00    -0.463 OA
ATOM      6  C   LIG A   1      -7.566  -1.311 127.196  0.00  0.00    +0.128 C 
ATOM      7  C   LIG A   1      -7.373  -1.918 128.382  0.00  0.00    +0.056 C 
ATOM      8  C   LIG A   1      -7.592  -1.157 129.613  0.00  0.00    +0.011 C 
ATOM      9  C   LIG A   1      -7.634  -1.732 130.838  0.00  0.00    +0.095 C 
ATOM     10 CL   LIG A   1      -7.393  -3.416 131.143  0.00  0.00    -0.079 Cl
ATOM     11  C   LIG A   1      -8.622   0.459 131.762  0.00  0.00    +0.280 C 
ATOM     12  O   LIG A   1      -8.564   1.363 132.841  0.00  0.00    -0.445 OA
ATOM     13  C   LIG A   1      -7.673   2.336 132.530  0.00  0.00    +0.344 C 
ATOM     14  O   LIG A   1      -7.261   3.155 133.346  0.00  0.00    -0.245 OA
ATOM     15  C   LIG A   1      -7.959  -0.893 132.044  0.00  0.00    +0.220 C 
ATOM     16  O   LIG A   1      -7.727  -1.283 133.187  0.00  0.00    -0.287 OA
ENDROOT
BRANCH   1  17
ATOM     17  C   LIG A   1      -6.418   3.208 130.357  0.00  0.00    +0.177 C 
ATOM     18  O   LIG A   1      -5.207   3.007 130.326  0.00  0.00    -0.291 OA
BRANCH  17  19
ATOM     19  C   LIG A   1      -7.014   4.422 129.638  0.00  0.00    +0.098 C 
ATOM     20  C   LIG A   1      -7.996   4.002 128.536  0.00  0.00    +0.020 C 
BRANCH  19  22
ATOM     21  C   LIG A   1      -6.666   5.947 131.698  0.00  0.00    +0.052 C 
ATOM     22  C   LIG A   1      -7.638   5.435 130.620  0.00  0.00    +0.184 C 
BRANCH  22  23
ATOM     23  O   LIG A   1      -8.802   4.960 131.335  0.00  0.00    -0.459 OA
BRANCH  23  24
ATOM     24  C   LIG A   1      -9.859   5.778 131.609  0.00  0.00    +0.341 C 
ATOM     25  O   LIG A   1      -9.910   6.601 132.516  0.00  0.00    -0.247 OA
BRANCH  24  26
ATOM     26  C   LIG A   1     -11.069   5.440 130.726  0.00  0.00    +0.256 C 
BRANCH  26  27
ATOM     27  C   LIG A   1     -11.497   6.572 129.799  0.00  0.00    -0.008 A 
ATOM     28  C   LIG A   1     -12.842   6.863 129.513  0.00  0.00    +0.007 A 
ATOM     29  C   LIG A   1     -13.187   7.898 128.642  0.00  0.00    +0.000 A 
ATOM     30  C   LIG A   1     -12.193   8.672 128.054  0.00  0.00    +0.000 A 
ATOM     31  C   LIG A   1     -10.857   8.426 128.353  0.00  0.00    +0.000 A 
ATOM     32  C   LIG A   1     -10.512   7.393 129.228  0.00  0.00    +0.007 A 
ENDBRANCH  26  27
BRANCH  26  33
ATOM     33  O   LIG A   1     -10.862   4.266 129.933  0.00  0.00    -0.364 OA
ATOM     34  C   LIG A   1     -11.075   3.048 130.643  0.00  0.00    +0.195 C 
ENDBRANCH  26  33
ENDBRANCH  24  26
ENDBRANCH  23  24
ENDBRANCH  22  23
ENDBRANCH  19  22
ENDBRANCH  17  19
ENDBRANCH   1  17
BRANCH   6  35
ATOM     35  C   LIG A   1      -7.407  -1.995 125.927  0.00  0.00    +0.042 C 
ATOM     36  C   LIG A   1      -6.245  -2.106 125.256  0.00  0.00    -0.020 C 
BRANCH  36  37
ATOM     37  C   LIG A   1      -6.108  -2.751 123.891  0.00  0.00    +0.008 C 
ATOM     38  C   LIG A   1      -6.653  -1.788 122.832  0.00  0.00    +0.012 C 
BRANCH  37  39
ATOM     39  C   LIG A   1      -4.652  -3.156 123.588  0.00  0.00    +0.004 C 
ATOM     40  C   LIG A   1      -4.432  -4.666 123.657  0.00  0.00    +0.004 C 
ENDBRANCH  37  39
ENDBRANCH  36  37
ENDBRANCH   6  35
TORSDOF 11
ENDMDL
MODEL 9
REMARK VINA RESULT:      -7.6      3.534      8.030
REMARK  Name = NuBBE_675
REMARK  16 active torsions:
REMARK  status: ('A' for Active; 'I' for Inactive)
REMARK    1  A    between atoms: C_1  and  C_2
REMARK    2  A    between atoms: C_2  and  O_4
REMARK    3  A    between atoms: C_2  and  C_17
REMARK    4  A    between atoms: O_4  and  C_5
REMARK    5  A    between atoms: C_5  and  C_6
REMARK    6  A    between atoms: C_6  and  O_8
REMARK    7  A    between atoms: C_6  and  C_10
REMARK    8  A    between atoms: O_8  and  C_9
REMARK    9  A    between atoms: C_17  and  C_19
REMARK   10  A    between atoms: C_17  and  C_20
REMARK   11  A    between atoms: C_20  and  C_21
REMARK   12  A    between atoms: C_26  and  C_27
REMARK   13  A    between atoms: C_28  and  C_29
REMARK   14  A    between atoms: C_29  and  C_31
REMARK   15  A    between atoms: C_29  and  C_32
REMARK   16  A    between atoms: C_32  and  C_33
REMARK                            x       y       z     vdW  Elec       q    Type
REMARK                         _______ _______ _______ _____ _____    ______ ____
ROOT
ATOM      1  C   LIG A   1      -8.058   1.843 131.149  0.00  0.00    +0.109 C 
ATOM      2  C   LIG A   1      -7.525   0.692 130.721  0.00  0.00    +0.028 C 
ATOM      3  C   LIG A   1      -7.115   0.163 129.439  0.00  0.00    +0.027 C 
ATOM      4  C   LIG A   1      -7.911   0.138 128.356  0.00  0.00    +0.204 C 
ATOM      5  O   LIG A   1      -7.564  -0.418 127.139  0.00  0.00    -0.463 OA
ATOM      6  C   LIG A   1      -6.266  -0.892 126.963  0.00  0.00    +0.128 C 
ATOM      7  C   LIG A   1      -5.376  -0.933 127.972  0.00  0.00    +0.056 C 
ATOM      8  C   LIG A   1      -5.802  -0.526 129.312  0.00  0.00    +0.011 C 
ATOM      9  C   LIG A   1      -5.053  -0.734 130.420  0.00  0.00    +0.095 C 
ATOM     10 CL   LIG A   1      -3.483  -1.457 130.423  0.00  0.00    -0.079 Cl
ATOM     11  C   LIG A   1      -7.123  -0.179 131.847  0.00  0.00    +0.280 C 
ATOM     12  O   LIG A   1      -7.557   0.517 132.993  0.00  0.00    -0.445 OA
ATOM     13  C   LIG A   1      -7.952   1.755 132.612  0.00  0.00    +0.344 C 
ATOM     14  O   LIG A   1      -8.196   2.658 133.407  0.00  0.00    -0.245 OA
ATOM     15  C   LIG A   1      -5.605  -0.372 131.772  0.00  0.00    +0.220 C 
ATOM     16  O   LIG A   1      -4.881  -0.264 132.760  0.00  0.00    -0.287 OA
ENDROOT
BRANCH   1  17
ATOM     17  C   LIG A   1      -8.538   3.002 130.340  0.00  0.00    +0.177 C 
ATOM     18  O   LIG A   1      -9.743   3.210 130.234  0.00  0.00    -0.291 OA
BRANCH  17  19
ATOM     19  C   LIG A   1      -7.534   3.921 129.636  0.00  0.00    +0.098 C 
ATOM     20  C   LIG A   1      -8.086   4.448 128.304  0.00  0.00    +0.020 C 
BRANCH  19  22
ATOM     21  C   LIG A   1      -8.143   6.027 131.008  0.00  0.00    +0.052 C 
ATOM     22  C   LIG A   1      -7.038   5.057 130.553  0.00  0.00    +0.184 C 
BRANCH  22  23
ATOM     23  O   LIG A   1      -5.994   5.887 129.993  0.00  0.00    -0.459 OA
BRANCH  23  24
ATOM     24  C   LIG A   1      -4.896   6.245 130.719  0.00  0.00    +0.341 C 
ATOM     25  O   LIG A   1      -4.609   7.384 131.067  0.00  0.00    -0.247 OA
BRANCH  24  26
ATOM     26  C   LIG A   1      -3.953   5.051 130.928  0.00  0.00    +0.256 C 
BRANCH  26  27
ATOM     27  C   LIG A   1      -3.593   4.312 129.643  0.00  0.00    -0.008 A 
ATOM     28  C   LIG A   1      -4.030   3.008 129.359  0.00  0.00    +0.007 A 
ATOM     29  C   LIG A   1      -3.659   2.363 128.177  0.00  0.00    +0.000 A 
ATOM     30  C   LIG A   1      -2.855   3.019 127.251  0.00  0.00    +0.000 A 
ATOM     31  C   LIG A   1      -2.442   4.325 127.495  0.00  0.00    +0.000 A 
ATOM     32  C   LIG A   1      -2.817   4.971 128.676  0.00  0.00    +0.007 A 
ENDBRANCH  26  27
BRANCH  26  33
ATOM     33  O   LIG A   1      -2.737   5.416 131.590  0.00  0.00    -0.364 OA
ATOM     34  C   LIG A   1      -2.213   4.393 132.434  0.00  0.00    +0.195 C 
ENDBRANCH  26  33
ENDBRANCH  24  26
ENDBRANCH  23  24
ENDBRANCH  22  23
ENDBRANCH  19  22
ENDBRANCH  17  19
ENDBRANCH   1  17
BRANCH   6  35
ATOM     35  C   LIG A   1      -5.943  -1.309 125.612  0.00  0.00    +0.042 C 
ATOM     36  C   LIG A   1      -6.419  -2.419 125.018  0.00  0.00    -0.020 C 
BRANCH  36  37
ATOM     37  C   LIG A   1      -6.009  -2.888 123.636  0.00  0.00    +0.008 C 
ATOM     38  C   LIG A   1      -6.337  -1.787 122.622  0.00  0.00    +0.012 C 
BRANCH  37  39
ATOM     39  C   LIG A   1      -4.519  -3.280 123.578  0.00  0.00    +0.004 C 
ATOM     40  C   LIG A   1      -4.307  -4.793 123.547  0.00  0.00    +0.004 C 
ENDBRANCH  37  39
ENDBRANCH  36  37
ENDBRANCH   6  35
TORSDOF 11
ENDMDL
