MODEL 1
REMARK VINA RESULT:      -6.4      0.000      0.000
REMARK  Name = NuBBE_2063
REMARK  7 active torsions:
REMARK  status: ('A' for Active; 'I' for Inactive)
REMARK    1  A    between atoms: C_2  and  C_3
REMARK    2  A    between atoms: C_3  and  N_5
REMARK    3  A    between atoms: C_3  and  C_9
REMARK    4  A    between atoms: N_5  and  C_6
REMARK    5  A    between atoms: N_5  and  C_7
REMARK    6  A    between atoms: N_5  and  C_8
REMARK    7  A    between atoms: C_9  and  C_10
REMARK                            x       y       z     vdW  Elec       q    Type
REMARK                         _______ _______ _______ _____ _____    ______ ____
ROOT
ATOM      1  C   LIG A   1      -7.430   2.991 122.563  0.00  0.00    -0.017 A 
ATOM      2  C   LIG A   1      -8.736   2.798 122.147  0.00  0.00    +0.087 A 
ATOM      3  N   LIG A   1      -8.902   3.407 120.936  0.00  0.00    -0.360 N 
ATOM      4  C   LIG A   1      -7.707   3.925 120.499  0.00  0.00    +0.047 A 
ATOM      5  C   LIG A   1      -7.407   4.585 119.302  0.00  0.00    +0.026 A 
ATOM      6  C   LIG A   1      -6.094   5.017 119.111  0.00  0.00    +0.002 A 
ATOM      7  C   LIG A   1      -5.131   4.826 120.098  0.00  0.00    +0.001 A 
ATOM      8  C   LIG A   1      -5.455   4.188 121.304  0.00  0.00    +0.010 A 
ATOM      9  C   LIG A   1      -6.765   3.703 121.507  0.00  0.00    +0.003 A 
ATOM     10  H   LIG A   1      -9.774   3.473 120.429  0.00  0.00    +0.165 HD
ENDROOT
BRANCH   1  11
ATOM     11  C   LIG A   1      -6.890   2.568 123.903  0.00  0.00    +0.098 C 
BRANCH  11  12
ATOM     12  C   LIG A   1      -6.796   3.630 125.020  0.00  0.00    +0.117 C 
BRANCH  12  13
ATOM     13  N   LIG A   1      -5.690   3.328 126.171  0.00  0.00    +0.243 N 
ATOM     14  C   LIG A   1      -5.493   1.854 126.392  0.00  0.00    +0.192 C 
ATOM     15  C   LIG A   1      -4.372   3.927 125.669  0.00  0.00    +0.192 C 
ATOM     16  C   LIG A   1      -6.070   4.029 127.464  0.00  0.00    +0.192 C 
ENDBRANCH  12  13
BRANCH  12  18
ATOM     17  O   LIG A   1      -8.844   2.692 125.797  0.00  0.00    -0.544 OA
ATOM     18  C   LIG A   1      -8.269   3.797 125.558  0.00  0.00    +0.090 C 
ATOM     19  O   LIG A   1      -8.731   4.965 125.541  0.00  0.00    -0.544 OA
ENDBRANCH  12  18
ENDBRANCH  11  12
ENDBRANCH   1  11
TORSDOF 4
ENDMDL
MODEL 2
REMARK VINA RESULT:      -6.2      7.696      8.860
REMARK  Name = NuBBE_2063
REMARK  7 active torsions:
REMARK  status: ('A' for Active; 'I' for Inactive)
REMARK    1  A    between atoms: C_2  and  C_3
REMARK    2  A    between atoms: C_3  and  N_5
REMARK    3  A    between atoms: C_3  and  C_9
REMARK    4  A    between atoms: N_5  and  C_6
REMARK    5  A    between atoms: N_5  and  C_7
REMARK    6  A    between atoms: N_5  and  C_8
REMARK    7  A    between atoms: C_9  and  C_10
REMARK                            x       y       z     vdW  Elec       q    Type
REMARK                         _______ _______ _______ _____ _____    ______ ____
ROOT
ATOM      1  C   LIG A   1      -9.634   6.671 131.047  0.00  0.00    -0.017 A 
ATOM      2  C   LIG A   1     -10.402   6.042 132.012  0.00  0.00    +0.087 A 
ATOM      3  N   LIG A   1     -11.721   6.256 131.727  0.00  0.00    -0.360 N 
ATOM      4  C   LIG A   1     -11.845   6.940 130.543  0.00  0.00    +0.047 A 
ATOM      5  C   LIG A   1     -13.000   7.329 129.855  0.00  0.00    +0.026 A 
ATOM      6  C   LIG A   1     -12.837   8.027 128.658  0.00  0.00    +0.002 A 
ATOM      7  C   LIG A   1     -11.568   8.354 128.191  0.00  0.00    +0.001 A 
ATOM      8  C   LIG A   1     -10.421   7.983 128.907  0.00  0.00    +0.010 A 
ATOM      9  C   LIG A   1     -10.553   7.239 130.099  0.00  0.00    +0.003 A 
ATOM     10  H   LIG A   1     -12.498   5.959 132.301  0.00  0.00    +0.165 HD
ENDROOT
BRANCH   1  11
ATOM     11  C   LIG A   1      -8.132   6.762 131.076  0.00  0.00    +0.098 C 
BRANCH  11  12
ATOM     12  C   LIG A   1      -7.328   5.468 131.326  0.00  0.00    +0.117 C 
BRANCH  12  13
ATOM     13  N   LIG A   1      -5.754   5.686 131.666  0.00  0.00    +0.243 N 
ATOM     14  C   LIG A   1      -5.194   6.907 130.990  0.00  0.00    +0.192 C 
ATOM     15  C   LIG A   1      -5.666   5.884 133.183  0.00  0.00    +0.192 C 
ATOM     16  C   LIG A   1      -4.959   4.445 131.300  0.00  0.00    +0.192 C 
ENDBRANCH  12  13
BRANCH  12  18
ATOM     17  O   LIG A   1      -7.379   5.147 128.965  0.00  0.00    -0.544 OA
ATOM     18  C   LIG A   1      -7.603   4.560 130.066  0.00  0.00    +0.090 C 
ATOM     19  O   LIG A   1      -8.139   3.447 130.298  0.00  0.00    -0.544 OA
ENDBRANCH  12  18
ENDBRANCH  11  12
ENDBRANCH   1  11
TORSDOF 4
ENDMDL
MODEL 3
REMARK VINA RESULT:      -6.2      7.543      8.880
REMARK  Name = NuBBE_2063
REMARK  7 active torsions:
REMARK  status: ('A' for Active; 'I' for Inactive)
REMARK    1  A    between atoms: C_2  and  C_3
REMARK    2  A    between atoms: C_3  and  N_5
REMARK    3  A    between atoms: C_3  and  C_9
REMARK    4  A    between atoms: N_5  and  C_6
REMARK    5  A    between atoms: N_5  and  C_7
REMARK    6  A    between atoms: N_5  and  C_8
REMARK    7  A    between atoms: C_9  and  C_10
REMARK                            x       y       z     vdW  Elec       q    Type
REMARK                         _______ _______ _______ _____ _____    ______ ____
ROOT
ATOM      1  C   LIG A   1     -10.291   6.522 131.251  0.00  0.00    -0.017 A 
ATOM      2  C   LIG A   1     -11.393   6.382 132.077  0.00  0.00    +0.087 A 
ATOM      3  N   LIG A   1     -12.442   7.059 131.525  0.00  0.00    -0.360 N 
ATOM      4  C   LIG A   1     -12.082   7.574 130.304  0.00  0.00    +0.047 A 
ATOM      5  C   LIG A   1     -12.849   8.293 129.379  0.00  0.00    +0.026 A 
ATOM      6  C   LIG A   1     -12.225   8.705 128.201  0.00  0.00    +0.002 A 
ATOM      7  C   LIG A   1     -10.877   8.439 127.978  0.00  0.00    +0.001 A 
ATOM      8  C   LIG A   1     -10.115   7.742 128.928  0.00  0.00    +0.010 A 
ATOM      9  C   LIG A   1     -10.730   7.276 130.109  0.00  0.00    +0.003 A 
ATOM     10  H   LIG A   1     -13.353   7.173 131.948  0.00  0.00    +0.165 HD
ENDROOT
BRANCH   1  11
ATOM     11  C   LIG A   1      -8.911   6.015 131.573  0.00  0.00    +0.098 C 
BRANCH  11  12
ATOM     12  C   LIG A   1      -8.606   4.522 131.323  0.00  0.00    +0.117 C 
BRANCH  12  13
ATOM     13  N   LIG A   1      -7.421   3.895 132.242  0.00  0.00    +0.243 N 
ATOM     14  C   LIG A   1      -6.412   4.933 132.649  0.00  0.00    +0.192 C 
ATOM     15  C   LIG A   1      -8.098   3.351 133.504  0.00  0.00    +0.192 C 
ATOM     16  C   LIG A   1      -6.754   2.736 131.522  0.00  0.00    +0.192 C 
ENDBRANCH  12  13
BRANCH  12  18
ATOM     17  O   LIG A   1      -7.516   5.244 129.331  0.00  0.00    -0.544 OA
ATOM     18  C   LIG A   1      -8.359   4.405 129.770  0.00  0.00    +0.090 C 
ATOM     19  O   LIG A   1      -9.117   3.617 129.152  0.00  0.00    -0.544 OA
ENDBRANCH  12  18
ENDBRANCH  11  12
ENDBRANCH   1  11
TORSDOF 4
ENDMDL
MODEL 4
REMARK VINA RESULT:      -5.9      7.811      9.264
REMARK  Name = NuBBE_2063
REMARK  7 active torsions:
REMARK  status: ('A' for Active; 'I' for Inactive)
REMARK    1  A    between atoms: C_2  and  C_3
REMARK    2  A    between atoms: C_3  and  N_5
REMARK    3  A    between atoms: C_3  and  C_9
REMARK    4  A    between atoms: N_5  and  C_6
REMARK    5  A    between atoms: N_5  and  C_7
REMARK    6  A    between atoms: N_5  and  C_8
REMARK    7  A    between atoms: C_9  and  C_10
REMARK                            x       y       z     vdW  Elec       q    Type
REMARK                         _______ _______ _______ _____ _____    ______ ____
ROOT
ATOM      1  C   LIG A   1      -8.888   6.400 131.613  0.00  0.00    -0.017 A 
ATOM      2  C   LIG A   1      -9.462   5.769 132.702  0.00  0.00    +0.087 A 
ATOM      3  N   LIG A   1     -10.818   5.914 132.626  0.00  0.00    -0.360 N 
ATOM      4  C   LIG A   1     -11.160   6.555 131.461  0.00  0.00    +0.047 A 
ATOM      5  C   LIG A   1     -12.427   6.870 130.956  0.00  0.00    +0.026 A 
ATOM      6  C   LIG A   1     -12.489   7.537 129.732  0.00  0.00    +0.002 A 
ATOM      7  C   LIG A   1     -11.327   7.906 129.061  0.00  0.00    +0.001 A 
ATOM      8  C   LIG A   1     -10.064   7.609 129.595  0.00  0.00    +0.010 A 
ATOM      9  C   LIG A   1      -9.971   6.897 130.810  0.00  0.00    +0.003 A 
ATOM     10  H   LIG A   1     -11.480   5.601 133.322  0.00  0.00    +0.165 HD
ENDROOT
BRANCH   1  11
ATOM     11  C   LIG A   1      -7.406   6.559 131.402  0.00  0.00    +0.098 C 
BRANCH  11  12
ATOM     12  C   LIG A   1      -6.579   5.301 131.060  0.00  0.00    +0.117 C 
BRANCH  12  13
ATOM     13  N   LIG A   1      -5.766   4.647 132.306  0.00  0.00    +0.243 N 
ATOM     14  C   LIG A   1      -4.391   4.188 131.903  0.00  0.00    +0.192 C 
ATOM     15  C   LIG A   1      -5.623   5.754 133.354  0.00  0.00    +0.192 C 
ATOM     16  C   LIG A   1      -6.565   3.510 132.918  0.00  0.00    +0.192 C 
ENDBRANCH  12  13
BRANCH  12  18
ATOM     17  O   LIG A   1      -5.143   6.862 129.975  0.00  0.00    -0.544 OA
ATOM     18  C   LIG A   1      -5.674   5.719 129.838  0.00  0.00    +0.090 C 
ATOM     19  O   LIG A   1      -5.711   4.956 128.841  0.00  0.00    -0.544 OA
ENDBRANCH  12  18
ENDBRANCH  11  12
ENDBRANCH   1  11
TORSDOF 4
ENDMDL
MODEL 5
REMARK VINA RESULT:      -5.6      5.682      9.199
REMARK  Name = NuBBE_2063
REMARK  7 active torsions:
REMARK  status: ('A' for Active; 'I' for Inactive)
REMARK    1  A    between atoms: C_2  and  C_3
REMARK    2  A    between atoms: C_3  and  N_5
REMARK    3  A    between atoms: C_3  and  C_9
REMARK    4  A    between atoms: N_5  and  C_6
REMARK    5  A    between atoms: N_5  and  C_7
REMARK    6  A    between atoms: N_5  and  C_8
REMARK    7  A    between atoms: C_9  and  C_10
REMARK                            x       y       z     vdW  Elec       q    Type
REMARK                         _______ _______ _______ _____ _____    ______ ____
ROOT
ATOM      1  C   LIG A   1      -7.320  -2.390 128.173  0.00  0.00    -0.017 A 
ATOM      2  C   LIG A   1      -8.318  -2.850 129.016  0.00  0.00    +0.087 A 
ATOM      3  N   LIG A   1      -7.737  -3.533 130.046  0.00  0.00    -0.360 N 
ATOM      4  C   LIG A   1      -6.369  -3.461 129.951  0.00  0.00    +0.047 A 
ATOM      5  C   LIG A   1      -5.388  -3.974 130.808  0.00  0.00    +0.026 A 
ATOM      6  C   LIG A   1      -4.053  -3.756 130.467  0.00  0.00    +0.002 A 
ATOM      7  C   LIG A   1      -3.717  -3.084 129.295  0.00  0.00    +0.001 A 
ATOM      8  C   LIG A   1      -4.712  -2.602 128.433  0.00  0.00    +0.010 A 
ATOM      9  C   LIG A   1      -6.071  -2.771 128.772  0.00  0.00    +0.003 A 
ATOM     10  H   LIG A   1      -8.235  -4.026 130.775  0.00  0.00    +0.165 HD
ENDROOT
BRANCH   1  11
ATOM     11  C   LIG A   1      -7.565  -1.690 126.863  0.00  0.00    +0.098 C 
BRANCH  11  12
ATOM     12  C   LIG A   1      -7.379  -2.496 125.560  0.00  0.00    +0.117 C 
BRANCH  12  13
ATOM     13  N   LIG A   1      -6.327  -1.860 124.497  0.00  0.00    +0.243 N 
ATOM     14  C   LIG A   1      -7.020  -1.080 123.414  0.00  0.00    +0.192 C 
ATOM     15  C   LIG A   1      -5.435  -0.904 125.295  0.00  0.00    +0.192 C 
ATOM     16  C   LIG A   1      -5.449  -2.951 123.908  0.00  0.00    +0.192 C 
ENDBRANCH  12  13
BRANCH  12  18
ATOM     17  O   LIG A   1      -9.691  -1.921 125.503  0.00  0.00    -0.544 OA
ATOM     18  C   LIG A   1      -8.835  -2.705 124.991  0.00  0.00    +0.090 C 
ATOM     19  O   LIG A   1      -8.992  -3.694 124.232  0.00  0.00    -0.544 OA
ENDBRANCH  12  18
ENDBRANCH  11  12
ENDBRANCH   1  11
TORSDOF 4
ENDMDL
MODEL 6
REMARK VINA RESULT:      -5.6      7.706      9.981
REMARK  Name = NuBBE_2063
REMARK  7 active torsions:
REMARK  status: ('A' for Active; 'I' for Inactive)
REMARK    1  A    between atoms: C_2  and  C_3
REMARK    2  A    between atoms: C_3  and  N_5
REMARK    3  A    between atoms: C_3  and  C_9
REMARK    4  A    between atoms: N_5  and  C_6
REMARK    5  A    between atoms: N_5  and  C_7
REMARK    6  A    between atoms: N_5  and  C_8
REMARK    7  A    between atoms: C_9  and  C_10
REMARK                            x       y       z     vdW  Elec       q    Type
REMARK                         _______ _______ _______ _____ _____    ______ ____
ROOT
ATOM      1  C   LIG A   1     -10.029   3.903 130.788  0.00  0.00    -0.017 A 
ATOM      2  C   LIG A   1      -9.445   2.952 129.970  0.00  0.00    +0.087 A 
ATOM      3  N   LIG A   1      -8.373   2.414 130.623  0.00  0.00    -0.360 N 
ATOM      4  C   LIG A   1      -8.287   2.927 131.894  0.00  0.00    +0.047 A 
ATOM      5  C   LIG A   1      -7.379   2.627 132.916  0.00  0.00    +0.026 A 
ATOM      6  C   LIG A   1      -7.518   3.308 134.126  0.00  0.00    +0.002 A 
ATOM      7  C   LIG A   1      -8.503   4.277 134.289  0.00  0.00    +0.001 A 
ATOM      8  C   LIG A   1      -9.386   4.587 133.245  0.00  0.00    +0.010 A 
ATOM      9  C   LIG A   1      -9.297   3.884 132.024  0.00  0.00    +0.003 A 
ATOM     10  H   LIG A   1      -7.730   1.738 130.234  0.00  0.00    +0.165 HD
ENDROOT
BRANCH   1  11
ATOM     11  C   LIG A   1     -11.168   4.799 130.378  0.00  0.00    +0.098 C 
BRANCH  11  12
ATOM     12  C   LIG A   1     -10.927   6.323 130.361  0.00  0.00    +0.117 C 
BRANCH  12  13
ATOM     13  N   LIG A   1     -12.205   7.221 129.910  0.00  0.00    +0.243 N 
ATOM     14  C   LIG A   1     -13.095   6.490 128.944  0.00  0.00    +0.192 C 
ATOM     15  C   LIG A   1     -13.001   7.506 131.187  0.00  0.00    +0.192 C 
ATOM     16  C   LIG A   1     -11.740   8.545 129.332  0.00  0.00    +0.192 C 
ENDBRANCH  12  13
BRANCH  12  18
ATOM     17  O   LIG A   1      -8.725   7.183 130.061  0.00  0.00    -0.544 OA
ATOM     18  C   LIG A   1      -9.640   6.530 129.474  0.00  0.00    +0.090 C 
ATOM     19  O   LIG A   1      -9.734   6.163 128.276  0.00  0.00    -0.544 OA
ENDBRANCH  12  18
ENDBRANCH  11  12
ENDBRANCH   1  11
TORSDOF 4
ENDMDL
MODEL 7
REMARK VINA RESULT:      -5.5      4.953      8.529
REMARK  Name = NuBBE_2063
REMARK  7 active torsions:
REMARK  status: ('A' for Active; 'I' for Inactive)
REMARK    1  A    between atoms: C_2  and  C_3
REMARK    2  A    between atoms: C_3  and  N_5
REMARK    3  A    between atoms: C_3  and  C_9
REMARK    4  A    between atoms: N_5  and  C_6
REMARK    5  A    between atoms: N_5  and  C_7
REMARK    6  A    between atoms: N_5  and  C_8
REMARK    7  A    between atoms: C_9  and  C_10
REMARK                            x       y       z     vdW  Elec       q    Type
REMARK                         _______ _______ _______ _____ _____    ______ ____
ROOT
ATOM      1  C   LIG A   1      -7.152  -2.057 126.628  0.00  0.00    -0.017 A 
ATOM      2  C   LIG A   1      -5.853  -1.758 126.258  0.00  0.00    +0.087 A 
ATOM      3  N   LIG A   1      -5.042  -1.917 127.346  0.00  0.00    -0.360 N 
ATOM      4  C   LIG A   1      -5.766  -2.401 128.408  0.00  0.00    +0.047 A 
ATOM      5  C   LIG A   1      -5.336  -2.751 129.694  0.00  0.00    +0.026 A 
ATOM      6  C   LIG A   1      -6.295  -3.220 130.592  0.00  0.00    +0.002 A 
ATOM      7  C   LIG A   1      -7.635  -3.298 130.227  0.00  0.00    +0.001 A 
ATOM      8  C   LIG A   1      -8.054  -2.916 128.944  0.00  0.00    +0.010 A 
ATOM      9  C   LIG A   1      -7.101  -2.478 128.001  0.00  0.00    +0.003 A 
ATOM     10  H   LIG A   1      -4.054  -1.709 127.375  0.00  0.00    +0.165 HD
ENDROOT
BRANCH   1  11
ATOM     11  C   LIG A   1      -8.354  -1.889 125.737  0.00  0.00    +0.098 C 
BRANCH  11  12
ATOM     12  C   LIG A   1      -8.176  -1.118 124.411  0.00  0.00    +0.117 C 
BRANCH  12  13
ATOM     13  N   LIG A   1      -8.774   0.393 124.404  0.00  0.00    +0.243 N 
ATOM     14  C   LIG A   1      -9.643   0.651 123.204  0.00  0.00    +0.192 C 
ATOM     15  C   LIG A   1      -9.633   0.522 125.665  0.00  0.00    +0.192 C 
ATOM     16  C   LIG A   1      -7.645   1.406 124.490  0.00  0.00    +0.192 C 
ENDBRANCH  12  13
BRANCH  12  18
ATOM     17  O   LIG A   1      -9.785  -2.723 123.692  0.00  0.00    -0.544 OA
ATOM     18  C   LIG A   1      -8.777  -2.062 123.299  0.00  0.00    +0.090 C 
ATOM     19  O   LIG A   1      -8.110  -2.153 122.238  0.00  0.00    -0.544 OA
ENDBRANCH  12  18
ENDBRANCH  11  12
ENDBRANCH   1  11
TORSDOF 4
ENDMDL
MODEL 8
REMARK VINA RESULT:      -5.4      6.178      7.308
REMARK  Name = NuBBE_2063
REMARK  7 active torsions:
REMARK  status: ('A' for Active; 'I' for Inactive)
REMARK    1  A    between atoms: C_2  and  C_3
REMARK    2  A    between atoms: C_3  and  N_5
REMARK    3  A    between atoms: C_3  and  C_9
REMARK    4  A    between atoms: N_5  and  C_6
REMARK    5  A    between atoms: N_5  and  C_7
REMARK    6  A    between atoms: N_5  and  C_8
REMARK    7  A    between atoms: C_9  and  C_10
REMARK                            x       y       z     vdW  Elec       q    Type
REMARK                         _______ _______ _______ _____ _____    ______ ____
ROOT
ATOM      1  C   LIG A   1      -6.413  -1.925 126.144  0.00  0.00    -0.017 A 
ATOM      2  C   LIG A   1      -5.578  -1.140 125.368  0.00  0.00    +0.087 A 
ATOM      3  N   LIG A   1      -6.018  -1.181 124.076  0.00  0.00    -0.360 N 
ATOM      4  C   LIG A   1      -7.181  -1.907 123.995  0.00  0.00    +0.047 A 
ATOM      5  C   LIG A   1      -7.994  -2.166 122.885  0.00  0.00    +0.026 A 
ATOM      6  C   LIG A   1      -9.133  -2.946 123.085  0.00  0.00    +0.002 A 
ATOM      7  C   LIG A   1      -9.423  -3.476 124.339  0.00  0.00    +0.001 A 
ATOM      8  C   LIG A   1      -8.583  -3.231 125.435  0.00  0.00    +0.010 A 
ATOM      9  C   LIG A   1      -7.446  -2.410 125.272  0.00  0.00    +0.003 A 
ATOM     10  H   LIG A   1      -5.560  -0.745 123.287  0.00  0.00    +0.165 HD
ENDROOT
BRANCH   1  11
ATOM     11  C   LIG A   1      -6.190  -2.226 127.602  0.00  0.00    +0.098 C 
BRANCH  11  12
ATOM     12  C   LIG A   1      -7.322  -1.892 128.597  0.00  0.00    +0.117 C 
BRANCH  12  13
ATOM     13  N   LIG A   1      -6.955  -0.767 129.712  0.00  0.00    +0.243 N 
ATOM     14  C   LIG A   1      -5.509  -0.831 130.123  0.00  0.00    +0.192 C 
ATOM     15  C   LIG A   1      -7.216   0.591 129.054  0.00  0.00    +0.192 C 
ATOM     16  C   LIG A   1      -7.872  -0.899 130.915  0.00  0.00    +0.192 C 
ENDBRANCH  12  13
BRANCH  12  18
ATOM     17  O   LIG A   1      -6.815  -3.940 129.705  0.00  0.00    -0.544 OA
ATOM     18  C   LIG A   1      -7.771  -3.280 129.195  0.00  0.00    +0.090 C 
ATOM     19  O   LIG A   1      -8.959  -3.619 128.965  0.00  0.00    -0.544 OA
ENDBRANCH  12  18
ENDBRANCH  11  12
ENDBRANCH   1  11
TORSDOF 4
ENDMDL
MODEL 9
REMARK VINA RESULT:      -5.2      5.037      8.794
REMARK  Name = NuBBE_2063
REMARK  7 active torsions:
REMARK  status: ('A' for Active; 'I' for Inactive)
REMARK    1  A    between atoms: C_2  and  C_3
REMARK    2  A    between atoms: C_3  and  N_5
REMARK    3  A    between atoms: C_3  and  C_9
REMARK    4  A    between atoms: N_5  and  C_6
REMARK    5  A    between atoms: N_5  and  C_7
REMARK    6  A    between atoms: N_5  and  C_8
REMARK    7  A    between atoms: C_9  and  C_10
REMARK                            x       y       z     vdW  Elec       q    Type
REMARK                         _______ _______ _______ _____ _____    ______ ____
ROOT
ATOM      1  C   LIG A   1      -6.793  -1.154 127.213  0.00  0.00    -0.017 A 
ATOM      2  C   LIG A   1      -5.557  -0.531 127.205  0.00  0.00    +0.087 A 
ATOM      3  N   LIG A   1      -4.929  -0.795 128.389  0.00  0.00    -0.360 N 
ATOM      4  C   LIG A   1      -5.687  -1.652 129.147  0.00  0.00    +0.047 A 
ATOM      5  C   LIG A   1      -5.412  -2.217 130.398  0.00  0.00    +0.026 A 
ATOM      6  C   LIG A   1      -6.372  -3.065 130.951  0.00  0.00    +0.002 A 
ATOM      7  C   LIG A   1      -7.575  -3.306 130.293  0.00  0.00    +0.001 A 
ATOM      8  C   LIG A   1      -7.847  -2.709 129.054  0.00  0.00    +0.010 A 
ATOM      9  C   LIG A   1      -6.877  -1.880 128.450  0.00  0.00    +0.003 A 
ATOM     10  H   LIG A   1      -4.036  -0.415 128.675  0.00  0.00    +0.165 HD
ENDROOT
BRANCH   1  11
ATOM     11  C   LIG A   1      -7.830  -1.006 126.133  0.00  0.00    +0.098 C 
BRANCH  11  12
ATOM     12  C   LIG A   1      -7.706  -1.893 124.875  0.00  0.00    +0.117 C 
BRANCH  12  13
ATOM     13  N   LIG A   1      -7.725  -1.094 123.460  0.00  0.00    +0.243 N 
ATOM     14  C   LIG A   1      -7.335   0.350 123.621  0.00  0.00    +0.192 C 
ATOM     15  C   LIG A   1      -6.690  -1.782 122.565  0.00  0.00    +0.192 C 
ATOM     16  C   LIG A   1      -9.087  -1.223 122.801  0.00  0.00    +0.192 C 
ENDBRANCH  12  13
BRANCH  12  18
ATOM     17  O   LIG A   1      -9.821  -2.593 125.721  0.00  0.00    -0.544 OA
ATOM     18  C   LIG A   1      -8.835  -2.983 125.024  0.00  0.00    +0.090 C 
ATOM     19  O   LIG A   1      -8.561  -4.123 124.574  0.00  0.00    -0.544 OA
ENDBRANCH  12  18
ENDBRANCH  11  12
ENDBRANCH   1  11
TORSDOF 4
ENDMDL
