MODEL 1
REMARK VINA RESULT:      -7.8      0.000      0.000
REMARK  Name = NuBBE_2295
REMARK  6 active torsions:
REMARK  status: ('A' for Active; 'I' for Inactive)
REMARK    1  A    between atoms: C_2  and  O_3
REMARK    2  A    between atoms: C_2  and  C_5
REMARK    3  A    between atoms: O_3  and  C_4
REMARK    4  A    between atoms: C_5  and  C_6
REMARK    5  A    between atoms: C_13  and  C_15
REMARK    6  A    between atoms: C_24  and  C_25
REMARK                            x       y       z     vdW  Elec       q    Type
REMARK                         _______ _______ _______ _____ _____    ______ ____
ROOT
ATOM      1  C   LIG A   1      -6.150  -2.897 131.636  0.00  0.00    +0.068 C 
ATOM      2  C   LIG A   1      -7.317  -2.207 132.396  0.00  0.00    +0.023 C 
ATOM      3  C   LIG A   1      -6.483  -3.297 130.122  0.00  0.00    +0.012 C 
ATOM      4  C   LIG A   1      -8.001  -3.213 129.860  0.00  0.00    +0.005 C 
ATOM      5  C   LIG A   1      -8.396  -3.648 128.465  0.00  0.00    +0.005 C 
ATOM      6  C   LIG A   1      -7.784  -2.725 127.413  0.00  0.00    +0.000 C 
ATOM      7  C   LIG A   1      -8.274  -3.177 125.977  0.00  0.00    +0.023 C 
ATOM      8  C   LIG A   1      -9.750  -2.833 125.749  0.00  0.00    +0.013 C 
ATOM      9  C   LIG A   1      -7.405  -2.594 124.907  0.00  0.00    -0.003 A 
ATOM     10  C   LIG A   1      -6.201  -1.996 125.184  0.00  0.00    +0.109 A 
ATOM     11  O   LIG A   1      -5.586  -1.560 124.061  0.00  0.00    -0.468 OA
ATOM     12  C   LIG A   1      -6.405  -1.904 123.030  0.00  0.00    +0.195 A 
ATOM     13  C   LIG A   1      -7.530  -2.550 123.496  0.00  0.00    +0.045 A 
ATOM     14  C   LIG A   1      -5.577  -1.776 126.503  0.00  0.00    +0.079 C 
ATOM     15  C   LIG A   1      -6.224  -2.741 127.551  0.00  0.00    +0.006 C 
ATOM     16  C   LIG A   1      -5.641  -2.542 129.023  0.00  0.00    -0.025 C 
ATOM     17  C   LIG A   1      -4.202  -3.138 128.956  0.00  0.00    +0.012 C 
ATOM     18  C   LIG A   1      -5.573  -1.052 129.429  0.00  0.00    +0.007 C 
ATOM     19  C   LIG A   1      -4.960  -0.768 130.801  0.00  0.00    +0.002 C 
ATOM     20  C   LIG A   1      -4.945  -1.939 131.772  0.00  0.00    +0.018 C 
ENDROOT
BRANCH   1  22
ATOM     21  O   LIG A   1      -5.360  -5.213 131.813  0.00  0.00    -0.250 OA
ATOM     22  C   LIG A   1      -5.786  -4.209 132.363  0.00  0.00    +0.313 C 
BRANCH  22  23
ATOM     23  O   LIG A   1      -6.101  -4.137 133.688  0.00  0.00    -0.468 OA
ATOM     24  C   LIG A   1      -6.253  -5.395 134.348  0.00  0.00    +0.280 C 
ENDBRANCH  22  23
ENDBRANCH   1  22
TORSDOF 2
ENDMDL
MODEL 2
REMARK VINA RESULT:      -7.5      2.136      7.167
REMARK  Name = NuBBE_2295
REMARK  6 active torsions:
REMARK  status: ('A' for Active; 'I' for Inactive)
REMARK    1  A    between atoms: C_2  and  O_3
REMARK    2  A    between atoms: C_2  and  C_5
REMARK    3  A    between atoms: O_3  and  C_4
REMARK    4  A    between atoms: C_5  and  C_6
REMARK    5  A    between atoms: C_13  and  C_15
REMARK    6  A    between atoms: C_24  and  C_25
REMARK                            x       y       z     vdW  Elec       q    Type
REMARK                         _______ _______ _______ _____ _____    ______ ____
ROOT
ATOM      1  C   LIG A   1      -8.217  -1.733 123.595  0.00  0.00    +0.068 C 
ATOM      2  C   LIG A   1      -9.001  -3.026 123.236  0.00  0.00    +0.023 C 
ATOM      3  C   LIG A   1      -7.963  -1.519 125.160  0.00  0.00    +0.012 C 
ATOM      4  C   LIG A   1      -8.846  -2.474 125.989  0.00  0.00    +0.005 C 
ATOM      5  C   LIG A   1      -8.708  -2.277 127.484  0.00  0.00    +0.005 C 
ATOM      6  C   LIG A   1      -7.286  -2.589 127.946  0.00  0.00    +0.000 C 
ATOM      7  C   LIG A   1      -7.205  -2.432 129.519  0.00  0.00    +0.023 C 
ATOM      8  C   LIG A   1      -7.932  -3.572 130.239  0.00  0.00    +0.013 C 
ATOM      9  C   LIG A   1      -5.783  -2.317 129.972  0.00  0.00    -0.003 A 
ATOM     10  C   LIG A   1      -4.749  -2.097 129.097  0.00  0.00    +0.109 A 
ATOM     11  O   LIG A   1      -3.560  -2.012 129.735  0.00  0.00    -0.468 OA
ATOM     12  C   LIG A   1      -3.835  -2.161 131.059  0.00  0.00    +0.195 A 
ATOM     13  C   LIG A   1      -5.188  -2.341 131.258  0.00  0.00    +0.045 A 
ATOM     14  C   LIG A   1      -4.811  -1.981 127.627  0.00  0.00    +0.079 C 
ATOM     15  C   LIG A   1      -6.278  -1.655 127.193  0.00  0.00    +0.006 C 
ATOM     16  C   LIG A   1      -6.451  -1.556 125.609  0.00  0.00    -0.025 C 
ATOM     17  C   LIG A   1      -5.751  -0.218 125.224  0.00  0.00    +0.012 C 
ATOM     18  C   LIG A   1      -5.774  -2.735 124.872  0.00  0.00    +0.007 C 
ATOM     19  C   LIG A   1      -5.833  -2.680 123.345  0.00  0.00    +0.002 C 
ATOM     20  C   LIG A   1      -6.919  -1.790 122.758  0.00  0.00    +0.018 C 
ENDROOT
BRANCH   1  22
ATOM     21  O   LIG A   1     -10.147  -0.563 122.632  0.00  0.00    -0.250 OA
ATOM     22  C   LIG A   1      -9.026  -0.509 123.114  0.00  0.00    +0.313 C 
BRANCH  22  23
ATOM     23  O   LIG A   1      -8.284   0.632 123.201  0.00  0.00    -0.468 OA
ATOM     24  C   LIG A   1      -9.037   1.841 123.321  0.00  0.00    +0.280 C 
ENDBRANCH  22  23
ENDBRANCH   1  22
TORSDOF 2
ENDMDL
MODEL 3
REMARK VINA RESULT:      -7.4      2.858      7.307
REMARK  Name = NuBBE_2295
REMARK  6 active torsions:
REMARK  status: ('A' for Active; 'I' for Inactive)
REMARK    1  A    between atoms: C_2  and  O_3
REMARK    2  A    between atoms: C_2  and  C_5
REMARK    3  A    between atoms: O_3  and  C_4
REMARK    4  A    between atoms: C_5  and  C_6
REMARK    5  A    between atoms: C_13  and  C_15
REMARK    6  A    between atoms: C_24  and  C_25
REMARK                            x       y       z     vdW  Elec       q    Type
REMARK                         _______ _______ _______ _____ _____    ______ ____
ROOT
ATOM      1  C   LIG A   1      -7.673  -1.011 123.954  0.00  0.00    +0.068 C 
ATOM      2  C   LIG A   1      -6.444  -1.860 123.528  0.00  0.00    +0.023 C 
ATOM      3  C   LIG A   1      -8.133  -1.216 125.473  0.00  0.00    +0.012 C 
ATOM      4  C   LIG A   1      -7.460  -2.464 126.080  0.00  0.00    +0.005 C 
ATOM      5  C   LIG A   1      -7.905  -2.760 127.496  0.00  0.00    +0.005 C 
ATOM      6  C   LIG A   1      -7.509  -1.626 128.440  0.00  0.00    +0.000 C 
ATOM      7  C   LIG A   1      -7.936  -2.005 129.916  0.00  0.00    +0.023 C 
ATOM      8  C   LIG A   1      -7.043  -3.107 130.498  0.00  0.00    +0.013 C 
ATOM      9  C   LIG A   1      -7.953  -0.795 130.796  0.00  0.00    -0.003 A 
ATOM     10  C   LIG A   1      -7.882   0.480 130.292  0.00  0.00    +0.109 A 
ATOM     11  O   LIG A   1      -7.933   1.411 131.271  0.00  0.00    -0.468 OA
ATOM     12  C   LIG A   1      -8.061   0.721 132.436  0.00  0.00    +0.195 A 
ATOM     13  C   LIG A   1      -8.088  -0.637 132.198  0.00  0.00    +0.045 A 
ATOM     14  C   LIG A   1      -7.738   0.894 128.882  0.00  0.00    +0.079 C 
ATOM     15  C   LIG A   1      -8.158  -0.288 127.948  0.00  0.00    +0.006 C 
ATOM     16  C   LIG A   1      -7.990   0.054 126.398  0.00  0.00    -0.025 C 
ATOM     17  C   LIG A   1      -9.140   1.062 126.095  0.00  0.00    +0.012 C 
ATOM     18  C   LIG A   1      -6.624   0.706 126.088  0.00  0.00    +0.007 C 
ATOM     19  C   LIG A   1      -6.409   1.130 124.634  0.00  0.00    +0.002 C 
ATOM     20  C   LIG A   1      -7.305   0.450 123.610  0.00  0.00    +0.018 C 
ENDROOT
BRANCH   1  22
ATOM     21  O   LIG A   1      -9.815  -0.666 122.809  0.00  0.00    -0.250 OA
ATOM     22  C   LIG A   1      -8.881  -1.405 123.076  0.00  0.00    +0.313 C 
BRANCH  22  23
ATOM     23  O   LIG A   1      -8.820  -2.721 122.724  0.00  0.00    -0.468 OA
ATOM     24  C   LIG A   1      -9.762  -3.571 123.381  0.00  0.00    +0.280 C 
ENDBRANCH  22  23
ENDBRANCH   1  22
TORSDOF 2
ENDMDL
MODEL 4
REMARK VINA RESULT:      -7.2      1.660      7.039
REMARK  Name = NuBBE_2295
REMARK  6 active torsions:
REMARK  status: ('A' for Active; 'I' for Inactive)
REMARK    1  A    between atoms: C_2  and  O_3
REMARK    2  A    between atoms: C_2  and  C_5
REMARK    3  A    between atoms: O_3  and  C_4
REMARK    4  A    between atoms: C_5  and  C_6
REMARK    5  A    between atoms: C_13  and  C_15
REMARK    6  A    between atoms: C_24  and  C_25
REMARK                            x       y       z     vdW  Elec       q    Type
REMARK                         _______ _______ _______ _____ _____    ______ ____
ROOT
ATOM      1  C   LIG A   1      -6.438  -1.650 126.788  0.00  0.00    +0.068 C 
ATOM      2  C   LIG A   1      -5.275  -0.644 126.561  0.00  0.00    +0.023 C 
ATOM      3  C   LIG A   1      -6.212  -2.669 128.002  0.00  0.00    +0.012 C 
ATOM      4  C   LIG A   1      -4.740  -2.646 128.464  0.00  0.00    +0.005 C 
ATOM      5  C   LIG A   1      -4.438  -3.640 129.564  0.00  0.00    +0.005 C 
ATOM      6  C   LIG A   1      -5.231  -3.311 130.828  0.00  0.00    +0.000 C 
ATOM      7  C   LIG A   1      -4.838  -4.334 131.970  0.00  0.00    +0.023 C 
ATOM      8  C   LIG A   1      -3.428  -4.065 132.509  0.00  0.00    +0.013 C 
ATOM      9  C   LIG A   1      -5.854  -4.328 133.068  0.00  0.00    -0.003 A 
ATOM     10  C   LIG A   1      -7.078  -3.721 132.932  0.00  0.00    +0.109 A 
ATOM     11  O   LIG A   1      -7.834  -3.859 134.044  0.00  0.00    -0.468 OA
ATOM     12  C   LIG A   1      -7.087  -4.592 134.914  0.00  0.00    +0.195 A 
ATOM     13  C   LIG A   1      -5.867  -4.913 134.358  0.00  0.00    +0.045 A 
ATOM     14  C   LIG A   1      -7.593  -2.962 131.775  0.00  0.00    +0.079 C 
ATOM     15  C   LIG A   1      -6.763  -3.330 130.502  0.00  0.00    +0.006 C 
ATOM     16  C   LIG A   1      -7.221  -2.520 129.205  0.00  0.00    -0.025 C 
ATOM     17  C   LIG A   1      -8.597  -3.145 128.822  0.00  0.00    +0.012 C 
ATOM     18  C   LIG A   1      -7.391  -1.010 129.488  0.00  0.00    +0.007 C 
ATOM     19  C   LIG A   1      -7.897  -0.170 128.314  0.00  0.00    +0.002 C 
ATOM     20  C   LIG A   1      -7.710  -0.785 126.935  0.00  0.00    +0.018 C 
ENDROOT
BRANCH   1  22
ATOM     21  O   LIG A   1      -7.536  -3.280 125.320  0.00  0.00    -0.250 OA
ATOM     22  C   LIG A   1      -6.606  -2.514 125.520  0.00  0.00    +0.313 C 
BRANCH  22  23
ATOM     23  O   LIG A   1      -5.526  -2.388 124.697  0.00  0.00    -0.468 OA
ATOM     24  C   LIG A   1      -5.180  -3.564 123.963  0.00  0.00    +0.280 C 
ENDBRANCH  22  23
ENDBRANCH   1  22
TORSDOF 2
ENDMDL
MODEL 5
REMARK VINA RESULT:      -7.1      2.340      3.135
REMARK  Name = NuBBE_2295
REMARK  6 active torsions:
REMARK  status: ('A' for Active; 'I' for Inactive)
REMARK    1  A    between atoms: C_2  and  O_3
REMARK    2  A    between atoms: C_2  and  C_5
REMARK    3  A    between atoms: O_3  and  C_4
REMARK    4  A    between atoms: C_5  and  C_6
REMARK    5  A    between atoms: C_13  and  C_15
REMARK    6  A    between atoms: C_24  and  C_25
REMARK                            x       y       z     vdW  Elec       q    Type
REMARK                         _______ _______ _______ _____ _____    ______ ____
ROOT
ATOM      1  C   LIG A   1      -6.633  -1.686 131.112  0.00  0.00    +0.068 C 
ATOM      2  C   LIG A   1      -5.449  -0.747 131.475  0.00  0.00    +0.023 C 
ATOM      3  C   LIG A   1      -7.524  -1.190 129.878  0.00  0.00    +0.012 C 
ATOM      4  C   LIG A   1      -7.210   0.281 129.537  0.00  0.00    +0.005 C 
ATOM      5  C   LIG A   1      -8.069   0.839 128.423  0.00  0.00    +0.005 C 
ATOM      6  C   LIG A   1      -7.817   0.092 127.115  0.00  0.00    +0.000 C 
ATOM      7  C   LIG A   1      -8.686   0.747 125.966  0.00  0.00    +0.023 C 
ATOM      8  C   LIG A   1      -8.137   2.117 125.553  0.00  0.00    +0.013 C 
ATOM      9  C   LIG A   1      -8.800  -0.172 124.791  0.00  0.00    -0.003 A 
ATOM     10  C   LIG A   1      -8.432  -1.493 124.854  0.00  0.00    +0.109 A 
ATOM     11  O   LIG A   1      -8.641  -2.130 123.679  0.00  0.00    -0.468 OA
ATOM     12  C   LIG A   1      -9.176  -1.201 122.841  0.00  0.00    +0.195 A 
ATOM     13  C   LIG A   1      -9.303   0.015 123.479  0.00  0.00    +0.045 A 
ATOM     14  C   LIG A   1      -7.846  -2.221 125.996  0.00  0.00    +0.079 C 
ATOM     15  C   LIG A   1      -8.130  -1.430 127.316  0.00  0.00    +0.006 C 
ATOM     16  C   LIG A   1      -7.491  -2.121 128.605  0.00  0.00    -0.025 C 
ATOM     17  C   LIG A   1      -8.374  -3.382 128.849  0.00  0.00    +0.012 C 
ATOM     18  C   LIG A   1      -6.023  -2.545 128.374  0.00  0.00    +0.007 C 
ATOM     19  C   LIG A   1      -5.356  -3.279 129.539  0.00  0.00    +0.002 C 
ATOM     20  C   LIG A   1      -6.005  -3.081 130.901  0.00  0.00    +0.018 C 
ENDROOT
BRANCH   1  22
ATOM     21  O   LIG A   1      -8.074  -0.823 132.901  0.00  0.00    -0.250 OA
ATOM     22  C   LIG A   1      -7.584  -1.782 132.324  0.00  0.00    +0.313 C 
BRANCH  22  23
ATOM     23  O   LIG A   1      -7.724  -3.075 132.733  0.00  0.00    -0.468 OA
ATOM     24  C   LIG A   1      -8.182  -3.243 134.076  0.00  0.00    +0.280 C 
ENDBRANCH  22  23
ENDBRANCH   1  22
TORSDOF 2
ENDMDL
MODEL 6
REMARK VINA RESULT:      -7.1      6.045      7.878
REMARK  Name = NuBBE_2295
REMARK  6 active torsions:
REMARK  status: ('A' for Active; 'I' for Inactive)
REMARK    1  A    between atoms: C_2  and  O_3
REMARK    2  A    between atoms: C_2  and  C_5
REMARK    3  A    between atoms: O_3  and  C_4
REMARK    4  A    between atoms: C_5  and  C_6
REMARK    5  A    between atoms: C_13  and  C_15
REMARK    6  A    between atoms: C_24  and  C_25
REMARK                            x       y       z     vdW  Elec       q    Type
REMARK                         _______ _______ _______ _____ _____    ______ ____
ROOT
ATOM      1  C   LIG A   1      -3.422   4.347 128.017  0.00  0.00    +0.068 C 
ATOM      2  C   LIG A   1      -2.083   3.769 127.482  0.00  0.00    +0.023 C 
ATOM      3  C   LIG A   1      -4.624   4.338 126.960  0.00  0.00    +0.012 C 
ATOM      4  C   LIG A   1      -4.093   4.068 125.537  0.00  0.00    +0.005 C 
ATOM      5  C   LIG A   1      -5.168   4.116 124.473  0.00  0.00    +0.005 C 
ATOM      6  C   LIG A   1      -6.207   3.019 124.699  0.00  0.00    +0.000 C 
ATOM      7  C   LIG A   1      -7.275   3.066 123.531  0.00  0.00    +0.023 C 
ATOM      8  C   LIG A   1      -6.690   2.556 122.209  0.00  0.00    +0.013 C 
ATOM      9  C   LIG A   1      -8.513   2.315 123.907  0.00  0.00    -0.003 A 
ATOM     10  C   LIG A   1      -8.760   1.903 125.193  0.00  0.00    +0.109 A 
ATOM     11  O   LIG A   1      -9.945   1.260 125.297  0.00  0.00    -0.468 OA
ATOM     12  C   LIG A   1     -10.487   1.275 124.049  0.00  0.00    +0.195 A 
ATOM     13  C   LIG A   1      -9.651   1.919 123.162  0.00  0.00    +0.045 A 
ATOM     14  C   LIG A   1      -7.898   2.063 126.381  0.00  0.00    +0.079 C 
ATOM     15  C   LIG A   1      -6.853   3.197 126.115  0.00  0.00    +0.006 C 
ATOM     16  C   LIG A   1      -5.844   3.411 127.333  0.00  0.00    -0.025 C 
ATOM     17  C   LIG A   1      -6.707   4.090 128.439  0.00  0.00    +0.012 C 
ATOM     18  C   LIG A   1      -5.271   2.075 127.859  0.00  0.00    +0.007 C 
ATOM     19  C   LIG A   1      -4.347   2.185 129.073  0.00  0.00    +0.002 C 
ATOM     20  C   LIG A   1      -3.728   3.555 129.308  0.00  0.00    +0.018 C 
ENDROOT
BRANCH   1  22
ATOM     21  O   LIG A   1      -2.117   6.375 128.468  0.00  0.00    -0.250 OA
ATOM     22  C   LIG A   1      -3.205   5.822 128.418  0.00  0.00    +0.313 C 
BRANCH  22  23
ATOM     23  O   LIG A   1      -4.376   6.400 128.809  0.00  0.00    -0.468 OA
ATOM     24  C   LIG A   1      -4.295   7.205 129.987  0.00  0.00    +0.280 C 
ENDBRANCH  22  23
ENDBRANCH   1  22
TORSDOF 2
ENDMDL
MODEL 7
REMARK VINA RESULT:      -7.1      5.113      7.855
REMARK  Name = NuBBE_2295
REMARK  6 active torsions:
REMARK  status: ('A' for Active; 'I' for Inactive)
REMARK    1  A    between atoms: C_2  and  O_3
REMARK    2  A    between atoms: C_2  and  C_5
REMARK    3  A    between atoms: O_3  and  C_4
REMARK    4  A    between atoms: C_5  and  C_6
REMARK    5  A    between atoms: C_13  and  C_15
REMARK    6  A    between atoms: C_24  and  C_25
REMARK                            x       y       z     vdW  Elec       q    Type
REMARK                         _______ _______ _______ _____ _____    ______ ____
ROOT
ATOM      1  C   LIG A   1      -8.111   0.269 125.186  0.00  0.00    +0.068 C 
ATOM      2  C   LIG A   1      -7.652  -0.280 123.807  0.00  0.00    +0.023 C 
ATOM      3  C   LIG A   1      -6.945   0.921 126.068  0.00  0.00    +0.012 C 
ATOM      4  C   LIG A   1      -5.561   0.555 125.493  0.00  0.00    +0.005 C 
ATOM      5  C   LIG A   1      -4.407   1.080 126.320  0.00  0.00    +0.005 C 
ATOM      6  C   LIG A   1      -4.407   2.607 126.348  0.00  0.00    +0.000 C 
ATOM      7  C   LIG A   1      -3.151   3.112 127.168  0.00  0.00    +0.023 C 
ATOM      8  C   LIG A   1      -1.846   2.900 126.392  0.00  0.00    +0.013 C 
ATOM      9  C   LIG A   1      -3.318   4.542 127.576  0.00  0.00    -0.003 A 
ATOM     10  C   LIG A   1      -4.521   5.197 127.481  0.00  0.00    +0.109 A 
ATOM     11  O   LIG A   1      -4.435   6.472 127.923  0.00  0.00    -0.468 OA
ATOM     12  C   LIG A   1      -3.148   6.639 128.333  0.00  0.00    +0.195 A 
ATOM     13  C   LIG A   1      -2.424   5.480 128.150  0.00  0.00    +0.045 A 
ATOM     14  C   LIG A   1      -5.798   4.681 126.952  0.00  0.00    +0.079 C 
ATOM     15  C   LIG A   1      -5.763   3.117 126.945  0.00  0.00    +0.006 C 
ATOM     16  C   LIG A   1      -7.091   2.467 126.344  0.00  0.00    -0.025 C 
ATOM     17  C   LIG A   1      -8.173   2.709 127.439  0.00  0.00    +0.012 C 
ATOM     18  C   LIG A   1      -7.523   3.139 125.020  0.00  0.00    +0.007 C 
ATOM     19  C   LIG A   1      -8.828   2.622 124.412  0.00  0.00    +0.002 C 
ATOM     20  C   LIG A   1      -9.271   1.243 124.878  0.00  0.00    +0.018 C 
ENDROOT
BRANCH   1  22
ATOM     21  O   LIG A   1      -9.644  -1.579 125.688  0.00  0.00    -0.250 OA
ATOM     22  C   LIG A   1      -8.689  -0.894 126.020  0.00  0.00    +0.313 C 
BRANCH  22  23
ATOM     23  O   LIG A   1      -8.060  -0.990 127.226  0.00  0.00    -0.468 OA
ATOM     24  C   LIG A   1      -7.950  -2.314 127.751  0.00  0.00    +0.280 C 
ENDBRANCH  22  23
ENDBRANCH   1  22
TORSDOF 2
ENDMDL
MODEL 8
REMARK VINA RESULT:      -7.0      5.120      6.432
REMARK  Name = NuBBE_2295
REMARK  6 active torsions:
REMARK  status: ('A' for Active; 'I' for Inactive)
REMARK    1  A    between atoms: C_2  and  O_3
REMARK    2  A    between atoms: C_2  and  C_5
REMARK    3  A    between atoms: O_3  and  C_4
REMARK    4  A    between atoms: C_5  and  C_6
REMARK    5  A    between atoms: C_13  and  C_15
REMARK    6  A    between atoms: C_24  and  C_25
REMARK                            x       y       z     vdW  Elec       q    Type
REMARK                         _______ _______ _______ _____ _____    ______ ____
ROOT
ATOM      1  C   LIG A   1      -6.829   1.860 128.342  0.00  0.00    +0.068 C 
ATOM      2  C   LIG A   1      -8.248   2.203 128.873  0.00  0.00    +0.023 C 
ATOM      3  C   LIG A   1      -6.704   1.818 126.747  0.00  0.00    +0.012 C 
ATOM      4  C   LIG A   1      -8.102   1.797 126.093  0.00  0.00    +0.005 C 
ATOM      5  C   LIG A   1      -8.060   1.685 124.585  0.00  0.00    +0.005 C 
ATOM      6  C   LIG A   1      -7.378   2.904 123.966  0.00  0.00    +0.000 C 
ATOM      7  C   LIG A   1      -7.413   2.775 122.389  0.00  0.00    +0.023 C 
ATOM      8  C   LIG A   1      -8.825   3.000 121.835  0.00  0.00    +0.013 C 
ATOM      9  C   LIG A   1      -6.424   3.701 121.755  0.00  0.00    -0.003 A 
ATOM     10  C   LIG A   1      -5.448   4.340 122.478  0.00  0.00    +0.109 A 
ATOM     11  O   LIG A   1      -4.661   5.109 121.692  0.00  0.00    -0.468 OA
ATOM     12  C   LIG A   1      -5.128   4.946 120.424  0.00  0.00    +0.195 A 
ATOM     13  C   LIG A   1      -6.203   4.083 120.408  0.00  0.00    +0.045 A 
ATOM     14  C   LIG A   1      -5.215   4.290 123.935  0.00  0.00    +0.079 C 
ATOM     15  C   LIG A   1      -5.922   3.027 124.530  0.00  0.00    +0.006 C 
ATOM     16  C   LIG A   1      -5.762   2.914 126.114  0.00  0.00    -0.025 C 
ATOM     17  C   LIG A   1      -4.270   2.517 126.328  0.00  0.00    +0.012 C 
ATOM     18  C   LIG A   1      -6.057   4.253 126.829  0.00  0.00    +0.007 C 
ATOM     19  C   LIG A   1      -5.860   4.249 128.345  0.00  0.00    +0.002 C 
ATOM     20  C   LIG A   1      -5.880   2.881 129.010  0.00  0.00    +0.018 C 
ENDROOT
BRANCH   1  22
ATOM     21  O   LIG A   1      -5.621  -0.275 128.300  0.00  0.00    -0.250 OA
ATOM     22  C   LIG A   1      -6.432   0.457 128.847  0.00  0.00    +0.313 C 
BRANCH  22  23
ATOM     23  O   LIG A   1      -7.183   0.096 129.926  0.00  0.00    -0.468 OA
ATOM     24  C   LIG A   1      -6.445  -0.411 131.040  0.00  0.00    +0.280 C 
ENDBRANCH  22  23
ENDBRANCH   1  22
TORSDOF 2
ENDMDL
MODEL 9
REMARK VINA RESULT:      -7.0      7.446      9.615
REMARK  Name = NuBBE_2295
REMARK  6 active torsions:
REMARK  status: ('A' for Active; 'I' for Inactive)
REMARK    1  A    between atoms: C_2  and  O_3
REMARK    2  A    between atoms: C_2  and  C_5
REMARK    3  A    between atoms: O_3  and  C_4
REMARK    4  A    between atoms: C_5  and  C_6
REMARK    5  A    between atoms: C_13  and  C_15
REMARK    6  A    between atoms: C_24  and  C_25
REMARK                            x       y       z     vdW  Elec       q    Type
REMARK                         _______ _______ _______ _____ _____    ______ ____
ROOT
ATOM      1  C   LIG A   1      -2.182   6.940 132.193  0.00  0.00    +0.068 C 
ATOM      2  C   LIG A   1      -0.629   6.992 132.206  0.00  0.00    +0.023 C 
ATOM      3  C   LIG A   1      -2.818   6.313 130.864  0.00  0.00    +0.012 C 
ATOM      4  C   LIG A   1      -1.755   6.211 129.750  0.00  0.00    +0.005 C 
ATOM      5  C   LIG A   1      -2.305   5.692 128.439  0.00  0.00    +0.005 C 
ATOM      6  C   LIG A   1      -2.823   4.263 128.593  0.00  0.00    +0.000 C 
ATOM      7  C   LIG A   1      -3.329   3.739 127.188  0.00  0.00    +0.023 C 
ATOM      8  C   LIG A   1      -2.161   3.455 126.237  0.00  0.00    +0.013 C 
ATOM      9  C   LIG A   1      -4.207   2.538 127.349  0.00  0.00    -0.003 A 
ATOM     10  C   LIG A   1      -4.707   2.153 128.567  0.00  0.00    +0.109 A 
ATOM     11  O   LIG A   1      -5.487   1.053 128.465  0.00  0.00    -0.468 OA
ATOM     12  C   LIG A   1      -5.508   0.731 127.143  0.00  0.00    +0.195 A 
ATOM     13  C   LIG A   1      -4.745   1.618 126.414  0.00  0.00    +0.045 A 
ATOM     14  C   LIG A   1      -4.465   2.769 129.886  0.00  0.00    +0.079 C 
ATOM     15  C   LIG A   1      -3.943   4.230 129.688  0.00  0.00    +0.006 C 
ATOM     16  C   LIG A   1      -3.609   4.964 131.066  0.00  0.00    -0.025 C 
ATOM     17  C   LIG A   1      -5.003   5.257 131.699  0.00  0.00    +0.012 C 
ATOM     18  C   LIG A   1      -2.777   4.072 132.016  0.00  0.00    +0.007 C 
ATOM     19  C   LIG A   1      -2.472   4.675 133.389  0.00  0.00    +0.002 C 
ATOM     20  C   LIG A   1      -2.581   6.189 133.483  0.00  0.00    +0.018 C 
ENDROOT
BRANCH   1  22
ATOM     21  O   LIG A   1      -3.241   8.998 131.382  0.00  0.00    -0.250 OA
ATOM     22  C   LIG A   1      -2.732   8.378 132.302  0.00  0.00    +0.313 C 
BRANCH  22  23
ATOM     23  O   LIG A   1      -2.479   8.905 133.534  0.00  0.00    -0.468 OA
ATOM     24  C   LIG A   1      -2.184  10.303 133.550  0.00  0.00    +0.280 C 
ENDBRANCH  22  23
ENDBRANCH   1  22
TORSDOF 2
ENDMDL
