MODEL 1
REMARK VINA RESULT:      -7.7      0.000      0.000
REMARK  Name = NuBBE_1074
REMARK  8 active torsions:
REMARK  status: ('A' for Active; 'I' for Inactive)
REMARK    1  A    between atoms: C_1  and  N_2
REMARK    2  A    between atoms: C_7  and  O_8
REMARK    3  A    between atoms: C_10  and  O_11
REMARK    4  A    between atoms: C_12  and  C_13
REMARK    5  A    between atoms: C_13  and  C_14
REMARK    6  A    between atoms: C_15  and  C_16
REMARK    7  A    between atoms: C_15  and  C_17
REMARK    8  A    between atoms: C_23  and  O_24
REMARK                            x       y       z     vdW  Elec       q    Type
REMARK                         _______ _______ _______ _____ _____    ______ ____
ROOT
ATOM      1  C   LIG A   1      -5.923  -0.370 126.263  0.00  0.00    +0.149 C 
ATOM      2  N   LIG A   1      -7.337  -0.138 126.667  0.00  0.00    -0.340 N 
ATOM      3  C   LIG A   1      -7.998   0.570 125.606  0.00  0.00    +0.064 A 
ATOM      4  C   LIG A   1      -8.824  -0.137 124.705  0.00  0.00    +0.088 A 
ATOM      5  C   LIG A   1      -9.099  -1.571 124.954  0.00  0.00    +0.201 A 
ATOM      6  O   LIG A   1      -9.694  -2.238 124.114  0.00  0.00    -0.286 OA
ATOM      7  C   LIG A   1      -9.408   0.516 123.615  0.00  0.00    +0.133 A 
ATOM      8  C   LIG A   1      -9.219   1.878 123.433  0.00  0.00    +0.091 A 
ATOM      9  C   LIG A   1      -8.466   2.598 124.361  0.00  0.00    +0.126 A 
ATOM     10  C   LIG A   1      -7.857   1.976 125.469  0.00  0.00    +0.022 A 
ATOM     11  C   LIG A   1      -7.866  -1.401 127.088  0.00  0.00    +0.095 A 
ATOM     12  C   LIG A   1      -8.700  -2.151 126.251  0.00  0.00    +0.050 A 
ATOM     13  C   LIG A   1      -9.165  -3.412 126.642  0.00  0.00    +0.014 A 
ATOM     14  C   LIG A   1      -8.815  -3.921 127.895  0.00  0.00    +0.004 A 
ATOM     15  C   LIG A   1      -8.021  -3.165 128.759  0.00  0.00    +0.047 A 
ATOM     16  C   LIG A   1      -7.565  -1.915 128.356  0.00  0.00    +0.141 A 
ENDROOT
BRANCH   7  17
ATOM     17  O   LIG A   1     -10.188  -0.123 122.688  0.00  0.00    -0.506 OA
ATOM     18  H   LIG A   1     -10.366  -1.033 123.022  0.00  0.00    +0.292 HD
ENDBRANCH   7  17
BRANCH   9  19
ATOM     19  O   LIG A   1      -8.317   3.948 124.189  0.00  0.00    -0.506 OA
ATOM     20  H   LIG A   1      -7.644   4.109 123.506  0.00  0.00    +0.292 HD
ENDBRANCH   9  19
BRANCH  16  21
ATOM     21  O   LIG A   1      -6.844  -1.167 129.247  0.00  0.00    -0.505 OA
ATOM     22  H   LIG A   1      -6.055  -0.865 128.752  0.00  0.00    +0.292 HD
ENDBRANCH  16  21
BRANCH  10  23
ATOM     23  C   LIG A   1      -7.110   2.814 126.498  0.00  0.00    +0.068 C 
BRANCH  23  24
ATOM     24  C   LIG A   1      -5.689   3.137 126.101  0.00  0.00    -0.023 C 
ATOM     25  C   LIG A   1      -4.584   3.037 126.869  0.00  0.00    -0.079 C 
ATOM     26  C   LIG A   1      -4.556   2.525 128.283  0.00  0.00    +0.038 C 
ATOM     27  C   LIG A   1      -3.233   3.425 126.326  0.00  0.00    +0.038 C 
ENDBRANCH  23  24
ENDBRANCH  10  23
TORSDOF 5
ENDMDL
MODEL 2
REMARK VINA RESULT:      -7.6      1.981      5.528
REMARK  Name = NuBBE_1074
REMARK  8 active torsions:
REMARK  status: ('A' for Active; 'I' for Inactive)
REMARK    1  A    between atoms: C_1  and  N_2
REMARK    2  A    between atoms: C_7  and  O_8
REMARK    3  A    between atoms: C_10  and  O_11
REMARK    4  A    between atoms: C_12  and  C_13
REMARK    5  A    between atoms: C_13  and  C_14
REMARK    6  A    between atoms: C_15  and  C_16
REMARK    7  A    between atoms: C_15  and  C_17
REMARK    8  A    between atoms: C_23  and  O_24
REMARK                            x       y       z     vdW  Elec       q    Type
REMARK                         _______ _______ _______ _____ _____    ______ ____
ROOT
ATOM      1  C   LIG A   1      -7.936   2.054 127.187  0.00  0.00    +0.149 C 
ATOM      2  N   LIG A   1      -7.085   1.526 126.086  0.00  0.00    -0.340 N 
ATOM      3  C   LIG A   1      -7.820   1.638 124.856  0.00  0.00    +0.064 A 
ATOM      4  C   LIG A   1      -7.545   2.707 123.975  0.00  0.00    +0.088 A 
ATOM      5  C   LIG A   1      -6.410   3.613 124.274  0.00  0.00    +0.201 A 
ATOM      6  O   LIG A   1      -6.240   4.626 123.604  0.00  0.00    -0.286 OA
ATOM      7  C   LIG A   1      -8.304   2.885 122.815  0.00  0.00    +0.133 A 
ATOM      8  C   LIG A   1      -9.310   1.985 122.493  0.00  0.00    +0.091 A 
ATOM      9  C   LIG A   1      -9.538   0.884 123.319  0.00  0.00    +0.126 A 
ATOM     10  C   LIG A   1      -8.797   0.673 124.499  0.00  0.00    +0.022 A 
ATOM     11  C   LIG A   1      -5.812   2.174 126.190  0.00  0.00    +0.095 A 
ATOM     12  C   LIG A   1      -5.467   3.232 125.343  0.00  0.00    +0.050 A 
ATOM     13  C   LIG A   1      -4.247   3.902 125.490  0.00  0.00    +0.014 A 
ATOM     14  C   LIG A   1      -3.347   3.494 126.477  0.00  0.00    +0.004 A 
ATOM     15  C   LIG A   1      -3.658   2.411 127.301  0.00  0.00    +0.047 A 
ATOM     16  C   LIG A   1      -4.875   1.756 127.144  0.00  0.00    +0.141 A 
ENDROOT
BRANCH   7  17
ATOM     17  O   LIG A   1      -8.108   3.922 121.942  0.00  0.00    -0.506 OA
ATOM     18  H   LIG A   1      -8.925   4.016 121.399  0.00  0.00    +0.292 HD
ENDBRANCH   7  17
BRANCH   9  19
ATOM     19  O   LIG A   1     -10.509  -0.015 122.970  0.00  0.00    -0.506 OA
ATOM     20  H   LIG A   1     -10.106  -0.733 122.454  0.00  0.00    +0.292 HD
ENDBRANCH   9  19
BRANCH  16  21
ATOM     21  O   LIG A   1      -5.126   0.656 127.919  0.00  0.00    -0.505 OA
ATOM     22  H   LIG A   1      -4.991   0.953 128.842  0.00  0.00    +0.292 HD
ENDBRANCH  16  21
BRANCH  10  23
ATOM     23  C   LIG A   1      -9.028  -0.583 125.328  0.00  0.00    +0.068 C 
BRANCH  23  24
ATOM     24  C   LIG A   1      -7.993  -1.660 125.101  0.00  0.00    -0.023 C 
ATOM     25  C   LIG A   1      -8.142  -2.798 124.393  0.00  0.00    -0.079 C 
ATOM     26  C   LIG A   1      -9.381  -3.193 123.638  0.00  0.00    +0.038 C 
ATOM     27  C   LIG A   1      -7.011  -3.788 124.282  0.00  0.00    +0.038 C 
ENDBRANCH  23  24
ENDBRANCH  10  23
TORSDOF 5
ENDMDL
MODEL 3
REMARK VINA RESULT:      -7.3      1.132      1.722
REMARK  Name = NuBBE_1074
REMARK  8 active torsions:
REMARK  status: ('A' for Active; 'I' for Inactive)
REMARK    1  A    between atoms: C_1  and  N_2
REMARK    2  A    between atoms: C_7  and  O_8
REMARK    3  A    between atoms: C_10  and  O_11
REMARK    4  A    between atoms: C_12  and  C_13
REMARK    5  A    between atoms: C_13  and  C_14
REMARK    6  A    between atoms: C_15  and  C_16
REMARK    7  A    between atoms: C_15  and  C_17
REMARK    8  A    between atoms: C_23  and  O_24
REMARK                            x       y       z     vdW  Elec       q    Type
REMARK                         _______ _______ _______ _____ _____    ______ ____
ROOT
ATOM      1  C   LIG A   1      -5.882  -0.443 126.090  0.00  0.00    +0.149 C 
ATOM      2  N   LIG A   1      -7.274  -0.171 126.541  0.00  0.00    -0.340 N 
ATOM      3  C   LIG A   1      -7.956   0.539 125.495  0.00  0.00    +0.064 A 
ATOM      4  C   LIG A   1      -8.831  -0.160 124.634  0.00  0.00    +0.088 A 
ATOM      5  C   LIG A   1      -9.132  -1.584 124.915  0.00  0.00    +0.201 A 
ATOM      6  O   LIG A   1      -9.773  -2.248 124.107  0.00  0.00    -0.286 OA
ATOM      7  C   LIG A   1      -9.439   0.491 123.557  0.00  0.00    +0.133 A 
ATOM      8  C   LIG A   1      -9.224   1.846 123.348  0.00  0.00    +0.091 A 
ATOM      9  C   LIG A   1      -8.420   2.560 124.238  0.00  0.00    +0.126 A 
ATOM     10  C   LIG A   1      -7.787   1.938 125.332  0.00  0.00    +0.022 A 
ATOM     11  C   LIG A   1      -7.818  -1.415 127.000  0.00  0.00    +0.095 A 
ATOM     12  C   LIG A   1      -8.700  -2.156 126.205  0.00  0.00    +0.050 A 
ATOM     13  C   LIG A   1      -9.180  -3.399 126.631  0.00  0.00    +0.014 A 
ATOM     14  C   LIG A   1      -8.798  -3.899 127.878  0.00  0.00    +0.004 A 
ATOM     15  C   LIG A   1      -7.954  -3.151 128.702  0.00  0.00    +0.047 A 
ATOM     16  C   LIG A   1      -7.483  -1.918 128.264  0.00  0.00    +0.141 A 
ENDROOT
BRANCH   7  17
ATOM     17  O   LIG A   1     -10.267  -0.141 122.669  0.00  0.00    -0.506 OA
ATOM     18  H   LIG A   1     -11.196   0.045 122.939  0.00  0.00    +0.292 HD
ENDBRANCH   7  17
BRANCH   9  19
ATOM     19  O   LIG A   1      -8.245   3.903 124.040  0.00  0.00    -0.506 OA
ATOM     20  H   LIG A   1      -8.058   4.329 124.894  0.00  0.00    +0.292 HD
ENDBRANCH   9  19
BRANCH  16  21
ATOM     21  O   LIG A   1      -6.713  -1.175 129.117  0.00  0.00    -0.505 OA
ATOM     22  H   LIG A   1      -6.469  -1.785 129.843  0.00  0.00    +0.292 HD
ENDBRANCH  16  21
BRANCH  10  23
ATOM     23  C   LIG A   1      -6.982   2.772 126.321  0.00  0.00    +0.068 C 
BRANCH  23  24
ATOM     24  C   LIG A   1      -7.832   3.484 127.347  0.00  0.00    -0.023 C 
ATOM     25  C   LIG A   1      -7.922   3.208 128.665  0.00  0.00    -0.079 C 
ATOM     26  C   LIG A   1      -7.134   2.147 129.383  0.00  0.00    +0.038 C 
ATOM     27  C   LIG A   1      -8.843   4.003 129.555  0.00  0.00    +0.038 C 
ENDBRANCH  23  24
ENDBRANCH  10  23
TORSDOF 5
ENDMDL
MODEL 4
REMARK VINA RESULT:      -7.3      1.950      5.237
REMARK  Name = NuBBE_1074
REMARK  8 active torsions:
REMARK  status: ('A' for Active; 'I' for Inactive)
REMARK    1  A    between atoms: C_1  and  N_2
REMARK    2  A    between atoms: C_7  and  O_8
REMARK    3  A    between atoms: C_10  and  O_11
REMARK    4  A    between atoms: C_12  and  C_13
REMARK    5  A    between atoms: C_13  and  C_14
REMARK    6  A    between atoms: C_15  and  C_16
REMARK    7  A    between atoms: C_15  and  C_17
REMARK    8  A    between atoms: C_23  and  O_24
REMARK                            x       y       z     vdW  Elec       q    Type
REMARK                         _______ _______ _______ _____ _____    ______ ____
ROOT
ATOM      1  C   LIG A   1      -8.005   0.437 126.936  0.00  0.00    +0.149 C 
ATOM      2  N   LIG A   1      -7.234   0.292 125.672  0.00  0.00    -0.340 N 
ATOM      3  C   LIG A   1      -8.145  -0.093 124.630  0.00  0.00    +0.064 A 
ATOM      4  C   LIG A   1      -8.619   0.881 123.723  0.00  0.00    +0.088 A 
ATOM      5  C   LIG A   1      -8.060   2.252 123.782  0.00  0.00    +0.201 A 
ATOM      6  O   LIG A   1      -8.553   3.147 123.104  0.00  0.00    -0.286 OA
ATOM      7  C   LIG A   1      -9.571   0.547 122.755  0.00  0.00    +0.133 A 
ATOM      8  C   LIG A   1     -10.029  -0.758 122.646  0.00  0.00    +0.091 A 
ATOM      9  C   LIG A   1      -9.510  -1.742 123.489  0.00  0.00    +0.126 A 
ATOM     10  C   LIG A   1      -8.553  -1.444 124.479  0.00  0.00    +0.022 A 
ATOM     11  C   LIG A   1      -6.465   1.490 125.508  0.00  0.00    +0.095 A 
ATOM     12  C   LIG A   1      -6.868   2.493 124.619  0.00  0.00    +0.050 A 
ATOM     13  C   LIG A   1      -6.148   3.687 124.509  0.00  0.00    +0.014 A 
ATOM     14  C   LIG A   1      -4.995   3.874 125.274  0.00  0.00    +0.004 A 
ATOM     15  C   LIG A   1      -4.555   2.865 126.133  0.00  0.00    +0.047 A 
ATOM     16  C   LIG A   1      -5.282   1.684 126.233  0.00  0.00    +0.141 A 
ENDROOT
BRANCH   7  17
ATOM     17  O   LIG A   1     -10.094   1.455 121.874  0.00  0.00    -0.506 OA
ATOM     18  H   LIG A   1     -10.944   1.784 122.250  0.00  0.00    +0.292 HD
ENDBRANCH   7  17
BRANCH   9  19
ATOM     19  O   LIG A   1      -9.944  -3.032 123.346  0.00  0.00    -0.506 OA
ATOM     20  H   LIG A   1      -9.281  -3.634 123.723  0.00  0.00    +0.292 HD
ENDBRANCH   9  19
BRANCH  16  21
ATOM     21  O   LIG A   1      -4.793   0.684 127.030  0.00  0.00    -0.505 OA
ATOM     22  H   LIG A   1      -4.688   1.088 127.916  0.00  0.00    +0.292 HD
ENDBRANCH  16  21
BRANCH  10  23
ATOM     23  C   LIG A   1      -7.958  -2.563 125.324  0.00  0.00    +0.068 C 
BRANCH  23  24
ATOM     24  C   LIG A   1      -6.978  -3.434 124.574  0.00  0.00    -0.023 C 
ATOM     25  C   LIG A   1      -5.683  -3.165 124.310  0.00  0.00    -0.079 C 
ATOM     26  C   LIG A   1      -4.943  -1.939 124.769  0.00  0.00    +0.038 C 
ATOM     27  C   LIG A   1      -4.841  -4.136 123.522  0.00  0.00    +0.038 C 
ENDBRANCH  23  24
ENDBRANCH  10  23
TORSDOF 5
ENDMDL
MODEL 5
REMARK VINA RESULT:      -7.2      1.956      5.287
REMARK  Name = NuBBE_1074
REMARK  8 active torsions:
REMARK  status: ('A' for Active; 'I' for Inactive)
REMARK    1  A    between atoms: C_1  and  N_2
REMARK    2  A    between atoms: C_7  and  O_8
REMARK    3  A    between atoms: C_10  and  O_11
REMARK    4  A    between atoms: C_12  and  C_13
REMARK    5  A    between atoms: C_13  and  C_14
REMARK    6  A    between atoms: C_15  and  C_16
REMARK    7  A    between atoms: C_15  and  C_17
REMARK    8  A    between atoms: C_23  and  O_24
REMARK                            x       y       z     vdW  Elec       q    Type
REMARK                         _______ _______ _______ _____ _____    ______ ____
ROOT
ATOM      1  C   LIG A   1      -8.486   1.237 127.437  0.00  0.00    +0.149 C 
ATOM      2  N   LIG A   1      -7.481   0.470 126.650  0.00  0.00    -0.340 N 
ATOM      3  C   LIG A   1      -8.026  -0.829 126.370  0.00  0.00    +0.064 A 
ATOM      4  C   LIG A   1      -8.583  -1.091 125.099  0.00  0.00    +0.088 A 
ATOM      5  C   LIG A   1      -8.472  -0.063 124.037  0.00  0.00    +0.201 A 
ATOM      6  O   LIG A   1      -9.068  -0.208 122.975  0.00  0.00    -0.286 OA
ATOM      7  C   LIG A   1      -9.196  -2.319 124.831  0.00  0.00    +0.133 A 
ATOM      8  C   LIG A   1      -9.222  -3.313 125.799  0.00  0.00    +0.091 A 
ATOM      9  C   LIG A   1      -8.607  -3.089 127.031  0.00  0.00    +0.126 A 
ATOM     10  C   LIG A   1      -7.985  -1.863 127.340  0.00  0.00    +0.022 A 
ATOM     11  C   LIG A   1      -7.080   1.302 125.555  0.00  0.00    +0.095 A 
ATOM     12  C   LIG A   1      -7.583   1.094 124.266  0.00  0.00    +0.050 A 
ATOM     13  C   LIG A   1      -7.237   1.946 123.212  0.00  0.00    +0.014 A 
ATOM     14  C   LIG A   1      -6.355   3.006 123.440  0.00  0.00    +0.004 A 
ATOM     15  C   LIG A   1      -5.810   3.200 124.710  0.00  0.00    +0.047 A 
ATOM     16  C   LIG A   1      -6.165   2.345 125.748  0.00  0.00    +0.141 A 
ENDROOT
BRANCH   7  17
ATOM     17  O   LIG A   1      -9.785  -2.617 123.631  0.00  0.00    -0.506 OA
ATOM     18  H   LIG A   1     -10.066  -3.562 123.661  0.00  0.00    +0.292 HD
ENDBRANCH   7  17
BRANCH   9  19
ATOM     19  O   LIG A   1      -8.610  -4.091 127.964  0.00  0.00    -0.506 OA
ATOM     20  H   LIG A   1      -8.988  -3.752 128.793  0.00  0.00    +0.292 HD
ENDBRANCH   9  19
BRANCH  16  21
ATOM     21  O   LIG A   1      -5.565   2.516 126.966  0.00  0.00    -0.505 OA
ATOM     22  H   LIG A   1      -4.605   2.426 126.797  0.00  0.00    +0.292 HD
ENDBRANCH  16  21
BRANCH  10  23
ATOM     23  C   LIG A   1      -7.259  -1.692 128.669  0.00  0.00    +0.068 C 
BRANCH  23  24
ATOM     24  C   LIG A   1      -5.810  -2.118 128.628  0.00  0.00    -0.023 C 
ATOM     25  C   LIG A   1      -5.236  -3.122 129.322  0.00  0.00    -0.079 C 
ATOM     26  C   LIG A   1      -5.960  -4.059 130.250  0.00  0.00    +0.038 C 
ATOM     27  C   LIG A   1      -3.761  -3.405 129.187  0.00  0.00    +0.038 C 
ENDBRANCH  23  24
ENDBRANCH  10  23
TORSDOF 5
ENDMDL
MODEL 6
REMARK VINA RESULT:      -6.9      1.693      5.482
REMARK  Name = NuBBE_1074
REMARK  8 active torsions:
REMARK  status: ('A' for Active; 'I' for Inactive)
REMARK    1  A    between atoms: C_1  and  N_2
REMARK    2  A    between atoms: C_7  and  O_8
REMARK    3  A    between atoms: C_10  and  O_11
REMARK    4  A    between atoms: C_12  and  C_13
REMARK    5  A    between atoms: C_13  and  C_14
REMARK    6  A    between atoms: C_15  and  C_16
REMARK    7  A    between atoms: C_15  and  C_17
REMARK    8  A    between atoms: C_23  and  O_24
REMARK                            x       y       z     vdW  Elec       q    Type
REMARK                         _______ _______ _______ _____ _____    ______ ____
ROOT
ATOM      1  C   LIG A   1      -7.421   0.639 126.986  0.00  0.00    +0.149 C 
ATOM      2  N   LIG A   1      -6.766   0.465 125.661  0.00  0.00    -0.340 N 
ATOM      3  C   LIG A   1      -7.643  -0.304 124.822  0.00  0.00    +0.064 A 
ATOM      4  C   LIG A   1      -8.439   0.354 123.859  0.00  0.00    +0.088 A 
ATOM      5  C   LIG A   1      -8.252   1.808 123.641  0.00  0.00    +0.201 A 
ATOM      6  O   LIG A   1      -9.024   2.425 122.915  0.00  0.00    -0.286 OA
ATOM      7  C   LIG A   1      -9.362  -0.363 123.090  0.00  0.00    +0.133 A 
ATOM      8  C   LIG A   1      -9.474  -1.738 123.236  0.00  0.00    +0.091 A 
ATOM      9  C   LIG A   1      -8.637  -2.405 124.132  0.00  0.00    +0.126 A 
ATOM     10  C   LIG A   1      -7.699  -1.718 124.926  0.00  0.00    +0.022 A 
ATOM     11  C   LIG A   1      -6.354   1.764 125.222  0.00  0.00    +0.095 A 
ATOM     12  C   LIG A   1      -7.088   2.470 124.262  0.00  0.00    +0.050 A 
ATOM     13  C   LIG A   1      -6.717   3.764 123.881  0.00  0.00    +0.014 A 
ATOM     14  C   LIG A   1      -5.583   4.354 124.444  0.00  0.00    +0.004 A 
ATOM     15  C   LIG A   1      -4.815   3.645 125.370  0.00  0.00    +0.047 A 
ATOM     16  C   LIG A   1      -5.197   2.361 125.740  0.00  0.00    +0.141 A 
ENDROOT
BRANCH   7  17
ATOM     17  O   LIG A   1     -10.185   0.225 122.168  0.00  0.00    -0.506 OA
ATOM     18  H   LIG A   1     -11.051   0.400 122.606  0.00  0.00    +0.292 HD
ENDBRANCH   7  17
BRANCH   9  19
ATOM     19  O   LIG A   1      -8.734  -3.766 124.238  0.00  0.00    -0.506 OA
ATOM     20  H   LIG A   1      -8.012  -4.177 123.732  0.00  0.00    +0.292 HD
ENDBRANCH   9  19
BRANCH  16  21
ATOM     21  O   LIG A   1      -4.391   1.663 126.598  0.00  0.00    -0.505 OA
ATOM     22  H   LIG A   1      -4.308   2.228 127.393  0.00  0.00    +0.292 HD
ENDBRANCH  16  21
BRANCH  10  23
ATOM     23  C   LIG A   1      -6.754  -2.496 125.833  0.00  0.00    +0.068 C 
BRANCH  23  24
ATOM     24  C   LIG A   1      -7.032  -2.305 127.306  0.00  0.00    -0.023 C 
ATOM     25  C   LIG A   1      -7.970  -2.930 128.048  0.00  0.00    -0.079 C 
ATOM     26  C   LIG A   1      -8.902  -3.997 127.544  0.00  0.00    +0.038 C 
ATOM     27  C   LIG A   1      -8.136  -2.606 129.510  0.00  0.00    +0.038 C 
ENDBRANCH  23  24
ENDBRANCH  10  23
TORSDOF 5
ENDMDL
MODEL 7
REMARK VINA RESULT:      -6.8      2.021      5.232
REMARK  Name = NuBBE_1074
REMARK  8 active torsions:
REMARK  status: ('A' for Active; 'I' for Inactive)
REMARK    1  A    between atoms: C_1  and  N_2
REMARK    2  A    between atoms: C_7  and  O_8
REMARK    3  A    between atoms: C_10  and  O_11
REMARK    4  A    between atoms: C_12  and  C_13
REMARK    5  A    between atoms: C_13  and  C_14
REMARK    6  A    between atoms: C_15  and  C_16
REMARK    7  A    between atoms: C_15  and  C_17
REMARK    8  A    between atoms: C_23  and  O_24
REMARK                            x       y       z     vdW  Elec       q    Type
REMARK                         _______ _______ _______ _____ _____    ______ ____
ROOT
ATOM      1  C   LIG A   1      -8.599   1.371 127.297  0.00  0.00    +0.149 C 
ATOM      2  N   LIG A   1      -7.579   0.572 126.563  0.00  0.00    -0.340 N 
ATOM      3  C   LIG A   1      -8.059  -0.777 126.452  0.00  0.00    +0.064 A 
ATOM      4  C   LIG A   1      -8.642  -1.212 125.241  0.00  0.00    +0.088 A 
ATOM      5  C   LIG A   1      -8.623  -0.307 124.067  0.00  0.00    +0.201 A 
ATOM      6  O   LIG A   1      -9.243  -0.603 123.051  0.00  0.00    -0.286 OA
ATOM      7  C   LIG A   1      -9.194  -2.492 125.136  0.00  0.00    +0.133 A 
ATOM      8  C   LIG A   1      -9.134  -3.369 126.210  0.00  0.00    +0.091 A 
ATOM      9  C   LIG A   1      -8.493  -2.974 127.385  0.00  0.00    +0.126 A 
ATOM     10  C   LIG A   1      -7.929  -1.691 127.530  0.00  0.00    +0.022 A 
ATOM     11  C   LIG A   1      -7.261   1.292 125.367  0.00  0.00    +0.095 A 
ATOM     12  C   LIG A   1      -7.793   0.912 124.130  0.00  0.00    +0.050 A 
ATOM     13  C   LIG A   1      -7.528   1.656 122.974  0.00  0.00    +0.014 A 
ATOM     14  C   LIG A   1      -6.700   2.778 123.047  0.00  0.00    +0.004 A 
ATOM     15  C   LIG A   1      -6.126   3.144 124.266  0.00  0.00    +0.047 A 
ATOM     16  C   LIG A   1      -6.399   2.397 125.406  0.00  0.00    +0.141 A 
ENDROOT
BRANCH   7  17
ATOM     17  O   LIG A   1      -9.804  -2.955 124.001  0.00  0.00    -0.506 OA
ATOM     18  H   LIG A   1     -10.640  -3.402 124.271  0.00  0.00    +0.292 HD
ENDBRANCH   7  17
BRANCH   9  19
ATOM     19  O   LIG A   1      -8.409  -3.861 128.424  0.00  0.00    -0.506 OA
ATOM     20  H   LIG A   1      -8.333  -4.762 128.066  0.00  0.00    +0.292 HD
ENDBRANCH   9  19
BRANCH  16  21
ATOM     21  O   LIG A   1      -5.771   2.736 126.573  0.00  0.00    -0.505 OA
ATOM     22  H   LIG A   1      -5.709   1.904 127.086  0.00  0.00    +0.292 HD
ENDBRANCH  16  21
BRANCH  10  23
ATOM     23  C   LIG A   1      -7.172  -1.331 128.802  0.00  0.00    +0.068 C 
BRANCH  23  24
ATOM     24  C   LIG A   1      -8.070  -1.029 129.979  0.00  0.00    -0.023 C 
ATOM     25  C   LIG A   1      -8.017   0.047 130.791  0.00  0.00    -0.079 C 
ATOM     26  C   LIG A   1      -7.063   1.199 130.640  0.00  0.00    +0.038 C 
ATOM     27  C   LIG A   1      -8.977   0.187 131.944  0.00  0.00    +0.038 C 
ENDBRANCH  23  24
ENDBRANCH  10  23
TORSDOF 5
ENDMDL
MODEL 8
REMARK VINA RESULT:      -6.7      1.811      4.345
REMARK  Name = NuBBE_1074
REMARK  8 active torsions:
REMARK  status: ('A' for Active; 'I' for Inactive)
REMARK    1  A    between atoms: C_1  and  N_2
REMARK    2  A    between atoms: C_7  and  O_8
REMARK    3  A    between atoms: C_10  and  O_11
REMARK    4  A    between atoms: C_12  and  C_13
REMARK    5  A    between atoms: C_13  and  C_14
REMARK    6  A    between atoms: C_15  and  C_16
REMARK    7  A    between atoms: C_15  and  C_17
REMARK    8  A    between atoms: C_23  and  O_24
REMARK                            x       y       z     vdW  Elec       q    Type
REMARK                         _______ _______ _______ _____ _____    ______ ____
ROOT
ATOM      1  C   LIG A   1      -9.059   0.931 126.308  0.00  0.00    +0.149 C 
ATOM      2  N   LIG A   1      -7.865   0.091 126.016  0.00  0.00    -0.340 N 
ATOM      3  C   LIG A   1      -7.237  -0.248 127.262  0.00  0.00    +0.064 A 
ATOM      4  C   LIG A   1      -7.458  -1.521 127.832  0.00  0.00    +0.088 A 
ATOM      5  C   LIG A   1      -8.224  -2.530 127.063  0.00  0.00    +0.201 A 
ATOM      6  O   LIG A   1      -8.548  -3.589 127.590  0.00  0.00    -0.286 OA
ATOM      7  C   LIG A   1      -6.927  -1.842 129.084  0.00  0.00    +0.133 A 
ATOM      8  C   LIG A   1      -6.137  -0.926 129.764  0.00  0.00    +0.091 A 
ATOM      9  C   LIG A   1      -5.852   0.307 129.175  0.00  0.00    +0.126 A 
ATOM     10  C   LIG A   1      -6.372   0.668 127.917  0.00  0.00    +0.022 A 
ATOM     11  C   LIG A   1      -8.297  -0.967 125.151  0.00  0.00    +0.095 A 
ATOM     12  C   LIG A   1      -8.524  -2.257 125.643  0.00  0.00    +0.050 A 
ATOM     13  C   LIG A   1      -9.005  -3.271 124.807  0.00  0.00    +0.014 A 
ATOM     14  C   LIG A   1      -9.236  -3.004 123.456  0.00  0.00    +0.004 A 
ATOM     15  C   LIG A   1      -8.971  -1.733 122.941  0.00  0.00    +0.047 A 
ATOM     16  C   LIG A   1      -8.496  -0.735 123.784  0.00  0.00    +0.141 A 
ENDROOT
BRANCH   7  17
ATOM     17  O   LIG A   1      -7.137  -3.046 129.702  0.00  0.00    -0.506 OA
ATOM     18  H   LIG A   1      -7.999  -2.994 130.177  0.00  0.00    +0.292 HD
ENDBRANCH   7  17
BRANCH   9  19
ATOM     19  O   LIG A   1      -5.042   1.187 129.841  0.00  0.00    -0.506 OA
ATOM     20  H   LIG A   1      -5.068   0.985 130.792  0.00  0.00    +0.292 HD
ENDBRANCH   9  19
BRANCH  16  21
ATOM     21  O   LIG A   1      -8.180   0.480 123.240  0.00  0.00    -0.505 OA
ATOM     22  H   LIG A   1      -7.203   0.491 123.179  0.00  0.00    +0.292 HD
ENDBRANCH  16  21
BRANCH  10  23
ATOM     23  C   LIG A   1      -5.972   1.992 127.279  0.00  0.00    +0.068 C 
BRANCH  23  24
ATOM     24  C   LIG A   1      -4.539   2.026 126.800  0.00  0.00    -0.023 C 
ATOM     25  C   LIG A   1      -3.586   2.918 127.141  0.00  0.00    -0.079 C 
ATOM     26  C   LIG A   1      -3.763   4.041 128.125  0.00  0.00    +0.038 C 
ATOM     27  C   LIG A   1      -2.201   2.826 126.552  0.00  0.00    +0.038 C 
ENDBRANCH  23  24
ENDBRANCH  10  23
TORSDOF 5
ENDMDL
MODEL 9
REMARK VINA RESULT:      -6.6      1.836      5.340
REMARK  Name = NuBBE_1074
REMARK  8 active torsions:
REMARK  status: ('A' for Active; 'I' for Inactive)
REMARK    1  A    between atoms: C_1  and  N_2
REMARK    2  A    between atoms: C_7  and  O_8
REMARK    3  A    between atoms: C_10  and  O_11
REMARK    4  A    between atoms: C_12  and  C_13
REMARK    5  A    between atoms: C_13  and  C_14
REMARK    6  A    between atoms: C_15  and  C_16
REMARK    7  A    between atoms: C_15  and  C_17
REMARK    8  A    between atoms: C_23  and  O_24
REMARK                            x       y       z     vdW  Elec       q    Type
REMARK                         _______ _______ _______ _____ _____    ______ ____
ROOT
ATOM      1  C   LIG A   1      -8.107   0.845 128.920  0.00  0.00    +0.149 C 
ATOM      2  N   LIG A   1      -7.104   0.929 127.824  0.00  0.00    -0.340 N 
ATOM      3  C   LIG A   1      -7.774   1.373 126.634  0.00  0.00    +0.064 A 
ATOM      4  C   LIG A   1      -7.677   2.727 126.242  0.00  0.00    +0.088 A 
ATOM      5  C   LIG A   1      -6.774   3.630 126.994  0.00  0.00    +0.201 A 
ATOM      6  O   LIG A   1      -6.778   4.835 126.764  0.00  0.00    -0.286 OA
ATOM      7  C   LIG A   1      -8.389   3.201 125.137  0.00  0.00    +0.133 A 
ATOM      8  C   LIG A   1      -9.167   2.333 124.383  0.00  0.00    +0.091 A 
ATOM      9  C   LIG A   1      -9.209   0.979 124.718  0.00  0.00    +0.126 A 
ATOM     10  C   LIG A   1      -8.509   0.465 125.827  0.00  0.00    +0.022 A 
ATOM     11  C   LIG A   1      -6.001   1.695 128.321  0.00  0.00    +0.095 A 
ATOM     12  C   LIG A   1      -5.834   3.039 127.967  0.00  0.00    +0.050 A 
ATOM     13  C   LIG A   1      -4.790   3.799 128.503  0.00  0.00    +0.014 A 
ATOM     14  C   LIG A   1      -3.882   3.207 129.384  0.00  0.00    +0.004 A 
ATOM     15  C   LIG A   1      -4.009   1.856 129.713  0.00  0.00    +0.047 A 
ATOM     16  C   LIG A   1      -5.053   1.113 129.173  0.00  0.00    +0.141 A 
ENDROOT
BRANCH   7  17
ATOM     17  O   LIG A   1      -8.363   4.508 124.732  0.00  0.00    -0.506 OA
ATOM     18  H   LIG A   1      -9.145   4.961 125.126  0.00  0.00    +0.292 HD
ENDBRANCH   7  17
BRANCH   9  19
ATOM     19  O   LIG A   1      -9.952   0.129 123.944  0.00  0.00    -0.506 OA
ATOM     20  H   LIG A   1      -9.623  -0.778 124.063  0.00  0.00    +0.292 HD
ENDBRANCH   9  19
BRANCH  16  21
ATOM     21  O   LIG A   1      -5.115  -0.225 129.457  0.00  0.00    -0.505 OA
ATOM     22  H   LIG A   1      -5.136  -0.281 130.434  0.00  0.00    +0.292 HD
ENDBRANCH  16  21
BRANCH  10  23
ATOM     23  C   LIG A   1      -8.522  -1.032 126.109  0.00  0.00    +0.068 C 
BRANCH  23  24
ATOM     24  C   LIG A   1      -7.353  -1.773 125.504  0.00  0.00    -0.023 C 
ATOM     25  C   LIG A   1      -7.402  -2.823 124.658  0.00  0.00    -0.079 C 
ATOM     26  C   LIG A   1      -8.662  -3.432 124.106  0.00  0.00    +0.038 C 
ATOM     27  C   LIG A   1      -6.135  -3.470 124.161  0.00  0.00    +0.038 C 
ENDBRANCH  23  24
ENDBRANCH  10  23
TORSDOF 5
ENDMDL
