MODEL 1
REMARK VINA RESULT:      -3.4      0.000      0.000
REMARK  Name = NuBBE_1981
REMARK  6 active torsions:
REMARK  status: ('A' for Active; 'I' for Inactive)
REMARK    1  A    between atoms: S_1  and  S_2
REMARK    2  A    between atoms: S_1  and  C_6
REMARK    3  A    between atoms: S_2  and  S_3
REMARK    4  A    between atoms: S_3  and  S_4
REMARK    5  A    between atoms: S_4  and  C_5
REMARK    6  A    between atoms: C_6  and  C_7
REMARK                            x       y       z     vdW  Elec       q    Type
REMARK                         _______ _______ _______ _____ _____    ______ ____
ROOT
ATOM      1  S   LIG A   1     -13.048   7.332 129.127  0.00  0.00    -0.077 S 
ENDROOT
BRANCH   1   2
ATOM      2  S   LIG A   1     -12.790   7.337 131.162  0.00  0.00    -0.013 S 
BRANCH   2   3
ATOM      3  S   LIG A   1     -11.068   6.274 131.515  0.00  0.00    -0.013 S 
BRANCH   3   4
ATOM      4  S   LIG A   1      -9.689   6.969 130.166  0.00  0.00    -0.085 S 
ATOM      5  C   LIG A   1      -8.164   6.777 131.117  0.00  0.00    +0.098 C 
ENDBRANCH   3   4
ENDBRANCH   2   3
ENDBRANCH   1   2
BRANCH   1   6
ATOM      6  C   LIG A   1     -12.816   9.076 128.689  0.00  0.00    +0.108 C 
BRANCH   6   7
ATOM      7  C   LIG A   1     -13.025  10.007 129.861  0.00  0.00    -0.023 C 
ATOM      8  C   LIG A   1     -13.673  11.168 129.817  0.00  0.00    +0.005 C 
ENDBRANCH   6   7
ENDBRANCH   1   6
TORSDOF 5
ENDMDL
MODEL 2
REMARK VINA RESULT:      -3.2     12.579     13.996
REMARK  Name = NuBBE_1981
REMARK  6 active torsions:
REMARK  status: ('A' for Active; 'I' for Inactive)
REMARK    1  A    between atoms: S_1  and  S_2
REMARK    2  A    between atoms: S_1  and  C_6
REMARK    3  A    between atoms: S_2  and  S_3
REMARK    4  A    between atoms: S_3  and  S_4
REMARK    5  A    between atoms: S_4  and  C_5
REMARK    6  A    between atoms: C_6  and  C_7
REMARK                            x       y       z     vdW  Elec       q    Type
REMARK                         _______ _______ _______ _____ _____    ______ ____
ROOT
ATOM      1  S   LIG A   1      -6.468  -1.371 123.989  0.00  0.00    -0.077 S 
ENDROOT
BRANCH   1   2
ATOM      2  S   LIG A   1      -8.386  -1.814 123.412  0.00  0.00    -0.013 S 
BRANCH   2   3
ATOM      3  S   LIG A   1      -9.127  -3.084 124.847  0.00  0.00    -0.013 S 
BRANCH   3   4
ATOM      4  S   LIG A   1      -8.120  -2.631 126.575  0.00  0.00    -0.085 S 
ATOM      5  C   LIG A   1      -8.853  -3.828 127.713  0.00  0.00    +0.098 C 
ENDBRANCH   3   4
ENDBRANCH   2   3
ENDBRANCH   1   2
BRANCH   1   6
ATOM      6  C   LIG A   1      -5.483  -2.590 123.077  0.00  0.00    +0.108 C 
BRANCH   6   7
ATOM      7  C   LIG A   1      -4.997  -3.724 123.953  0.00  0.00    -0.023 C 
ATOM      8  C   LIG A   1      -4.271  -4.758 123.540  0.00  0.00    +0.005 C 
ENDBRANCH   6   7
ENDBRANCH   1   6
TORSDOF 5
ENDMDL
MODEL 3
REMARK VINA RESULT:      -3.2      2.175      2.847
REMARK  Name = NuBBE_1981
REMARK  6 active torsions:
REMARK  status: ('A' for Active; 'I' for Inactive)
REMARK    1  A    between atoms: S_1  and  S_2
REMARK    2  A    between atoms: S_1  and  C_6
REMARK    3  A    between atoms: S_2  and  S_3
REMARK    4  A    between atoms: S_3  and  S_4
REMARK    5  A    between atoms: S_4  and  C_5
REMARK    6  A    between atoms: C_6  and  C_7
REMARK                            x       y       z     vdW  Elec       q    Type
REMARK                         _______ _______ _______ _____ _____    ______ ____
ROOT
ATOM      1  S   LIG A   1     -12.283   6.720 129.523  0.00  0.00    -0.077 S 
ENDROOT
BRANCH   1   2
ATOM      2  S   LIG A   1     -11.608   6.508 131.449  0.00  0.00    -0.013 S 
BRANCH   2   3
ATOM      3  S   LIG A   1      -9.562   6.390 131.320  0.00  0.00    -0.013 S 
BRANCH   3   4
ATOM      4  S   LIG A   1      -9.167   5.177 129.714  0.00  0.00    -0.085 S 
ATOM      5  C   LIG A   1      -9.828   3.604 130.311  0.00  0.00    +0.098 C 
ENDBRANCH   3   4
ENDBRANCH   2   3
ENDBRANCH   1   2
BRANCH   1   6
ATOM      6  C   LIG A   1     -11.706   8.381 129.077  0.00  0.00    +0.108 C 
BRANCH   6   7
ATOM      7  C   LIG A   1     -10.751   8.374 127.906  0.00  0.00    -0.023 C 
ATOM      8  C   LIG A   1     -10.950   7.741 126.754  0.00  0.00    +0.005 C 
ENDBRANCH   6   7
ENDBRANCH   1   6
TORSDOF 5
ENDMDL
MODEL 4
REMARK VINA RESULT:      -3.2     11.506     13.698
REMARK  Name = NuBBE_1981
REMARK  6 active torsions:
REMARK  status: ('A' for Active; 'I' for Inactive)
REMARK    1  A    between atoms: S_1  and  S_2
REMARK    2  A    between atoms: S_1  and  C_6
REMARK    3  A    between atoms: S_2  and  S_3
REMARK    4  A    between atoms: S_3  and  S_4
REMARK    5  A    between atoms: S_4  and  C_5
REMARK    6  A    between atoms: C_6  and  C_7
REMARK                            x       y       z     vdW  Elec       q    Type
REMARK                         _______ _______ _______ _____ _____    ______ ____
ROOT
ATOM      1  S   LIG A   1      -7.428  -3.443 124.358  0.00  0.00    -0.077 S 
ENDROOT
BRANCH   1   2
ATOM      2  S   LIG A   1      -8.263  -1.972 123.197  0.00  0.00    -0.013 S 
BRANCH   2   3
ATOM      3  S   LIG A   1      -7.084  -0.310 123.459  0.00  0.00    -0.013 S 
BRANCH   3   4
ATOM      4  S   LIG A   1      -7.531   0.410 125.326  0.00  0.00    -0.085 S 
ATOM      5  C   LIG A   1      -9.194  -0.260 125.554  0.00  0.00    +0.098 C 
ENDBRANCH   3   4
ENDBRANCH   2   3
ENDBRANCH   1   2
BRANCH   1   6
ATOM      6  C   LIG A   1      -5.705  -2.900 124.516  0.00  0.00    +0.108 C 
BRANCH   6   7
ATOM      7  C   LIG A   1      -4.800  -3.511 123.470  0.00  0.00    -0.023 C 
ATOM      8  C   LIG A   1      -4.263  -4.726 123.534  0.00  0.00    +0.005 C 
ENDBRANCH   6   7
ENDBRANCH   1   6
TORSDOF 5
ENDMDL
MODEL 5
REMARK VINA RESULT:      -3.1     11.332     13.494
REMARK  Name = NuBBE_1981
REMARK  6 active torsions:
REMARK  status: ('A' for Active; 'I' for Inactive)
REMARK    1  A    between atoms: S_1  and  S_2
REMARK    2  A    between atoms: S_1  and  C_6
REMARK    3  A    between atoms: S_2  and  S_3
REMARK    4  A    between atoms: S_3  and  S_4
REMARK    5  A    between atoms: S_4  and  C_5
REMARK    6  A    between atoms: C_6  and  C_7
REMARK                            x       y       z     vdW  Elec       q    Type
REMARK                         _______ _______ _______ _____ _____    ______ ____
ROOT
ATOM      1  S   LIG A   1      -7.213  -3.343 124.362  0.00  0.00    -0.077 S 
ENDROOT
BRANCH   1   2
ATOM      2  S   LIG A   1      -8.537  -1.840 124.809  0.00  0.00    -0.013 S 
BRANCH   2   3
ATOM      3  S   LIG A   1      -8.027  -0.261 123.598  0.00  0.00    -0.013 S 
BRANCH   3   4
ATOM      4  S   LIG A   1      -9.476   1.162 123.889  0.00  0.00    -0.085 S 
ATOM      5  C   LIG A   1      -8.902   2.458 122.767  0.00  0.00    +0.098 C 
ENDBRANCH   3   4
ENDBRANCH   2   3
ENDBRANCH   1   2
BRANCH   1   6
ATOM      6  C   LIG A   1      -5.668  -2.440 124.065  0.00  0.00    +0.108 C 
BRANCH   6   7
ATOM      7  C   LIG A   1      -4.594  -3.305 123.444  0.00  0.00    -0.023 C 
ATOM      8  C   LIG A   1      -4.432  -4.606 123.663  0.00  0.00    +0.005 C 
ENDBRANCH   6   7
ENDBRANCH   1   6
TORSDOF 5
ENDMDL
MODEL 6
REMARK VINA RESULT:      -3.1     12.471     13.838
REMARK  Name = NuBBE_1981
REMARK  6 active torsions:
REMARK  status: ('A' for Active; 'I' for Inactive)
REMARK    1  A    between atoms: S_1  and  S_2
REMARK    2  A    between atoms: S_1  and  C_6
REMARK    3  A    between atoms: S_2  and  S_3
REMARK    4  A    between atoms: S_3  and  S_4
REMARK    5  A    between atoms: S_4  and  C_5
REMARK    6  A    between atoms: C_6  and  C_7
REMARK                            x       y       z     vdW  Elec       q    Type
REMARK                         _______ _______ _______ _____ _____    ______ ____
ROOT
ATOM      1  S   LIG A   1      -6.051  -1.221 124.615  0.00  0.00    -0.077 S 
ENDROOT
BRANCH   1   2
ATOM      2  S   LIG A   1      -5.873  -2.124 126.449  0.00  0.00    -0.013 S 
BRANCH   2   3
ATOM      3  S   LIG A   1      -7.788  -2.551 127.057  0.00  0.00    -0.013 S 
BRANCH   3   4
ATOM      4  S   LIG A   1      -9.022  -1.800 125.601  0.00  0.00    -0.085 S 
ATOM      5  C   LIG A   1      -9.242  -3.262 124.561  0.00  0.00    +0.098 C 
ENDBRANCH   3   4
ENDBRANCH   2   3
ENDBRANCH   1   2
BRANCH   1   6
ATOM      6  C   LIG A   1      -5.706  -2.580 123.465  0.00  0.00    +0.108 C 
BRANCH   6   7
ATOM      7  C   LIG A   1      -5.027  -3.755 124.132  0.00  0.00    -0.023 C 
ATOM      8  C   LIG A   1      -4.234  -4.632 123.524  0.00  0.00    +0.005 C 
ENDBRANCH   6   7
ENDBRANCH   1   6
TORSDOF 5
ENDMDL
MODEL 7
REMARK VINA RESULT:      -3.1      1.563      2.289
REMARK  Name = NuBBE_1981
REMARK  6 active torsions:
REMARK  status: ('A' for Active; 'I' for Inactive)
REMARK    1  A    between atoms: S_1  and  S_2
REMARK    2  A    between atoms: S_1  and  C_6
REMARK    3  A    between atoms: S_2  and  S_3
REMARK    4  A    between atoms: S_3  and  S_4
REMARK    5  A    between atoms: S_4  and  C_5
REMARK    6  A    between atoms: C_6  and  C_7
REMARK                            x       y       z     vdW  Elec       q    Type
REMARK                         _______ _______ _______ _____ _____    ______ ____
ROOT
ATOM      1  S   LIG A   1     -12.726   7.289 130.932  0.00  0.00    -0.077 S 
ENDROOT
BRANCH   1   2
ATOM      2  S   LIG A   1     -11.029   6.359 131.614  0.00  0.00    -0.013 S 
BRANCH   2   3
ATOM      3  S   LIG A   1      -9.585   6.710 130.196  0.00  0.00    -0.013 S 
BRANCH   3   4
ATOM      4  S   LIG A   1      -7.791   6.623 131.185  0.00  0.00    -0.085 S 
ATOM      5  C   LIG A   1      -8.305   5.873 132.747  0.00  0.00    +0.098 C 
ENDBRANCH   3   4
ENDBRANCH   2   3
ENDBRANCH   1   2
BRANCH   1   6
ATOM      6  C   LIG A   1     -12.097   8.337 129.592  0.00  0.00    +0.108 C 
BRANCH   6   7
ATOM      7  C   LIG A   1     -13.137   8.615 128.529  0.00  0.00    -0.023 C 
ATOM      8  C   LIG A   1     -13.703   7.699 127.749  0.00  0.00    +0.005 C 
ENDBRANCH   6   7
ENDBRANCH   1   6
TORSDOF 5
ENDMDL
MODEL 8
REMARK VINA RESULT:      -3.1     10.967     13.263
REMARK  Name = NuBBE_1981
REMARK  6 active torsions:
REMARK  status: ('A' for Active; 'I' for Inactive)
REMARK    1  A    between atoms: S_1  and  S_2
REMARK    2  A    between atoms: S_1  and  C_6
REMARK    3  A    between atoms: S_2  and  S_3
REMARK    4  A    between atoms: S_3  and  S_4
REMARK    5  A    between atoms: S_4  and  C_5
REMARK    6  A    between atoms: C_6  and  C_7
REMARK                            x       y       z     vdW  Elec       q    Type
REMARK                         _______ _______ _______ _____ _____    ______ ____
ROOT
ATOM      1  S   LIG A   1      -6.704  -1.609 123.007  0.00  0.00    -0.077 S 
ENDROOT
BRANCH   1   2
ATOM      2  S   LIG A   1      -7.041  -0.120 124.377  0.00  0.00    -0.013 S 
BRANCH   2   3
ATOM      3  S   LIG A   1      -7.186   1.620 123.296  0.00  0.00    -0.013 S 
BRANCH   3   4
ATOM      4  S   LIG A   1      -6.667   3.129 124.584  0.00  0.00    -0.085 S 
ATOM      5  C   LIG A   1      -5.676   4.175 123.492  0.00  0.00    +0.098 C 
ENDBRANCH   3   4
ENDBRANCH   2   3
ENDBRANCH   1   2
BRANCH   1   6
ATOM      6  C   LIG A   1      -5.988  -2.932 124.020  0.00  0.00    +0.108 C 
BRANCH   6   7
ATOM      7  C   LIG A   1      -4.673  -3.441 123.474  0.00  0.00    -0.023 C 
ATOM      8  C   LIG A   1      -4.269  -4.707 123.497  0.00  0.00    +0.005 C 
ENDBRANCH   6   7
ENDBRANCH   1   6
TORSDOF 5
ENDMDL
MODEL 9
REMARK VINA RESULT:      -3.1     12.538     13.742
REMARK  Name = NuBBE_1981
REMARK  6 active torsions:
REMARK  status: ('A' for Active; 'I' for Inactive)
REMARK    1  A    between atoms: S_1  and  S_2
REMARK    2  A    between atoms: S_1  and  C_6
REMARK    3  A    between atoms: S_2  and  S_3
REMARK    4  A    between atoms: S_3  and  S_4
REMARK    5  A    between atoms: S_4  and  C_5
REMARK    6  A    between atoms: C_6  and  C_7
REMARK                            x       y       z     vdW  Elec       q    Type
REMARK                         _______ _______ _______ _____ _____    ______ ____
ROOT
ATOM      1  S   LIG A   1      -6.354  -1.663 124.761  0.00  0.00    -0.077 S 
ENDROOT
BRANCH   1   2
ATOM      2  S   LIG A   1      -6.232  -1.994 126.782  0.00  0.00    -0.013 S 
BRANCH   2   3
ATOM      3  S   LIG A   1      -8.075  -2.701 127.350  0.00  0.00    -0.013 S 
BRANCH   3   4
ATOM      4  S   LIG A   1      -7.932  -3.097 129.358  0.00  0.00    -0.085 S 
ATOM      5  C   LIG A   1      -6.138  -3.200 129.552  0.00  0.00    +0.098 C 
ENDBRANCH   3   4
ENDBRANCH   2   3
ENDBRANCH   1   2
BRANCH   1   6
ATOM      6  C   LIG A   1      -6.149  -3.327 124.070  0.00  0.00    +0.108 C 
BRANCH   6   7
ATOM      7  C   LIG A   1      -4.718  -3.631 123.687  0.00  0.00    -0.023 C 
ATOM      8  C   LIG A   1      -4.217  -4.846 123.485  0.00  0.00    +0.005 C 
ENDBRANCH   6   7
ENDBRANCH   1   6
TORSDOF 5
ENDMDL
