MODEL 1
REMARK VINA RESULT:      -7.9      0.000      0.000
REMARK  Name = NuBBE_1486
REMARK  6 active torsions:
REMARK  status: ('A' for Active; 'I' for Inactive)
REMARK    1  A    between atoms: C_8  and  C_10
REMARK    2  A    between atoms: C_10  and  C_11
REMARK    3  A    between atoms: C_26  and  O_27
REMARK    4  A    between atoms: O_27  and  C_28
REMARK    5  A    between atoms: C_29  and  O_30
REMARK    6  A    between atoms: O_30  and  C_31
REMARK                            x       y       z     vdW  Elec       q    Type
REMARK                         _______ _______ _______ _____ _____    ______ ____
ROOT
ATOM      1  O   LIG A   1      -7.611   2.911 132.839  0.00  0.00    -0.291 OA
ATOM      2  C   LIG A   1      -8.115   3.186 131.744  0.00  0.00    +0.178 C 
ATOM      3  C   LIG A   1      -9.135   4.236 131.645  0.00  0.00    +0.060 A 
ATOM      4  C   LIG A   1      -9.408   5.068 132.750  0.00  0.00    +0.019 A 
ATOM      5  C   LIG A   1     -10.359   6.081 132.648  0.00  0.00    +0.047 A 
ATOM      6  C   LIG A   1     -11.018   6.225 131.444  0.00  0.00    +0.128 A 
ATOM      7  O   LIG A   1     -11.980   7.168 131.206  0.00  0.00    -0.484 OA
ATOM      8  C   LIG A   1     -12.560   6.778 129.927  0.00  0.00    +0.203 C 
ATOM      9  C   LIG A   1     -10.740   5.423 130.349  0.00  0.00    +0.040 A 
ATOM     10  C   LIG A   1     -11.541   5.884 129.192  0.00  0.00    +0.091 C 
ATOM     11  C   LIG A   1      -9.797   4.415 130.430  0.00  0.00    +0.138 A 
ATOM     12  O   LIG A   1      -9.557   3.690 129.306  0.00  0.00    -0.483 OA
ATOM     13  C   LIG A   1      -7.672   2.530 130.459  0.00  0.00    +0.138 C 
ATOM     14  C   LIG A   1      -8.858   2.451 129.505  0.00  0.00    +0.226 C 
ATOM     15  C   LIG A   1      -8.335   2.001 128.139  0.00  0.00    +0.274 C 
ATOM     16  O   LIG A   1      -7.386   2.918 127.576  0.00  0.00    -0.488 OA
ATOM     17  C   LIG A   1      -6.483   3.206 129.818  0.00  0.00    +0.012 A 
ATOM     18  C   LIG A   1      -6.415   3.357 128.434  0.00  0.00    +0.128 A 
ATOM     19  C   LIG A   1      -5.325   4.009 127.855  0.00  0.00    +0.095 A 
ATOM     20  C   LIG A   1      -4.276   4.505 128.641  0.00  0.00    +0.165 A 
ATOM     21  C   LIG A   1      -4.309   4.312 130.030  0.00  0.00    +0.162 A 
ATOM     22  C   LIG A   1      -5.402   3.646 130.598  0.00  0.00    +0.057 A 
ENDROOT
BRANCH   8  23
ATOM     23  C   LIG A   1     -12.995   7.998 129.130  0.00  0.00    -0.040 C 
ATOM     24  C   LIG A   1     -13.719   7.713 127.841  0.00  0.00    +0.042 C 
ATOM     25  C   LIG A   1     -12.790   9.265 129.532  0.00  0.00    +0.011 C 
ENDBRANCH   8  23
BRANCH  20  26
ATOM     26  O   LIG A   1      -3.298   5.134 127.913  0.00  0.00    -0.491 OA
ATOM     27  C   LIG A   1      -3.294   6.558 127.925  0.00  0.00    +0.277 C 
ENDBRANCH  20  26
BRANCH  21  28
ATOM     28  O   LIG A   1      -3.243   4.713 130.791  0.00  0.00    -0.491 OA
ATOM     29  C   LIG A   1      -3.463   5.857 131.613  0.00  0.00    +0.277 C 
ENDBRANCH  21  28
TORSDOF 3
ENDMDL
MODEL 2
REMARK VINA RESULT:      -7.8      2.571      6.983
REMARK  Name = NuBBE_1486
REMARK  6 active torsions:
REMARK  status: ('A' for Active; 'I' for Inactive)
REMARK    1  A    between atoms: C_8  and  C_10
REMARK    2  A    between atoms: C_10  and  C_11
REMARK    3  A    between atoms: C_26  and  O_27
REMARK    4  A    between atoms: O_27  and  C_28
REMARK    5  A    between atoms: C_29  and  O_30
REMARK    6  A    between atoms: O_30  and  C_31
REMARK                            x       y       z     vdW  Elec       q    Type
REMARK                         _______ _______ _______ _____ _____    ______ ____
ROOT
ATOM      1  O   LIG A   1      -9.507   3.654 134.001  0.00  0.00    -0.291 OA
ATOM      2  C   LIG A   1      -8.696   3.848 133.089  0.00  0.00    +0.178 C 
ATOM      3  C   LIG A   1      -8.275   2.736 132.229  0.00  0.00    +0.060 A 
ATOM      4  C   LIG A   1      -8.929   1.490 132.308  0.00  0.00    +0.019 A 
ATOM      5  C   LIG A   1      -8.545   0.441 131.474  0.00  0.00    +0.047 A 
ATOM      6  C   LIG A   1      -7.509   0.669 130.591  0.00  0.00    +0.128 A 
ATOM      7  O   LIG A   1      -7.023  -0.270 129.723  0.00  0.00    -0.484 OA
ATOM      8  C   LIG A   1      -5.798   0.322 129.200  0.00  0.00    +0.203 C 
ATOM      9  C   LIG A   1      -6.876   1.898 130.496  0.00  0.00    +0.040 A 
ATOM     10  C   LIG A   1      -5.879   1.848 129.403  0.00  0.00    +0.091 C 
ATOM     11  C   LIG A   1      -7.245   2.951 131.312  0.00  0.00    +0.138 A 
ATOM     12  O   LIG A   1      -6.600   4.134 131.140  0.00  0.00    -0.483 OA
ATOM     13  C   LIG A   1      -8.160   5.219 132.758  0.00  0.00    +0.138 C 
ATOM     14  C   LIG A   1      -6.743   5.081 132.210  0.00  0.00    +0.226 C 
ATOM     15  C   LIG A   1      -6.312   6.445 131.669  0.00  0.00    +0.274 C 
ATOM     16  O   LIG A   1      -7.147   6.910 130.600  0.00  0.00    -0.488 OA
ATOM     17  C   LIG A   1      -9.047   6.002 131.820  0.00  0.00    +0.012 A 
ATOM     18  C   LIG A   1      -8.493   6.789 130.812  0.00  0.00    +0.128 A 
ATOM     19  C   LIG A   1      -9.324   7.486 129.933  0.00  0.00    +0.095 A 
ATOM     20  C   LIG A   1     -10.720   7.427 130.055  0.00  0.00    +0.165 A 
ATOM     21  C   LIG A   1     -11.286   6.682 131.099  0.00  0.00    +0.162 A 
ATOM     22  C   LIG A   1     -10.442   5.996 131.981  0.00  0.00    +0.057 A 
ENDROOT
BRANCH   8  23
ATOM     23  C   LIG A   1      -5.564  -0.096 127.756  0.00  0.00    -0.040 C 
ATOM     24  C   LIG A   1      -5.624  -1.576 127.486  0.00  0.00    +0.042 C 
ATOM     25  C   LIG A   1      -5.342   0.773 126.753  0.00  0.00    +0.011 C 
ENDBRANCH   8  23
BRANCH  20  26
ATOM     26  O   LIG A   1     -11.382   8.154 129.098  0.00  0.00    -0.491 OA
ATOM     27  C   LIG A   1     -10.685   8.416 127.885  0.00  0.00    +0.277 C 
ENDBRANCH  20  26
BRANCH  21  28
ATOM     28  O   LIG A   1     -12.645   6.696 131.277  0.00  0.00    -0.491 OA
ATOM     29  C   LIG A   1     -13.203   7.941 131.688  0.00  0.00    +0.277 C 
ENDBRANCH  21  28
TORSDOF 3
ENDMDL
MODEL 3
REMARK VINA RESULT:      -7.8      1.786      2.477
REMARK  Name = NuBBE_1486
REMARK  6 active torsions:
REMARK  status: ('A' for Active; 'I' for Inactive)
REMARK    1  A    between atoms: C_8  and  C_10
REMARK    2  A    between atoms: C_10  and  C_11
REMARK    3  A    between atoms: C_26  and  O_27
REMARK    4  A    between atoms: O_27  and  C_28
REMARK    5  A    between atoms: C_29  and  O_30
REMARK    6  A    between atoms: O_30  and  C_31
REMARK                            x       y       z     vdW  Elec       q    Type
REMARK                         _______ _______ _______ _____ _____    ______ ____
ROOT
ATOM      1  O   LIG A   1      -5.609   2.958 131.263  0.00  0.00    -0.291 OA
ATOM      2  C   LIG A   1      -6.659   3.046 130.616  0.00  0.00    +0.178 C 
ATOM      3  C   LIG A   1      -7.666   4.048 130.980  0.00  0.00    +0.060 A 
ATOM      4  C   LIG A   1      -7.368   5.040 131.937  0.00  0.00    +0.019 A 
ATOM      5  C   LIG A   1      -8.316   6.007 132.265  0.00  0.00    +0.047 A 
ATOM      6  C   LIG A   1      -9.541   5.947 131.632  0.00  0.00    +0.128 A 
ATOM      7  O   LIG A   1     -10.566   6.823 131.863  0.00  0.00    -0.484 OA
ATOM      8  C   LIG A   1     -11.711   6.224 131.189  0.00  0.00    +0.203 C 
ATOM      9  C   LIG A   1      -9.832   4.986 130.677  0.00  0.00    +0.040 A 
ATOM     10  C   LIG A   1     -11.181   5.243 130.124  0.00  0.00    +0.091 C 
ATOM     11  C   LIG A   1      -8.903   4.020 130.336  0.00  0.00    +0.138 A 
ATOM     12  O   LIG A   1      -9.250   3.131 129.370  0.00  0.00    -0.483 OA
ATOM     13  C   LIG A   1      -6.933   2.202 129.396  0.00  0.00    +0.138 C 
ATOM     14  C   LIG A   1      -8.433   1.951 129.290  0.00  0.00    +0.226 C 
ATOM     15  C   LIG A   1      -8.708   1.300 127.934  0.00  0.00    +0.274 C 
ATOM     16  O   LIG A   1      -8.329   2.132 126.829  0.00  0.00    -0.488 OA
ATOM     17  C   LIG A   1      -6.374   2.789 128.121  0.00  0.00    +0.012 A 
ATOM     18  C   LIG A   1      -7.097   2.719 126.932  0.00  0.00    +0.128 A 
ATOM     19  C   LIG A   1      -6.583   3.291 125.766  0.00  0.00    +0.095 A 
ATOM     20  C   LIG A   1      -5.332   3.924 125.761  0.00  0.00    +0.165 A 
ATOM     21  C   LIG A   1      -4.573   3.953 126.939  0.00  0.00    +0.162 A 
ATOM     22  C   LIG A   1      -5.095   3.366 128.099  0.00  0.00    +0.057 A 
ENDROOT
BRANCH   8  23
ATOM     23  C   LIG A   1     -12.638   7.294 130.632  0.00  0.00    -0.040 C 
ATOM     24  C   LIG A   1     -13.187   7.032 129.255  0.00  0.00    +0.042 C 
ATOM     25  C   LIG A   1     -12.990   8.402 131.309  0.00  0.00    +0.011 C 
ENDBRANCH   8  23
BRANCH  20  26
ATOM     26  O   LIG A   1      -4.991   4.447 124.539  0.00  0.00    -0.491 OA
ATOM     27  C   LIG A   1      -5.870   4.179 123.451  0.00  0.00    +0.277 C 
ENDBRANCH  20  26
BRANCH  21  28
ATOM     28  O   LIG A   1      -3.312   4.488 126.915  0.00  0.00    -0.491 OA
ATOM     29  C   LIG A   1      -2.242   3.551 126.836  0.00  0.00    +0.277 C 
ENDBRANCH  21  28
TORSDOF 3
ENDMDL
MODEL 4
REMARK VINA RESULT:      -7.8      4.170      7.844
REMARK  Name = NuBBE_1486
REMARK  6 active torsions:
REMARK  status: ('A' for Active; 'I' for Inactive)
REMARK    1  A    between atoms: C_8  and  C_10
REMARK    2  A    between atoms: C_10  and  C_11
REMARK    3  A    between atoms: C_26  and  O_27
REMARK    4  A    between atoms: O_27  and  C_28
REMARK    5  A    between atoms: C_29  and  O_30
REMARK    6  A    between atoms: O_30  and  C_31
REMARK                            x       y       z     vdW  Elec       q    Type
REMARK                         _______ _______ _______ _____ _____    ______ ____
ROOT
ATOM      1  O   LIG A   1      -7.013  -1.827 131.816  0.00  0.00    -0.291 OA
ATOM      2  C   LIG A   1      -6.749  -1.363 130.701  0.00  0.00    +0.178 C 
ATOM      3  C   LIG A   1      -7.269  -2.011 129.492  0.00  0.00    +0.060 A 
ATOM      4  C   LIG A   1      -8.224  -3.044 129.593  0.00  0.00    +0.019 A 
ATOM      5  C   LIG A   1      -8.735  -3.642 128.443  0.00  0.00    +0.047 A 
ATOM      6  C   LIG A   1      -8.268  -3.196 127.224  0.00  0.00    +0.128 A 
ATOM      7  O   LIG A   1      -8.674  -3.698 126.018  0.00  0.00    -0.484 OA
ATOM      8  C   LIG A   1      -7.742  -3.123 125.056  0.00  0.00    +0.203 C 
ATOM      9  C   LIG A   1      -7.344  -2.168 127.119  0.00  0.00    +0.040 A 
ATOM     10  C   LIG A   1      -7.117  -1.863 125.688  0.00  0.00    +0.091 C 
ATOM     11  C   LIG A   1      -6.828  -1.560 128.247  0.00  0.00    +0.138 A 
ATOM     12  O   LIG A   1      -5.950  -0.539 128.064  0.00  0.00    -0.483 OA
ATOM     13  C   LIG A   1      -5.961  -0.089 130.519  0.00  0.00    +0.138 C 
ATOM     14  C   LIG A   1      -5.173  -0.173 129.216  0.00  0.00    +0.226 C 
ATOM     15  C   LIG A   1      -4.573   1.206 128.938  0.00  0.00    +0.274 C 
ATOM     16  O   LIG A   1      -5.569   2.226 128.778  0.00  0.00    -0.488 OA
ATOM     17  C   LIG A   1      -6.811   1.158 130.578  0.00  0.00    +0.012 A 
ATOM     18  C   LIG A   1      -6.566   2.225 129.715  0.00  0.00    +0.128 A 
ATOM     19  C   LIG A   1      -7.376   3.360 129.760  0.00  0.00    +0.095 A 
ATOM     20  C   LIG A   1      -8.431   3.462 130.678  0.00  0.00    +0.165 A 
ATOM     21  C   LIG A   1      -8.652   2.417 131.586  0.00  0.00    +0.162 A 
ATOM     22  C   LIG A   1      -7.826   1.288 131.539  0.00  0.00    +0.057 A 
ENDROOT
BRANCH   8  23
ATOM     23  C   LIG A   1      -8.425  -2.868 123.720  0.00  0.00    -0.040 C 
ATOM     24  C   LIG A   1      -7.650  -2.029 122.740  0.00  0.00    +0.042 C 
ATOM     25  C   LIG A   1      -9.630  -3.366 123.391  0.00  0.00    +0.011 C 
ENDBRANCH   8  23
BRANCH  20  26
ATOM     26  O   LIG A   1      -9.136   4.634 130.571  0.00  0.00    -0.491 OA
ATOM     27  C   LIG A   1      -8.424   5.843 130.813  0.00  0.00    +0.277 C 
ENDBRANCH  20  26
BRANCH  21  28
ATOM     28  O   LIG A   1      -9.623   2.552 132.544  0.00  0.00    -0.491 OA
ATOM     29  C   LIG A   1      -9.281   3.365 133.663  0.00  0.00    +0.277 C 
ENDBRANCH  21  28
TORSDOF 3
ENDMDL
MODEL 5
REMARK VINA RESULT:      -7.5      3.412      7.135
REMARK  Name = NuBBE_1486
REMARK  6 active torsions:
REMARK  status: ('A' for Active; 'I' for Inactive)
REMARK    1  A    between atoms: C_8  and  C_10
REMARK    2  A    between atoms: C_10  and  C_11
REMARK    3  A    between atoms: C_26  and  O_27
REMARK    4  A    between atoms: O_27  and  C_28
REMARK    5  A    between atoms: C_29  and  O_30
REMARK    6  A    between atoms: O_30  and  C_31
REMARK                            x       y       z     vdW  Elec       q    Type
REMARK                         _______ _______ _______ _____ _____    ______ ____
ROOT
ATOM      1  O   LIG A   1      -9.765   3.926 133.646  0.00  0.00    -0.291 OA
ATOM      2  C   LIG A   1      -8.594   3.531 133.608  0.00  0.00    +0.178 C 
ATOM      3  C   LIG A   1      -8.276   2.223 133.025  0.00  0.00    +0.060 A 
ATOM      4  C   LIG A   1      -9.265   1.493 132.335  0.00  0.00    +0.019 A 
ATOM      5  C   LIG A   1      -8.957   0.261 131.760  0.00  0.00    +0.047 A 
ATOM      6  C   LIG A   1      -7.668  -0.209 131.903  0.00  0.00    +0.128 A 
ATOM      7  O   LIG A   1      -7.228  -1.404 131.401  0.00  0.00    -0.484 OA
ATOM      8  C   LIG A   1      -5.918  -1.592 132.011  0.00  0.00    +0.203 C 
ATOM      9  C   LIG A   1      -6.687   0.513 132.565  0.00  0.00    +0.040 A 
ATOM     10  C   LIG A   1      -5.400  -0.213 132.468  0.00  0.00    +0.091 C 
ATOM     11  C   LIG A   1      -6.973   1.738 133.138  0.00  0.00    +0.138 A 
ATOM     12  O   LIG A   1      -5.953   2.400 133.743  0.00  0.00    -0.483 OA
ATOM     13  C   LIG A   1      -7.437   4.379 134.075  0.00  0.00    +0.138 C 
ATOM     14  C   LIG A   1      -6.341   3.470 134.620  0.00  0.00    +0.226 C 
ATOM     15  C   LIG A   1      -5.098   4.326 134.868  0.00  0.00    +0.274 C 
ATOM     16  O   LIG A   1      -4.597   4.941 133.673  0.00  0.00    -0.488 OA
ATOM     17  C   LIG A   1      -6.909   5.315 133.013  0.00  0.00    +0.012 A 
ATOM     18  C   LIG A   1      -5.540   5.535 132.879  0.00  0.00    +0.128 A 
ATOM     19  C   LIG A   1      -5.063   6.380 131.875  0.00  0.00    +0.095 A 
ATOM     20  C   LIG A   1      -5.942   7.035 131.001  0.00  0.00    +0.165 A 
ATOM     21  C   LIG A   1      -7.324   6.862 131.161  0.00  0.00    +0.162 A 
ATOM     22  C   LIG A   1      -7.790   6.021 132.179  0.00  0.00    +0.057 A 
ENDROOT
BRANCH   8  23
ATOM     23  C   LIG A   1      -4.976  -2.321 131.065  0.00  0.00    -0.040 C 
ATOM     24  C   LIG A   1      -3.618  -1.695 130.885  0.00  0.00    +0.042 C 
ATOM     25  C   LIG A   1      -5.289  -3.467 130.435  0.00  0.00    +0.011 C 
ENDBRANCH   8  23
BRANCH  20  26
ATOM     26  O   LIG A   1      -5.303   7.809 130.065  0.00  0.00    -0.491 OA
ATOM     27  C   LIG A   1      -3.956   7.472 129.754  0.00  0.00    +0.277 C 
ENDBRANCH  20  26
BRANCH  21  28
ATOM     28  O   LIG A   1      -8.188   7.572 130.369  0.00  0.00    -0.491 OA
ATOM     29  C   LIG A   1      -9.528   7.089 130.327  0.00  0.00    +0.277 C 
ENDBRANCH  21  28
TORSDOF 3
ENDMDL
MODEL 6
REMARK VINA RESULT:      -7.5      1.682      2.903
REMARK  Name = NuBBE_1486
REMARK  6 active torsions:
REMARK  status: ('A' for Active; 'I' for Inactive)
REMARK    1  A    between atoms: C_8  and  C_10
REMARK    2  A    between atoms: C_10  and  C_11
REMARK    3  A    between atoms: C_26  and  O_27
REMARK    4  A    between atoms: O_27  and  C_28
REMARK    5  A    between atoms: C_29  and  O_30
REMARK    6  A    between atoms: O_30  and  C_31
REMARK                            x       y       z     vdW  Elec       q    Type
REMARK                         _______ _______ _______ _____ _____    ______ ____
ROOT
ATOM      1  O   LIG A   1      -5.944   1.460 130.378  0.00  0.00    -0.291 OA
ATOM      2  C   LIG A   1      -6.266   2.517 129.824  0.00  0.00    +0.178 C 
ATOM      3  C   LIG A   1      -7.548   3.155 130.145  0.00  0.00    +0.060 A 
ATOM      4  C   LIG A   1      -8.330   2.681 131.217  0.00  0.00    +0.019 A 
ATOM      5  C   LIG A   1      -9.535   3.302 131.537  0.00  0.00    +0.047 A 
ATOM      6  C   LIG A   1      -9.928   4.377 130.765  0.00  0.00    +0.128 A 
ATOM      7  O   LIG A   1     -11.090   5.074 130.958  0.00  0.00    -0.484 OA
ATOM      8  C   LIG A   1     -11.203   5.920 129.776  0.00  0.00    +0.203 C 
ATOM      9  C   LIG A   1      -9.154   4.859 129.721  0.00  0.00    +0.040 A 
ATOM     10  C   LIG A   1      -9.800   6.064 129.154  0.00  0.00    +0.091 C 
ATOM     11  C   LIG A   1      -7.954   4.258 129.392  0.00  0.00    +0.138 A 
ATOM     12  O   LIG A   1      -7.236   4.806 128.377  0.00  0.00    -0.483 OA
ATOM     13  C   LIG A   1      -5.354   3.241 128.865  0.00  0.00    +0.138 C 
ATOM     14  C   LIG A   1      -6.200   3.975 127.830  0.00  0.00    +0.226 C 
ATOM     15  C   LIG A   1      -5.272   4.881 127.019  0.00  0.00    +0.274 C 
ATOM     16  O   LIG A   1      -4.617   5.872 127.824  0.00  0.00    -0.488 OA
ATOM     17  C   LIG A   1      -4.378   4.170 129.548  0.00  0.00    +0.012 A 
ATOM     18  C   LIG A   1      -4.074   5.412 128.993  0.00  0.00    +0.128 A 
ATOM     19  C   LIG A   1      -3.194   6.274 129.649  0.00  0.00    +0.095 A 
ATOM     20  C   LIG A   1      -2.585   5.907 130.857  0.00  0.00    +0.165 A 
ATOM     21  C   LIG A   1      -2.842   4.639 131.397  0.00  0.00    +0.162 A 
ATOM     22  C   LIG A   1      -3.720   3.779 130.725  0.00  0.00    +0.057 A 
ENDROOT
BRANCH   8  23
ATOM     23  C   LIG A   1     -11.865   7.247 130.117  0.00  0.00    -0.040 C 
ATOM     24  C   LIG A   1     -11.622   8.367 129.141  0.00  0.00    +0.042 C 
ATOM     25  C   LIG A   1     -12.648   7.436 131.194  0.00  0.00    +0.011 C 
ENDBRANCH   8  23
BRANCH  20  26
ATOM     26  O   LIG A   1      -1.766   6.879 131.373  0.00  0.00    -0.491 OA
ATOM     27  C   LIG A   1      -2.371   7.864 132.203  0.00  0.00    +0.277 C 
ENDBRANCH  20  26
BRANCH  21  28
ATOM     28  O   LIG A   1      -2.180   4.240 132.528  0.00  0.00    -0.491 OA
ATOM     29  C   LIG A   1      -2.683   3.066 133.160  0.00  0.00    +0.277 C 
ENDBRANCH  21  28
TORSDOF 3
ENDMDL
MODEL 7
REMARK VINA RESULT:      -7.3      4.461      6.287
REMARK  Name = NuBBE_1486
REMARK  6 active torsions:
REMARK  status: ('A' for Active; 'I' for Inactive)
REMARK    1  A    between atoms: C_8  and  C_10
REMARK    2  A    between atoms: C_10  and  C_11
REMARK    3  A    between atoms: C_26  and  O_27
REMARK    4  A    between atoms: O_27  and  C_28
REMARK    5  A    between atoms: C_29  and  O_30
REMARK    6  A    between atoms: O_30  and  C_31
REMARK                            x       y       z     vdW  Elec       q    Type
REMARK                         _______ _______ _______ _____ _____    ______ ____
ROOT
ATOM      1  O   LIG A   1      -5.388   3.027 134.992  0.00  0.00    -0.291 OA
ATOM      2  C   LIG A   1      -6.165   3.976 134.840  0.00  0.00    +0.178 C 
ATOM      3  C   LIG A   1      -6.445   4.885 135.958  0.00  0.00    +0.060 A 
ATOM      4  C   LIG A   1      -5.693   4.802 137.147  0.00  0.00    +0.019 A 
ATOM      5  C   LIG A   1      -5.943   5.681 138.199  0.00  0.00    +0.047 A 
ATOM      6  C   LIG A   1      -6.948   6.612 138.033  0.00  0.00    +0.128 A 
ATOM      7  O   LIG A   1      -7.308   7.528 138.984  0.00  0.00    -0.484 OA
ATOM      8  C   LIG A   1      -8.551   8.100 138.482  0.00  0.00    +0.203 C 
ATOM      9  C   LIG A   1      -7.678   6.710 136.859  0.00  0.00    +0.040 A 
ATOM     10  C   LIG A   1      -8.611   7.855 136.961  0.00  0.00    +0.091 C 
ATOM     11  C   LIG A   1      -7.442   5.849 135.804  0.00  0.00    +0.138 A 
ATOM     12  O   LIG A   1      -8.177   6.026 134.675  0.00  0.00    -0.483 OA
ATOM     13  C   LIG A   1      -6.800   4.301 133.510  0.00  0.00    +0.138 C 
ATOM     14  C   LIG A   1      -8.169   4.926 133.751  0.00  0.00    +0.226 C 
ATOM     15  C   LIG A   1      -8.688   5.455 132.412  0.00  0.00    +0.274 C 
ATOM     16  O   LIG A   1      -7.842   6.467 131.847  0.00  0.00    -0.488 OA
ATOM     17  C   LIG A   1      -5.936   5.170 132.628  0.00  0.00    +0.012 A 
ATOM     18  C   LIG A   1      -6.503   6.187 131.861  0.00  0.00    +0.128 A 
ATOM     19  C   LIG A   1      -5.691   7.002 131.071  0.00  0.00    +0.095 A 
ATOM     20  C   LIG A   1      -4.303   6.808 131.016  0.00  0.00    +0.165 A 
ATOM     21  C   LIG A   1      -3.729   5.755 131.742  0.00  0.00    +0.162 A 
ATOM     22  C   LIG A   1      -4.556   4.936 132.522  0.00  0.00    +0.057 A 
ENDROOT
BRANCH   8  23
ATOM     23  C   LIG A   1      -8.675   9.565 138.875  0.00  0.00    -0.040 C 
ATOM     24  C   LIG A   1      -7.421  10.387 138.736  0.00  0.00    +0.042 C 
ATOM     25  C   LIG A   1      -9.820  10.130 139.296  0.00  0.00    +0.011 C 
ENDBRANCH   8  23
BRANCH  20  26
ATOM     26  O   LIG A   1      -3.658   7.710 130.209  0.00  0.00    -0.491 OA
ATOM     27  C   LIG A   1      -3.574   7.396 128.823  0.00  0.00    +0.277 C 
ENDBRANCH  20  26
BRANCH  21  28
ATOM     28  O   LIG A   1      -2.388   5.504 131.619  0.00  0.00    -0.491 OA
ATOM     29  C   LIG A   1      -1.830   4.623 132.591  0.00  0.00    +0.277 C 
ENDBRANCH  21  28
TORSDOF 3
ENDMDL
MODEL 8
REMARK VINA RESULT:      -7.2      3.046      6.192
REMARK  Name = NuBBE_1486
REMARK  6 active torsions:
REMARK  status: ('A' for Active; 'I' for Inactive)
REMARK    1  A    between atoms: C_8  and  C_10
REMARK    2  A    between atoms: C_10  and  C_11
REMARK    3  A    between atoms: C_26  and  O_27
REMARK    4  A    between atoms: O_27  and  C_28
REMARK    5  A    between atoms: C_29  and  O_30
REMARK    6  A    between atoms: O_30  and  C_31
REMARK                            x       y       z     vdW  Elec       q    Type
REMARK                         _______ _______ _______ _____ _____    ______ ____
ROOT
ATOM      1  O   LIG A   1      -8.797   6.273 129.720  0.00  0.00    -0.291 OA
ATOM      2  C   LIG A   1      -8.434   5.539 130.646  0.00  0.00    +0.178 C 
ATOM      3  C   LIG A   1      -8.427   4.083 130.473  0.00  0.00    +0.060 A 
ATOM      4  C   LIG A   1      -8.646   3.517 129.200  0.00  0.00    +0.019 A 
ATOM      5  C   LIG A   1      -8.615   2.134 129.031  0.00  0.00    +0.047 A 
ATOM      6  C   LIG A   1      -8.376   1.356 130.145  0.00  0.00    +0.128 A 
ATOM      7  O   LIG A   1      -8.328  -0.011 130.128  0.00  0.00    -0.484 OA
ATOM      8  C   LIG A   1      -8.317  -0.389 131.536  0.00  0.00    +0.203 C 
ATOM      9  C   LIG A   1      -8.142   1.907 131.395  0.00  0.00    +0.040 A 
ATOM     10  C   LIG A   1      -7.831   0.823 132.354  0.00  0.00    +0.091 C 
ATOM     11  C   LIG A   1      -8.164   3.277 131.581  0.00  0.00    +0.138 A 
ATOM     12  O   LIG A   1      -7.895   3.744 132.828  0.00  0.00    -0.483 OA
ATOM     13  C   LIG A   1      -7.914   6.082 131.954  0.00  0.00    +0.138 C 
ATOM     14  C   LIG A   1      -8.269   5.109 133.073  0.00  0.00    +0.226 C 
ATOM     15  C   LIG A   1      -7.538   5.559 134.339  0.00  0.00    +0.274 C 
ATOM     16  O   LIG A   1      -6.111   5.549 134.192  0.00  0.00    -0.488 OA
ATOM     17  C   LIG A   1      -6.436   6.392 131.932  0.00  0.00    +0.012 A 
ATOM     18  C   LIG A   1      -5.636   6.110 133.038  0.00  0.00    +0.128 A 
ATOM     19  C   LIG A   1      -4.266   6.375 132.995  0.00  0.00    +0.095 A 
ATOM     20  C   LIG A   1      -3.673   6.943 131.858  0.00  0.00    +0.165 A 
ATOM     21  C   LIG A   1      -4.478   7.281 130.761  0.00  0.00    +0.162 A 
ATOM     22  C   LIG A   1      -5.853   7.020 130.820  0.00  0.00    +0.057 A 
ENDROOT
BRANCH   8  23
ATOM     23  C   LIG A   1      -7.495  -1.650 131.755  0.00  0.00    -0.040 C 
ATOM     24  C   LIG A   1      -7.508  -2.644 130.624  0.00  0.00    +0.042 C 
ATOM     25  C   LIG A   1      -6.768  -1.885 132.863  0.00  0.00    +0.011 C 
ENDBRANCH   8  23
BRANCH  20  26
ATOM     26  O   LIG A   1      -2.318   7.116 131.980  0.00  0.00    -0.491 OA
ATOM     27  C   LIG A   1      -1.508   5.946 131.945  0.00  0.00    +0.277 C 
ENDBRANCH  20  26
BRANCH  21  28
ATOM     28  O   LIG A   1      -3.918   7.920 129.686  0.00  0.00    -0.491 OA
ATOM     29  C   LIG A   1      -3.537   7.083 128.597  0.00  0.00    +0.277 C 
ENDBRANCH  21  28
TORSDOF 3
ENDMDL
MODEL 9
REMARK VINA RESULT:      -7.2      2.953      6.927
REMARK  Name = NuBBE_1486
REMARK  6 active torsions:
REMARK  status: ('A' for Active; 'I' for Inactive)
REMARK    1  A    between atoms: C_8  and  C_10
REMARK    2  A    between atoms: C_10  and  C_11
REMARK    3  A    between atoms: C_26  and  O_27
REMARK    4  A    between atoms: O_27  and  C_28
REMARK    5  A    between atoms: C_29  and  O_30
REMARK    6  A    between atoms: O_30  and  C_31
REMARK                            x       y       z     vdW  Elec       q    Type
REMARK                         _______ _______ _______ _____ _____    ______ ____
ROOT
ATOM      1  O   LIG A   1      -6.064   5.175 128.991  0.00  0.00    -0.291 OA
ATOM      2  C   LIG A   1      -6.650   4.738 129.988  0.00  0.00    +0.178 C 
ATOM      3  C   LIG A   1      -6.173   5.082 131.332  0.00  0.00    +0.060 A 
ATOM      4  C   LIG A   1      -5.171   6.059 131.502  0.00  0.00    +0.019 A 
ATOM      5  C   LIG A   1      -4.735   6.402 132.781  0.00  0.00    +0.047 A 
ATOM      6  C   LIG A   1      -5.309   5.749 133.852  0.00  0.00    +0.128 A 
ATOM      7  O   LIG A   1      -4.972   5.978 135.158  0.00  0.00    -0.484 OA
ATOM      8  C   LIG A   1      -5.624   4.902 135.893  0.00  0.00    +0.203 C 
ATOM      9  C   LIG A   1      -6.307   4.802 133.691  0.00  0.00    +0.040 A 
ATOM     10  C   LIG A   1      -6.775   4.356 135.024  0.00  0.00    +0.091 C 
ATOM     11  C   LIG A   1      -6.755   4.450 132.432  0.00  0.00    +0.138 A 
ATOM     12  O   LIG A   1      -7.758   3.536 132.355  0.00  0.00    -0.483 OA
ATOM     13  C   LIG A   1      -7.907   3.909 129.892  0.00  0.00    +0.138 C 
ATOM     14  C   LIG A   1      -7.953   2.936 131.065  0.00  0.00    +0.226 C 
ATOM     15  C   LIG A   1      -9.333   2.276 131.076  0.00  0.00    +0.274 C 
ATOM     16  O   LIG A   1     -10.400   3.218 131.252  0.00  0.00    -0.488 OA
ATOM     17  C   LIG A   1      -9.168   4.735 129.802  0.00  0.00    +0.012 A 
ATOM     18  C   LIG A   1     -10.322   4.344 130.479  0.00  0.00    +0.128 A 
ATOM     19  C   LIG A   1     -11.472   5.131 130.412  0.00  0.00    +0.095 A 
ATOM     20  C   LIG A   1     -11.500   6.311 129.654  0.00  0.00    +0.165 A 
ATOM     21  C   LIG A   1     -10.362   6.685 128.926  0.00  0.00    +0.162 A 
ATOM     22  C   LIG A   1      -9.217   5.881 128.993  0.00  0.00    +0.057 A 
ENDROOT
BRANCH   8  23
ATOM     23  C   LIG A   1      -6.064   5.372 137.272  0.00  0.00    -0.040 C 
ATOM     24  C   LIG A   1      -7.277   6.263 137.302  0.00  0.00    +0.042 C 
ATOM     25  C   LIG A   1      -5.452   5.011 138.414  0.00  0.00    +0.011 C 
ENDBRANCH   8  23
BRANCH  20  26
ATOM     26  O   LIG A   1     -12.702   6.970 129.716  0.00  0.00    -0.491 OA
ATOM     27  C   LIG A   1     -13.093   7.489 130.982  0.00  0.00    +0.277 C 
ENDBRANCH  20  26
BRANCH  21  28
ATOM     28  O   LIG A   1     -10.415   7.786 128.112  0.00  0.00    -0.491 OA
ATOM     29  C   LIG A   1     -10.884   7.555 126.786  0.00  0.00    +0.277 C 
ENDBRANCH  21  28
TORSDOF 3
ENDMDL
