MODEL 1
REMARK VINA RESULT:      -7.5      0.000      0.000
REMARK  Name = NuBBE_312
REMARK  20 active torsions:
REMARK  status: ('A' for Active; 'I' for Inactive)
REMARK    1  A    between atoms: C_3  and  C_4
REMARK    2  A    between atoms: C_5  and  O_6
REMARK    3  A    between atoms: O_6  and  C_7
REMARK    4  A    between atoms: C_7  and  C_8
REMARK    5  A    between atoms: C_9  and  C_10
REMARK    6  A    between atoms: C_13  and  O_14
REMARK    7  A    between atoms: C_15  and  O_16
REMARK    8  A    between atoms: O_16  and  C_17
REMARK    9  A    between atoms: C_22  and  C_23
REMARK   10  A    between atoms: C_23  and  C_24
REMARK   11  A    between atoms: C_24  and  C_25
REMARK   12  A    between atoms: C_25  and  C_26
REMARK   13  A    between atoms: C_26  and  C_27
REMARK   14  A    between atoms: C_27  and  C_28
REMARK   15  A    between atoms: C_28  and  C_29
REMARK   16  A    between atoms: C_29  and  C_30
REMARK   17  A    between atoms: C_30  and  C_31
REMARK   18  A    between atoms: C_31  and  C_32
REMARK   19  A    between atoms: C_32  and  C_33
REMARK   20  A    between atoms: C_33  and  C_34
REMARK                            x       y       z     vdW  Elec       q    Type
REMARK                         _______ _______ _______ _____ _____    ______ ____
ROOT
ATOM      1  H   LIG A   1      -7.300  -4.194 123.719  0.00  0.00    +0.123 HD
ATOM      2  N   LIG A   1      -7.465  -3.681 124.586  0.00  0.00    -0.307 NA
ATOM      3  C   LIG A   1      -6.613  -2.484 124.608  0.00  0.00    +0.092 C 
ATOM      4  C   LIG A   1      -5.178  -2.935 124.286  0.00  0.00    +0.028 C 
ATOM      5  C   LIG A   1      -7.033  -1.332 123.653  0.00  0.00    +0.193 C 
ATOM      6  C   LIG A   1      -8.551  -1.141 123.567  0.00  0.00    +0.048 C 
ATOM      7  C   LIG A   1      -9.316  -2.464 123.568  0.00  0.00    +0.022 C 
ATOM      8  C   LIG A   1      -8.905  -3.395 124.714  0.00  0.00    +0.054 C 
ENDROOT
BRANCH   8   9
ATOM      9  C   LIG A   1      -9.257  -2.924 126.150  0.00  0.00    +0.019 C 
BRANCH   9  10
ATOM     10  C   LIG A   1      -8.947  -3.921 127.283  0.00  0.00    +0.002 C 
BRANCH  10  11
ATOM     11  C   LIG A   1      -7.830  -3.387 128.214  0.00  0.00    +0.000 C 
BRANCH  11  12
ATOM     12  C   LIG A   1      -8.390  -2.545 129.377  0.00  0.00    -0.000 C 
BRANCH  12  13
ATOM     13  C   LIG A   1      -7.336  -1.690 130.117  0.00  0.00    -0.000 C 
BRANCH  13  14
ATOM     14  C   LIG A   1      -6.772  -0.568 129.219  0.00  0.00    -0.000 C 
BRANCH  14  15
ATOM     15  C   LIG A   1      -5.239  -0.613 129.056  0.00  0.00    +0.000 C 
BRANCH  15  16
ATOM     16  C   LIG A   1      -4.531  -0.082 130.314  0.00  0.00    +0.000 C 
BRANCH  16  17
ATOM     17  C   LIG A   1      -3.670  -1.124 131.036  0.00  0.00    +0.007 C 
BRANCH  17  18
ATOM     18  C   LIG A   1      -3.535  -2.385 130.175  0.00  0.00    +0.074 C 
BRANCH  18  19
ATOM     19  C   LIG A   1      -3.855  -3.644 130.957  0.00  0.00    +0.130 C 
ATOM     20  C   LIG A   1      -5.049  -4.444 130.503  0.00  0.00    +0.086 C 
ATOM     21  O   LIG A   1      -3.227  -3.962 131.967  0.00  0.00    -0.298 OA
ENDBRANCH  18  19
ENDBRANCH  17  18
ENDBRANCH  16  17
ENDBRANCH  15  16
ENDBRANCH  14  15
ENDBRANCH  13  14
ENDBRANCH  12  13
ENDBRANCH  11  12
ENDBRANCH  10  11
ENDBRANCH   9  10
ENDBRANCH   8   9
BRANCH   5  22
ATOM     22  O   LIG A   1      -6.441  -0.126 124.209  0.00  0.00    -0.457 OA
BRANCH  22  23
ATOM     23  C   LIG A   1      -7.160   1.008 124.194  0.00  0.00    +0.332 C 
ATOM     24  O   LIG A   1      -7.990   1.375 125.032  0.00  0.00    -0.246 OA
BRANCH  23  25
ATOM     25  C   LIG A   1      -6.849   1.694 122.919  0.00  0.00    +0.092 C 
ATOM     26  C   LIG A   1      -6.568   3.007 122.890  0.00  0.00    +0.015 C 
BRANCH  26  27
ATOM     27  C   LIG A   1      -6.347   3.726 121.633  0.00  0.00    -0.021 A 
ATOM     28  C   LIG A   1      -5.138   4.389 121.418  0.00  0.00    +0.012 A 
ATOM     29  C   LIG A   1      -4.935   5.117 120.245  0.00  0.00    +0.050 A 
ATOM     30  C   LIG A   1      -5.937   5.182 119.272  0.00  0.00    +0.159 A 
ATOM     31  C   LIG A   1      -7.144   4.494 119.451  0.00  0.00    +0.162 A 
ATOM     32  C   LIG A   1      -7.337   3.772 120.641  0.00  0.00    +0.057 A 
BRANCH  30  33
ATOM     33  O   LIG A   1      -5.698   5.938 118.157  0.00  0.00    -0.503 OA
ATOM     34  H   LIG A   1      -6.053   6.831 118.289  0.00  0.00    +0.292 HD
ENDBRANCH  30  33
BRANCH  31  35
ATOM     35  O   LIG A   1      -8.209   4.427 118.590  0.00  0.00    -0.491 OA
ATOM     36  C   LIG A   1      -9.497   4.200 119.149  0.00  0.00    +0.277 C 
ENDBRANCH  31  35
ENDBRANCH  26  27
ENDBRANCH  23  25
ENDBRANCH  22  23
ENDBRANCH   5  22
TORSDOF 17
ENDMDL
MODEL 2
REMARK VINA RESULT:      -7.3      5.739      8.472
REMARK  Name = NuBBE_312
REMARK  20 active torsions:
REMARK  status: ('A' for Active; 'I' for Inactive)
REMARK    1  A    between atoms: C_3  and  C_4
REMARK    2  A    between atoms: C_5  and  O_6
REMARK    3  A    between atoms: O_6  and  C_7
REMARK    4  A    between atoms: C_7  and  C_8
REMARK    5  A    between atoms: C_9  and  C_10
REMARK    6  A    between atoms: C_13  and  O_14
REMARK    7  A    between atoms: C_15  and  O_16
REMARK    8  A    between atoms: O_16  and  C_17
REMARK    9  A    between atoms: C_22  and  C_23
REMARK   10  A    between atoms: C_23  and  C_24
REMARK   11  A    between atoms: C_24  and  C_25
REMARK   12  A    between atoms: C_25  and  C_26
REMARK   13  A    between atoms: C_26  and  C_27
REMARK   14  A    between atoms: C_27  and  C_28
REMARK   15  A    between atoms: C_28  and  C_29
REMARK   16  A    between atoms: C_29  and  C_30
REMARK   17  A    between atoms: C_30  and  C_31
REMARK   18  A    between atoms: C_31  and  C_32
REMARK   19  A    between atoms: C_32  and  C_33
REMARK   20  A    between atoms: C_33  and  C_34
REMARK                            x       y       z     vdW  Elec       q    Type
REMARK                         _______ _______ _______ _____ _____    ______ ____
ROOT
ATOM      1  H   LIG A   1      -5.363   1.072 129.942  0.00  0.00    +0.123 HD
ATOM      2  N   LIG A   1      -6.144   0.689 130.475  0.00  0.00    -0.307 NA
ATOM      3  C   LIG A   1      -6.761   1.764 131.268  0.00  0.00    +0.092 C 
ATOM      4  C   LIG A   1      -5.631   2.478 132.030  0.00  0.00    +0.028 C 
ATOM      5  C   LIG A   1      -7.599   2.801 130.470  0.00  0.00    +0.193 C 
ATOM      6  C   LIG A   1      -8.418   2.174 129.336  0.00  0.00    +0.048 C 
ATOM      7  C   LIG A   1      -7.666   1.062 128.607  0.00  0.00    +0.022 C 
ATOM      8  C   LIG A   1      -7.076   0.012 129.556  0.00  0.00    +0.054 C 
ENDROOT
BRANCH   8   9
ATOM      9  C   LIG A   1      -8.091  -0.867 130.334  0.00  0.00    +0.019 C 
BRANCH   9  10
ATOM     10  C   LIG A   1      -7.692  -2.343 130.533  0.00  0.00    +0.002 C 
BRANCH  10  11
ATOM     11  C   LIG A   1      -7.273  -2.999 129.194  0.00  0.00    +0.000 C 
BRANCH  11  12
ATOM     12  C   LIG A   1      -8.462  -3.657 128.467  0.00  0.00    -0.000 C 
BRANCH  12  13
ATOM     13  C   LIG A   1      -8.663  -3.186 127.009  0.00  0.00    -0.000 C 
BRANCH  13  14
ATOM     14  C   LIG A   1      -7.738  -2.002 126.654  0.00  0.00    -0.000 C 
BRANCH  14  15
ATOM     15  C   LIG A   1      -6.325  -2.431 126.204  0.00  0.00    +0.000 C 
BRANCH  15  16
ATOM     16  C   LIG A   1      -5.986  -1.858 124.818  0.00  0.00    +0.000 C 
BRANCH  16  17
ATOM     17  C   LIG A   1      -6.638  -2.610 123.653  0.00  0.00    +0.007 C 
BRANCH  17  18
ATOM     18  C   LIG A   1      -7.489  -1.650 122.815  0.00  0.00    +0.074 C 
BRANCH  18  19
ATOM     19  C   LIG A   1      -8.973  -1.841 123.063  0.00  0.00    +0.130 C 
ATOM     20  C   LIG A   1      -9.436  -3.238 123.392  0.00  0.00    +0.086 C 
ATOM     21  O   LIG A   1      -9.782  -0.924 122.923  0.00  0.00    -0.298 OA
ENDBRANCH  18  19
ENDBRANCH  17  18
ENDBRANCH  16  17
ENDBRANCH  15  16
ENDBRANCH  14  15
ENDBRANCH  13  14
ENDBRANCH  12  13
ENDBRANCH  11  12
ENDBRANCH  10  11
ENDBRANCH   9  10
ENDBRANCH   8   9
BRANCH   5  22
ATOM     22  O   LIG A   1      -8.513   3.392 131.435  0.00  0.00    -0.457 OA
BRANCH  22  23
ATOM     23  C   LIG A   1      -9.822   3.107 131.338  0.00  0.00    +0.332 C 
ATOM     24  O   LIG A   1     -10.386   2.064 131.682  0.00  0.00    -0.246 OA
BRANCH  23  25
ATOM     25  C   LIG A   1     -10.455   4.248 130.636  0.00  0.00    +0.092 C 
ATOM     26  C   LIG A   1     -10.335   5.501 131.103  0.00  0.00    +0.015 C 
BRANCH  26  27
ATOM     27  C   LIG A   1     -11.027   6.632 130.479  0.00  0.00    -0.021 A 
ATOM     28  C   LIG A   1     -12.133   7.200 131.110  0.00  0.00    +0.012 A 
ATOM     29  C   LIG A   1     -12.830   8.245 130.501  0.00  0.00    +0.050 A 
ATOM     30  C   LIG A   1     -12.419   8.738 129.259  0.00  0.00    +0.159 A 
ATOM     31  C   LIG A   1     -11.289   8.207 128.625  0.00  0.00    +0.162 A 
ATOM     32  C   LIG A   1     -10.603   7.148 129.246  0.00  0.00    +0.057 A 
BRANCH  30  33
ATOM     33  O   LIG A   1     -13.158   9.740 128.692  0.00  0.00    -0.503 OA
ATOM     34  H   LIG A   1     -14.029   9.397 128.438  0.00  0.00    +0.292 HD
ENDBRANCH  30  33
BRANCH  31  35
ATOM     35  O   LIG A   1     -10.737   8.591 127.430  0.00  0.00    -0.491 OA
ATOM     36  C   LIG A   1     -11.011   7.789 126.287  0.00  0.00    +0.277 C 
ENDBRANCH  31  35
ENDBRANCH  26  27
ENDBRANCH  23  25
ENDBRANCH  22  23
ENDBRANCH   5  22
TORSDOF 17
ENDMDL
MODEL 3
REMARK VINA RESULT:      -7.3      1.909      2.774
REMARK  Name = NuBBE_312
REMARK  20 active torsions:
REMARK  status: ('A' for Active; 'I' for Inactive)
REMARK    1  A    between atoms: C_3  and  C_4
REMARK    2  A    between atoms: C_5  and  O_6
REMARK    3  A    between atoms: O_6  and  C_7
REMARK    4  A    between atoms: C_7  and  C_8
REMARK    5  A    between atoms: C_9  and  C_10
REMARK    6  A    between atoms: C_13  and  O_14
REMARK    7  A    between atoms: C_15  and  O_16
REMARK    8  A    between atoms: O_16  and  C_17
REMARK    9  A    between atoms: C_22  and  C_23
REMARK   10  A    between atoms: C_23  and  C_24
REMARK   11  A    between atoms: C_24  and  C_25
REMARK   12  A    between atoms: C_25  and  C_26
REMARK   13  A    between atoms: C_26  and  C_27
REMARK   14  A    between atoms: C_27  and  C_28
REMARK   15  A    between atoms: C_28  and  C_29
REMARK   16  A    between atoms: C_29  and  C_30
REMARK   17  A    between atoms: C_30  and  C_31
REMARK   18  A    between atoms: C_31  and  C_32
REMARK   19  A    between atoms: C_32  and  C_33
REMARK   20  A    between atoms: C_33  and  C_34
REMARK                            x       y       z     vdW  Elec       q    Type
REMARK                         _______ _______ _______ _____ _____    ______ ____
ROOT
ATOM      1  H   LIG A   1      -7.175  -3.760 123.336  0.00  0.00    +0.123 HD
ATOM      2  N   LIG A   1      -7.411  -3.347 124.239  0.00  0.00    -0.307 NA
ATOM      3  C   LIG A   1      -6.715  -2.060 124.378  0.00  0.00    +0.092 C 
ATOM      4  C   LIG A   1      -5.233  -2.301 124.047  0.00  0.00    +0.028 C 
ATOM      5  C   LIG A   1      -7.266  -0.892 123.514  0.00  0.00    +0.193 C 
ATOM      6  C   LIG A   1      -8.796  -0.883 123.414  0.00  0.00    +0.048 C 
ATOM      7  C   LIG A   1      -9.390  -2.285 123.290  0.00  0.00    +0.022 C 
ATOM      8  C   LIG A   1      -8.877  -3.252 124.363  0.00  0.00    +0.054 C 
ENDROOT
BRANCH   8   9
ATOM      9  C   LIG A   1      -9.298  -2.952 125.825  0.00  0.00    +0.019 C 
BRANCH   9  10
ATOM     10  C   LIG A   1      -8.606  -3.796 126.914  0.00  0.00    +0.002 C 
BRANCH  10  11
ATOM     11  C   LIG A   1      -8.564  -3.043 128.268  0.00  0.00    +0.000 C 
BRANCH  11  12
ATOM     12  C   LIG A   1      -7.136  -2.951 128.842  0.00  0.00    -0.000 C 
BRANCH  12  13
ATOM     13  C   LIG A   1      -6.577  -1.513 128.943  0.00  0.00    -0.000 C 
BRANCH  13  14
ATOM     14  C   LIG A   1      -6.997  -0.646 127.737  0.00  0.00    -0.000 C 
BRANCH  14  15
ATOM     15  C   LIG A   1      -7.972   0.494 128.100  0.00  0.00    +0.000 C 
BRANCH  15  16
ATOM     16  C   LIG A   1      -7.477   1.279 129.326  0.00  0.00    +0.000 C 
BRANCH  16  17
ATOM     17  C   LIG A   1      -8.585   1.670 130.309  0.00  0.00    +0.007 C 
BRANCH  17  18
ATOM     18  C   LIG A   1      -8.609   0.696 131.492  0.00  0.00    +0.074 C 
BRANCH  18  19
ATOM     19  C   LIG A   1      -8.154   1.355 132.780  0.00  0.00    +0.130 C 
ATOM     20  C   LIG A   1      -8.703   2.727 133.076  0.00  0.00    +0.086 C 
ATOM     21  O   LIG A   1      -7.311   0.839 133.514  0.00  0.00    -0.298 OA
ENDBRANCH  18  19
ENDBRANCH  17  18
ENDBRANCH  16  17
ENDBRANCH  15  16
ENDBRANCH  14  15
ENDBRANCH  13  14
ENDBRANCH  12  13
ENDBRANCH  11  12
ENDBRANCH  10  11
ENDBRANCH   9  10
ENDBRANCH   8   9
BRANCH   5  22
ATOM     22  O   LIG A   1      -6.834   0.327 124.180  0.00  0.00    -0.457 OA
BRANCH  22  23
ATOM     23  C   LIG A   1      -7.652   1.392 124.162  0.00  0.00    +0.332 C 
ATOM     24  O   LIG A   1      -8.497   1.698 125.008  0.00  0.00    -0.246 OA
BRANCH  23  25
ATOM     25  C   LIG A   1      -7.422   2.084 122.872  0.00  0.00    +0.092 C 
ATOM     26  C   LIG A   1      -6.443   2.994 122.739  0.00  0.00    +0.015 C 
BRANCH  26  27
ATOM     27  C   LIG A   1      -6.255   3.756 121.503  0.00  0.00    -0.021 A 
ATOM     28  C   LIG A   1      -5.093   4.507 121.323  0.00  0.00    +0.012 A 
ATOM     29  C   LIG A   1      -4.925   5.277 120.170  0.00  0.00    +0.050 A 
ATOM     30  C   LIG A   1      -5.914   5.294 119.183  0.00  0.00    +0.159 A 
ATOM     31  C   LIG A   1      -7.072   4.519 119.326  0.00  0.00    +0.162 A 
ATOM     32  C   LIG A   1      -7.231   3.757 120.497  0.00  0.00    +0.057 A 
BRANCH  30  33
ATOM     33  O   LIG A   1      -5.713   6.092 118.090  0.00  0.00    -0.503 OA
ATOM     34  H   LIG A   1      -5.677   5.543 117.291  0.00  0.00    +0.292 HD
ENDBRANCH  30  33
BRANCH  31  35
ATOM     35  O   LIG A   1      -8.117   4.399 118.447  0.00  0.00    -0.491 OA
ATOM     36  C   LIG A   1      -9.434   4.369 118.985  0.00  0.00    +0.277 C 
ENDBRANCH  31  35
ENDBRANCH  26  27
ENDBRANCH  23  25
ENDBRANCH  22  23
ENDBRANCH   5  22
TORSDOF 17
ENDMDL
MODEL 4
REMARK VINA RESULT:      -7.3      3.988      5.799
REMARK  Name = NuBBE_312
REMARK  20 active torsions:
REMARK  status: ('A' for Active; 'I' for Inactive)
REMARK    1  A    between atoms: C_3  and  C_4
REMARK    2  A    between atoms: C_5  and  O_6
REMARK    3  A    between atoms: O_6  and  C_7
REMARK    4  A    between atoms: C_7  and  C_8
REMARK    5  A    between atoms: C_9  and  C_10
REMARK    6  A    between atoms: C_13  and  O_14
REMARK    7  A    between atoms: C_15  and  O_16
REMARK    8  A    between atoms: O_16  and  C_17
REMARK    9  A    between atoms: C_22  and  C_23
REMARK   10  A    between atoms: C_23  and  C_24
REMARK   11  A    between atoms: C_24  and  C_25
REMARK   12  A    between atoms: C_25  and  C_26
REMARK   13  A    between atoms: C_26  and  C_27
REMARK   14  A    between atoms: C_27  and  C_28
REMARK   15  A    between atoms: C_28  and  C_29
REMARK   16  A    between atoms: C_29  and  C_30
REMARK   17  A    between atoms: C_30  and  C_31
REMARK   18  A    between atoms: C_31  and  C_32
REMARK   19  A    between atoms: C_32  and  C_33
REMARK   20  A    between atoms: C_33  and  C_34
REMARK                            x       y       z     vdW  Elec       q    Type
REMARK                         _______ _______ _______ _____ _____    ______ ____
ROOT
ATOM      1  H   LIG A   1      -5.502  -3.482 126.411  0.00  0.00    +0.123 HD
ATOM      2  N   LIG A   1      -5.701  -2.506 126.189  0.00  0.00    -0.307 NA
ATOM      3  C   LIG A   1      -6.032  -2.393 124.760  0.00  0.00    +0.092 C 
ATOM      4  C   LIG A   1      -4.923  -3.112 123.974  0.00  0.00    +0.028 C 
ATOM      5  C   LIG A   1      -7.423  -2.945 124.339  0.00  0.00    +0.193 C 
ATOM      6  C   LIG A   1      -8.525  -2.656 125.365  0.00  0.00    +0.048 C 
ATOM      7  C   LIG A   1      -8.042  -2.793 126.807  0.00  0.00    +0.022 C 
ATOM      8  C   LIG A   1      -6.756  -2.008 127.089  0.00  0.00    +0.054 C 
ENDROOT
BRANCH   8   9
ATOM      9  C   LIG A   1      -6.862  -0.461 127.028  0.00  0.00    +0.019 C 
BRANCH   9  10
ATOM     10  C   LIG A   1      -5.593   0.319 127.426  0.00  0.00    +0.002 C 
BRANCH  10  11
ATOM     11  C   LIG A   1      -5.000   1.085 126.217  0.00  0.00    +0.000 C 
BRANCH  11  12
ATOM     12  C   LIG A   1      -4.663   2.549 126.561  0.00  0.00    -0.000 C 
BRANCH  12  13
ATOM     13  C   LIG A   1      -3.151   2.874 126.576  0.00  0.00    -0.000 C 
BRANCH  13  14
ATOM     14  C   LIG A   1      -2.713   3.506 127.914  0.00  0.00    -0.000 C 
BRANCH  14  15
ATOM     15  C   LIG A   1      -2.489   5.031 127.837  0.00  0.00    +0.000 C 
BRANCH  15  16
ATOM     16  C   LIG A   1      -2.943   5.724 129.132  0.00  0.00    +0.000 C 
BRANCH  16  17
ATOM     17  C   LIG A   1      -3.990   6.824 128.921  0.00  0.00    +0.007 C 
BRANCH  17  18
ATOM     18  C   LIG A   1      -4.218   7.594 130.226  0.00  0.00    +0.074 C 
BRANCH  18  19
ATOM     19  C   LIG A   1      -5.462   7.122 130.954  0.00  0.00    +0.130 C 
ATOM     20  C   LIG A   1      -5.260   6.157 132.095  0.00  0.00    +0.086 C 
ATOM     21  O   LIG A   1      -6.593   7.440 130.588  0.00  0.00    -0.298 OA
ENDBRANCH  18  19
ENDBRANCH  17  18
ENDBRANCH  16  17
ENDBRANCH  15  16
ENDBRANCH  14  15
ENDBRANCH  13  14
ENDBRANCH  12  13
ENDBRANCH  11  12
ENDBRANCH  10  11
ENDBRANCH   9  10
ENDBRANCH   8   9
BRANCH   5  22
ATOM     22  O   LIG A   1      -7.753  -2.268 123.095  0.00  0.00    -0.457 OA
BRANCH  22  23
ATOM     23  C   LIG A   1      -8.672  -1.290 123.120  0.00  0.00    +0.332 C 
ATOM     24  O   LIG A   1      -9.869  -1.383 122.829  0.00  0.00    -0.246 OA
BRANCH  23  25
ATOM     25  C   LIG A   1      -7.955  -0.040 123.467  0.00  0.00    +0.092 C 
ATOM     26  C   LIG A   1      -8.615   1.025 123.949  0.00  0.00    +0.015 C 
BRANCH  26  27
ATOM     27  C   LIG A   1      -7.943   2.300 124.211  0.00  0.00    -0.021 A 
ATOM     28  C   LIG A   1      -8.394   3.120 125.246  0.00  0.00    +0.012 A 
ATOM     29  C   LIG A   1      -7.793   4.359 125.475  0.00  0.00    +0.050 A 
ATOM     30  C   LIG A   1      -6.729   4.785 124.675  0.00  0.00    +0.159 A 
ATOM     31  C   LIG A   1      -6.236   3.962 123.654  0.00  0.00    +0.162 A 
ATOM     32  C   LIG A   1      -6.857   2.721 123.430  0.00  0.00    +0.057 A 
BRANCH  30  33
ATOM     33  O   LIG A   1      -6.199   6.022 124.921  0.00  0.00    -0.503 OA
ATOM     34  H   LIG A   1      -6.906   6.685 124.910  0.00  0.00    +0.292 HD
ENDBRANCH  30  33
BRANCH  31  35
ATOM     35  O   LIG A   1      -5.188   4.212 122.805  0.00  0.00    -0.491 OA
ATOM     36  C   LIG A   1      -5.462   4.240 121.409  0.00  0.00    +0.277 C 
ENDBRANCH  31  35
ENDBRANCH  26  27
ENDBRANCH  23  25
ENDBRANCH  22  23
ENDBRANCH   5  22
TORSDOF 17
ENDMDL
MODEL 5
REMARK VINA RESULT:      -7.3      3.597      9.433
REMARK  Name = NuBBE_312
REMARK  20 active torsions:
REMARK  status: ('A' for Active; 'I' for Inactive)
REMARK    1  A    between atoms: C_3  and  C_4
REMARK    2  A    between atoms: C_5  and  O_6
REMARK    3  A    between atoms: O_6  and  C_7
REMARK    4  A    between atoms: C_7  and  C_8
REMARK    5  A    between atoms: C_9  and  C_10
REMARK    6  A    between atoms: C_13  and  O_14
REMARK    7  A    between atoms: C_15  and  O_16
REMARK    8  A    between atoms: O_16  and  C_17
REMARK    9  A    between atoms: C_22  and  C_23
REMARK   10  A    between atoms: C_23  and  C_24
REMARK   11  A    between atoms: C_24  and  C_25
REMARK   12  A    between atoms: C_25  and  C_26
REMARK   13  A    between atoms: C_26  and  C_27
REMARK   14  A    between atoms: C_27  and  C_28
REMARK   15  A    between atoms: C_28  and  C_29
REMARK   16  A    between atoms: C_29  and  C_30
REMARK   17  A    between atoms: C_30  and  C_31
REMARK   18  A    between atoms: C_31  and  C_32
REMARK   19  A    between atoms: C_32  and  C_33
REMARK   20  A    between atoms: C_33  and  C_34
REMARK                            x       y       z     vdW  Elec       q    Type
REMARK                         _______ _______ _______ _____ _____    ______ ____
ROOT
ATOM      1  H   LIG A   1      -7.234  -3.976 125.580  0.00  0.00    +0.123 HD
ATOM      2  N   LIG A   1      -7.510  -2.996 125.515  0.00  0.00    -0.307 NA
ATOM      3  C   LIG A   1      -8.128  -2.583 126.784  0.00  0.00    +0.092 C 
ATOM      4  C   LIG A   1      -9.204  -3.627 127.131  0.00  0.00    +0.028 C 
ATOM      5  C   LIG A   1      -7.160  -2.403 127.986  0.00  0.00    +0.193 C 
ATOM      6  C   LIG A   1      -5.819  -1.771 127.593  0.00  0.00    +0.048 C 
ATOM      7  C   LIG A   1      -5.299  -2.275 126.248  0.00  0.00    +0.022 C 
ATOM      8  C   LIG A   1      -6.341  -2.186 125.128  0.00  0.00    +0.054 C 
ENDROOT
BRANCH   8   9
ATOM      9  C   LIG A   1      -6.768  -0.760 124.690  0.00  0.00    +0.019 C 
BRANCH   9  10
ATOM     10  C   LIG A   1      -7.143  -0.593 123.204  0.00  0.00    +0.002 C 
BRANCH  10  11
ATOM     11  C   LIG A   1      -8.679  -0.589 123.008  0.00  0.00    +0.000 C 
BRANCH  11  12
ATOM     12  C   LIG A   1      -9.390   0.377 123.975  0.00  0.00    -0.000 C 
BRANCH  12  13
ATOM     13  C   LIG A   1      -9.280   1.870 123.589  0.00  0.00    -0.000 C 
BRANCH  13  14
ATOM     14  C   LIG A   1      -8.320   2.636 124.525  0.00  0.00    -0.000 C 
BRANCH  14  15
ATOM     15  C   LIG A   1      -7.475   3.709 123.806  0.00  0.00    +0.000 C 
BRANCH  15  16
ATOM     16  C   LIG A   1      -6.491   3.067 122.814  0.00  0.00    +0.000 C 
BRANCH  16  17
ATOM     17  C   LIG A   1      -6.649   3.557 121.370  0.00  0.00    +0.007 C 
BRANCH  17  18
ATOM     18  C   LIG A   1      -5.276   3.874 120.768  0.00  0.00    +0.074 C 
BRANCH  18  19
ATOM     19  C   LIG A   1      -5.253   5.230 120.089  0.00  0.00    +0.130 C 
ATOM     20  C   LIG A   1      -5.994   5.353 118.782  0.00  0.00    +0.086 C 
ATOM     21  O   LIG A   1      -4.593   6.170 120.532  0.00  0.00    -0.298 OA
ENDBRANCH  18  19
ENDBRANCH  17  18
ENDBRANCH  16  17
ENDBRANCH  15  16
ENDBRANCH  14  15
ENDBRANCH  13  14
ENDBRANCH  12  13
ENDBRANCH  11  12
ENDBRANCH  10  11
ENDBRANCH   9  10
ENDBRANCH   8   9
BRANCH   5  22
ATOM     22  O   LIG A   1      -7.843  -1.512 128.910  0.00  0.00    -0.457 OA
BRANCH  22  23
ATOM     23  C   LIG A   1      -7.843  -1.820 130.217  0.00  0.00    +0.332 C 
ATOM     24  O   LIG A   1      -7.530  -2.899 130.729  0.00  0.00    -0.246 OA
BRANCH  23  25
ATOM     25  C   LIG A   1      -8.394  -0.645 130.932  0.00  0.00    +0.092 C 
ATOM     26  C   LIG A   1      -8.147   0.604 130.504  0.00  0.00    +0.015 C 
BRANCH  26  27
ATOM     27  C   LIG A   1      -8.604   1.782 131.245  0.00  0.00    -0.021 A 
ATOM     28  C   LIG A   1      -8.257   1.933 132.588  0.00  0.00    +0.012 A 
ATOM     29  C   LIG A   1      -8.727   3.027 133.317  0.00  0.00    +0.050 A 
ATOM     30  C   LIG A   1      -9.542   3.984 132.707  0.00  0.00    +0.159 A 
ATOM     31  C   LIG A   1      -9.873   3.872 131.350  0.00  0.00    +0.162 A 
ATOM     32  C   LIG A   1      -9.399   2.761 130.631  0.00  0.00    +0.057 A 
BRANCH  30  33
ATOM     33  O   LIG A   1     -10.002   5.018 133.476  0.00  0.00    -0.503 OA
ATOM     34  H   LIG A   1      -9.801   4.841 134.408  0.00  0.00    +0.292 HD
ENDBRANCH  30  33
BRANCH  31  35
ATOM     35  O   LIG A   1     -10.630   4.732 130.595  0.00  0.00    -0.491 OA
ATOM     36  C   LIG A   1      -9.943   5.667 129.772  0.00  0.00    +0.277 C 
ENDBRANCH  31  35
ENDBRANCH  26  27
ENDBRANCH  23  25
ENDBRANCH  22  23
ENDBRANCH   5  22
TORSDOF 17
ENDMDL
MODEL 6
REMARK VINA RESULT:      -7.2      3.314      5.927
REMARK  Name = NuBBE_312
REMARK  20 active torsions:
REMARK  status: ('A' for Active; 'I' for Inactive)
REMARK    1  A    between atoms: C_3  and  C_4
REMARK    2  A    between atoms: C_5  and  O_6
REMARK    3  A    between atoms: O_6  and  C_7
REMARK    4  A    between atoms: C_7  and  C_8
REMARK    5  A    between atoms: C_9  and  C_10
REMARK    6  A    between atoms: C_13  and  O_14
REMARK    7  A    between atoms: C_15  and  O_16
REMARK    8  A    between atoms: O_16  and  C_17
REMARK    9  A    between atoms: C_22  and  C_23
REMARK   10  A    between atoms: C_23  and  C_24
REMARK   11  A    between atoms: C_24  and  C_25
REMARK   12  A    between atoms: C_25  and  C_26
REMARK   13  A    between atoms: C_26  and  C_27
REMARK   14  A    between atoms: C_27  and  C_28
REMARK   15  A    between atoms: C_28  and  C_29
REMARK   16  A    between atoms: C_29  and  C_30
REMARK   17  A    between atoms: C_30  and  C_31
REMARK   18  A    between atoms: C_31  and  C_32
REMARK   19  A    between atoms: C_32  and  C_33
REMARK   20  A    between atoms: C_33  and  C_34
REMARK                            x       y       z     vdW  Elec       q    Type
REMARK                         _______ _______ _______ _____ _____    ______ ____
ROOT
ATOM      1  H   LIG A   1      -7.210  -4.463 123.719  0.00  0.00    +0.123 HD
ATOM      2  N   LIG A   1      -7.459  -3.780 124.435  0.00  0.00    -0.307 NA
ATOM      3  C   LIG A   1      -6.755  -2.518 124.164  0.00  0.00    +0.092 C 
ATOM      4  C   LIG A   1      -5.268  -2.857 123.959  0.00  0.00    +0.028 C 
ATOM      5  C   LIG A   1      -7.279  -1.691 122.957  0.00  0.00    +0.193 C 
ATOM      6  C   LIG A   1      -8.807  -1.712 122.828  0.00  0.00    +0.048 C 
ATOM      7  C   LIG A   1      -9.410  -3.078 123.153  0.00  0.00    +0.022 C 
ATOM      8  C   LIG A   1      -8.926  -3.646 124.491  0.00  0.00    +0.054 C 
ENDROOT
BRANCH   8   9
ATOM      9  C   LIG A   1      -9.372  -2.888 125.769  0.00  0.00    +0.019 C 
BRANCH   9  10
ATOM     10  C   LIG A   1      -8.988  -3.542 127.111  0.00  0.00    +0.002 C 
BRANCH  10  11
ATOM     11  C   LIG A   1      -7.859  -2.752 127.820  0.00  0.00    +0.000 C 
BRANCH  11  12
ATOM     12  C   LIG A   1      -7.643  -3.218 129.273  0.00  0.00    -0.000 C 
BRANCH  12  13
ATOM     13  C   LIG A   1      -7.989  -2.159 130.345  0.00  0.00    -0.000 C 
BRANCH  13  14
ATOM     14  C   LIG A   1      -6.995  -2.190 131.525  0.00  0.00    -0.000 C 
BRANCH  14  15
ATOM     15  C   LIG A   1      -7.338  -3.243 132.599  0.00  0.00    +0.000 C 
BRANCH  15  16
ATOM     16  C   LIG A   1      -6.119  -4.121 132.927  0.00  0.00    +0.000 C 
BRANCH  16  17
ATOM     17  C   LIG A   1      -5.295  -4.531 131.702  0.00  0.00    +0.007 C 
BRANCH  17  18
ATOM     18  C   LIG A   1      -3.873  -3.969 131.809  0.00  0.00    +0.074 C 
BRANCH  18  19
ATOM     19  C   LIG A   1      -3.517  -3.093 130.623  0.00  0.00    +0.130 C 
ATOM     20  C   LIG A   1      -3.975  -3.562 129.266  0.00  0.00    +0.086 C 
ATOM     21  O   LIG A   1      -2.815  -2.089 130.741  0.00  0.00    -0.298 OA
ENDBRANCH  18  19
ENDBRANCH  17  18
ENDBRANCH  16  17
ENDBRANCH  15  16
ENDBRANCH  14  15
ENDBRANCH  13  14
ENDBRANCH  12  13
ENDBRANCH  11  12
ENDBRANCH  10  11
ENDBRANCH   9  10
ENDBRANCH   8   9
BRANCH   5  22
ATOM     22  O   LIG A   1      -6.849  -0.324 123.201  0.00  0.00    -0.457 OA
BRANCH  22  23
ATOM     23  C   LIG A   1      -7.616   0.462 123.974  0.00  0.00    +0.332 C 
ATOM     24  O   LIG A   1      -8.592   1.132 123.621  0.00  0.00    -0.246 OA
BRANCH  23  25
ATOM     25  C   LIG A   1      -7.005   0.459 125.324  0.00  0.00    +0.092 C 
ATOM     26  C   LIG A   1      -7.720   0.798 126.409  0.00  0.00    +0.015 C 
BRANCH  26  27
ATOM     27  C   LIG A   1      -7.115   0.891 127.739  0.00  0.00    -0.021 A 
ATOM     28  C   LIG A   1      -5.809   0.443 127.938  0.00  0.00    +0.012 A 
ATOM     29  C   LIG A   1      -5.239   0.482 129.212  0.00  0.00    +0.050 A 
ATOM     30  C   LIG A   1      -5.968   0.977 130.297  0.00  0.00    +0.159 A 
ATOM     31  C   LIG A   1      -7.269   1.465 130.113  0.00  0.00    +0.162 A 
ATOM     32  C   LIG A   1      -7.832   1.412 128.826  0.00  0.00    +0.057 A 
BRANCH  30  33
ATOM     33  O   LIG A   1      -5.374   0.960 131.529  0.00  0.00    -0.503 OA
ATOM     34  H   LIG A   1      -5.747   1.667 132.078  0.00  0.00    +0.292 HD
ENDBRANCH  30  33
BRANCH  31  35
ATOM     35  O   LIG A   1      -8.103   2.009 131.055  0.00  0.00    -0.491 OA
ATOM     36  C   LIG A   1      -9.069   1.153 131.655  0.00  0.00    +0.277 C 
ENDBRANCH  31  35
ENDBRANCH  26  27
ENDBRANCH  23  25
ENDBRANCH  22  23
ENDBRANCH   5  22
TORSDOF 17
ENDMDL
MODEL 7
REMARK VINA RESULT:      -7.1      3.382      4.925
REMARK  Name = NuBBE_312
REMARK  20 active torsions:
REMARK  status: ('A' for Active; 'I' for Inactive)
REMARK    1  A    between atoms: C_3  and  C_4
REMARK    2  A    between atoms: C_5  and  O_6
REMARK    3  A    between atoms: O_6  and  C_7
REMARK    4  A    between atoms: C_7  and  C_8
REMARK    5  A    between atoms: C_9  and  C_10
REMARK    6  A    between atoms: C_13  and  O_14
REMARK    7  A    between atoms: C_15  and  O_16
REMARK    8  A    between atoms: O_16  and  C_17
REMARK    9  A    between atoms: C_22  and  C_23
REMARK   10  A    between atoms: C_23  and  C_24
REMARK   11  A    between atoms: C_24  and  C_25
REMARK   12  A    between atoms: C_25  and  C_26
REMARK   13  A    between atoms: C_26  and  C_27
REMARK   14  A    between atoms: C_27  and  C_28
REMARK   15  A    between atoms: C_28  and  C_29
REMARK   16  A    between atoms: C_29  and  C_30
REMARK   17  A    between atoms: C_30  and  C_31
REMARK   18  A    between atoms: C_31  and  C_32
REMARK   19  A    between atoms: C_32  and  C_33
REMARK   20  A    between atoms: C_33  and  C_34
REMARK                            x       y       z     vdW  Elec       q    Type
REMARK                         _______ _______ _______ _____ _____    ______ ____
ROOT
ATOM      1  H   LIG A   1      -7.185  -3.391 124.601  0.00  0.00    +0.123 HD
ATOM      2  N   LIG A   1      -6.720  -2.662 125.144  0.00  0.00    -0.307 NA
ATOM      3  C   LIG A   1      -7.029  -1.350 124.556  0.00  0.00    +0.092 C 
ATOM      4  C   LIG A   1      -6.738  -1.442 123.048  0.00  0.00    +0.028 C 
ATOM      5  C   LIG A   1      -8.474  -0.827 124.784  0.00  0.00    +0.193 C 
ATOM      6  C   LIG A   1      -9.018  -1.143 126.182  0.00  0.00    +0.048 C 
ATOM      7  C   LIG A   1      -8.610  -2.529 126.678  0.00  0.00    +0.022 C 
ATOM      8  C   LIG A   1      -7.104  -2.790 126.560  0.00  0.00    +0.054 C 
ENDROOT
BRANCH   8   9
ATOM      9  C   LIG A   1      -6.180  -1.938 127.471  0.00  0.00    +0.019 C 
BRANCH   9  10
ATOM     10  C   LIG A   1      -6.687  -1.691 128.905  0.00  0.00    +0.002 C 
BRANCH  10  11
ATOM     11  C   LIG A   1      -6.824  -0.176 129.201  0.00  0.00    +0.000 C 
BRANCH  11  12
ATOM     12  C   LIG A   1      -8.059   0.142 130.066  0.00  0.00    -0.000 C 
BRANCH  12  13
ATOM     13  C   LIG A   1      -7.978   1.481 130.834  0.00  0.00    -0.000 C 
BRANCH  13  14
ATOM     14  C   LIG A   1      -8.998   1.543 131.991  0.00  0.00    -0.000 C 
BRANCH  14  15
ATOM     15  C   LIG A   1     -10.075   2.633 131.813  0.00  0.00    +0.000 C 
BRANCH  15  16
ATOM     16  C   LIG A   1      -9.985   3.280 130.420  0.00  0.00    +0.000 C 
BRANCH  16  17
ATOM     17  C   LIG A   1     -10.503   4.721 130.364  0.00  0.00    +0.007 C 
BRANCH  17  18
ATOM     18  C   LIG A   1      -9.817   5.571 131.438  0.00  0.00    +0.074 C 
BRANCH  18  19
ATOM     19  C   LIG A   1      -8.790   6.516 130.845  0.00  0.00    +0.130 C 
ATOM     20  C   LIG A   1      -7.415   6.507 131.464  0.00  0.00    +0.086 C 
ATOM     21  O   LIG A   1      -9.077   7.318 129.956  0.00  0.00    -0.298 OA
ENDBRANCH  18  19
ENDBRANCH  17  18
ENDBRANCH  16  17
ENDBRANCH  15  16
ENDBRANCH  14  15
ENDBRANCH  13  14
ENDBRANCH  12  13
ENDBRANCH  11  12
ENDBRANCH  10  11
ENDBRANCH   9  10
ENDBRANCH   8   9
BRANCH   5  22
ATOM     22  O   LIG A   1      -8.398   0.617 124.628  0.00  0.00    -0.457 OA
BRANCH  22  23
ATOM     23  C   LIG A   1      -9.389   1.245 123.976  0.00  0.00    +0.332 C 
ATOM     24  O   LIG A   1     -10.599   1.179 124.216  0.00  0.00    -0.246 OA
BRANCH  23  25
ATOM     25  C   LIG A   1      -8.766   1.957 122.836  0.00  0.00    +0.092 C 
ATOM     26  C   LIG A   1      -7.555   2.526 122.954  0.00  0.00    +0.015 C 
BRANCH  26  27
ATOM     27  C   LIG A   1      -6.958   3.313 121.871  0.00  0.00    -0.021 A 
ATOM     28  C   LIG A   1      -5.643   3.763 121.987  0.00  0.00    +0.012 A 
ATOM     29  C   LIG A   1      -5.080   4.554 120.984  0.00  0.00    +0.050 A 
ATOM     30  C   LIG A   1      -5.826   4.895 119.852  0.00  0.00    +0.159 A 
ATOM     31  C   LIG A   1      -7.137   4.423 119.698  0.00  0.00    +0.162 A 
ATOM     32  C   LIG A   1      -7.692   3.635 120.721  0.00  0.00    +0.057 A 
BRANCH  30  33
ATOM     33  O   LIG A   1      -5.238   5.700 118.916  0.00  0.00    -0.503 OA
ATOM     34  H   LIG A   1      -4.375   5.332 118.669  0.00  0.00    +0.292 HD
ENDBRANCH  30  33
BRANCH  31  35
ATOM     35  O   LIG A   1      -7.989   4.636 118.645  0.00  0.00    -0.491 OA
ATOM     36  C   LIG A   1      -9.364   4.326 118.835  0.00  0.00    +0.277 C 
ENDBRANCH  31  35
ENDBRANCH  26  27
ENDBRANCH  23  25
ENDBRANCH  22  23
ENDBRANCH   5  22
TORSDOF 17
ENDMDL
MODEL 8
REMARK VINA RESULT:      -7.1      5.463      8.528
REMARK  Name = NuBBE_312
REMARK  20 active torsions:
REMARK  status: ('A' for Active; 'I' for Inactive)
REMARK    1  A    between atoms: C_3  and  C_4
REMARK    2  A    between atoms: C_5  and  O_6
REMARK    3  A    between atoms: O_6  and  C_7
REMARK    4  A    between atoms: C_7  and  C_8
REMARK    5  A    between atoms: C_9  and  C_10
REMARK    6  A    between atoms: C_13  and  O_14
REMARK    7  A    between atoms: C_15  and  O_16
REMARK    8  A    between atoms: O_16  and  C_17
REMARK    9  A    between atoms: C_22  and  C_23
REMARK   10  A    between atoms: C_23  and  C_24
REMARK   11  A    between atoms: C_24  and  C_25
REMARK   12  A    between atoms: C_25  and  C_26
REMARK   13  A    between atoms: C_26  and  C_27
REMARK   14  A    between atoms: C_27  and  C_28
REMARK   15  A    between atoms: C_28  and  C_29
REMARK   16  A    between atoms: C_29  and  C_30
REMARK   17  A    between atoms: C_30  and  C_31
REMARK   18  A    between atoms: C_31  and  C_32
REMARK   19  A    between atoms: C_32  and  C_33
REMARK   20  A    between atoms: C_33  and  C_34
REMARK                            x       y       z     vdW  Elec       q    Type
REMARK                         _______ _______ _______ _____ _____    ______ ____
ROOT
ATOM      1  H   LIG A   1      -3.684   1.596 127.567  0.00  0.00    +0.123 HD
ATOM      2  N   LIG A   1      -4.562   1.075 127.563  0.00  0.00    -0.307 NA
ATOM      3  C   LIG A   1      -5.359   1.463 128.736  0.00  0.00    +0.092 C 
ATOM      4  C   LIG A   1      -4.445   1.352 129.969  0.00  0.00    +0.028 C 
ATOM      5  C   LIG A   1      -6.005   2.875 128.682  0.00  0.00    +0.193 C 
ATOM      6  C   LIG A   1      -6.532   3.246 127.291  0.00  0.00    +0.048 C 
ATOM      7  C   LIG A   1      -5.617   2.770 126.165  0.00  0.00    +0.022 C 
ATOM      8  C   LIG A   1      -5.248   1.287 126.276  0.00  0.00    +0.054 C 
ENDROOT
BRANCH   8   9
ATOM      9  C   LIG A   1      -6.402   0.268 126.082  0.00  0.00    +0.019 C 
BRANCH   9  10
ATOM     10  C   LIG A   1      -6.246  -1.078 126.816  0.00  0.00    +0.002 C 
BRANCH  10  11
ATOM     11  C   LIG A   1      -7.494  -1.398 127.677  0.00  0.00    +0.000 C 
BRANCH  11  12
ATOM     12  C   LIG A   1      -7.523  -2.867 128.141  0.00  0.00    -0.000 C 
BRANCH  12  13
ATOM     13  C   LIG A   1      -8.767  -3.662 127.680  0.00  0.00    -0.000 C 
BRANCH  13  14
ATOM     14  C   LIG A   1      -9.204  -3.267 126.253  0.00  0.00    -0.000 C 
BRANCH  14  15
ATOM     15  C   LIG A   1      -8.332  -3.888 125.142  0.00  0.00    +0.000 C 
BRANCH  15  16
ATOM     16  C   LIG A   1      -8.220  -2.945 123.932  0.00  0.00    +0.000 C 
BRANCH  16  17
ATOM     17  C   LIG A   1      -8.949  -1.609 124.109  0.00  0.00    +0.007 C 
BRANCH  17  18
ATOM     18  C   LIG A   1      -9.095  -0.904 122.757  0.00  0.00    +0.074 C 
BRANCH  18  19
ATOM     19  C   LIG A   1      -9.894   0.381 122.868  0.00  0.00    +0.130 C 
ATOM     20  C   LIG A   1      -9.186   1.576 123.452  0.00  0.00    +0.086 C 
ATOM     21  O   LIG A   1     -11.089   0.433 122.577  0.00  0.00    -0.298 OA
ENDBRANCH  18  19
ENDBRANCH  17  18
ENDBRANCH  16  17
ENDBRANCH  15  16
ENDBRANCH  14  15
ENDBRANCH  13  14
ENDBRANCH  12  13
ENDBRANCH  11  12
ENDBRANCH  10  11
ENDBRANCH   9  10
ENDBRANCH   8   9
BRANCH   5  22
ATOM     22  O   LIG A   1      -7.125   2.830 129.610  0.00  0.00    -0.457 OA
BRANCH  22  23
ATOM     23  C   LIG A   1      -7.169   3.729 130.606  0.00  0.00    +0.332 C 
ATOM     24  O   LIG A   1      -6.581   3.669 131.691  0.00  0.00    -0.246 OA
BRANCH  23  25
ATOM     25  C   LIG A   1      -8.146   4.765 130.202  0.00  0.00    +0.092 C 
ATOM     26  C   LIG A   1      -8.997   5.301 131.093  0.00  0.00    +0.015 C 
BRANCH  26  27
ATOM     27  C   LIG A   1     -10.032   6.259 130.700  0.00  0.00    -0.021 A 
ATOM     28  C   LIG A   1     -11.169   6.415 131.494  0.00  0.00    +0.012 A 
ATOM     29  C   LIG A   1     -12.184   7.290 131.103  0.00  0.00    +0.050 A 
ATOM     30  C   LIG A   1     -12.067   8.023 129.919  0.00  0.00    +0.159 A 
ATOM     31  C   LIG A   1     -10.919   7.909 129.125  0.00  0.00    +0.162 A 
ATOM     32  C   LIG A   1      -9.908   7.017 129.527  0.00  0.00    +0.057 A 
BRANCH  30  33
ATOM     33  O   LIG A   1     -13.107   8.840 129.566  0.00  0.00    -0.503 OA
ATOM     34  H   LIG A   1     -13.087   8.993 128.609  0.00  0.00    +0.292 HD
ENDBRANCH  30  33
BRANCH  31  35
ATOM     35  O   LIG A   1     -10.632   8.573 127.959  0.00  0.00    -0.491 OA
ATOM     36  C   LIG A   1     -11.020   7.958 126.736  0.00  0.00    +0.277 C 
ENDBRANCH  31  35
ENDBRANCH  26  27
ENDBRANCH  23  25
ENDBRANCH  22  23
ENDBRANCH   5  22
TORSDOF 17
ENDMDL
MODEL 9
REMARK VINA RESULT:      -7.1      5.947      8.482
REMARK  Name = NuBBE_312
REMARK  20 active torsions:
REMARK  status: ('A' for Active; 'I' for Inactive)
REMARK    1  A    between atoms: C_3  and  C_4
REMARK    2  A    between atoms: C_5  and  O_6
REMARK    3  A    between atoms: O_6  and  C_7
REMARK    4  A    between atoms: C_7  and  C_8
REMARK    5  A    between atoms: C_9  and  C_10
REMARK    6  A    between atoms: C_13  and  O_14
REMARK    7  A    between atoms: C_15  and  O_16
REMARK    8  A    between atoms: O_16  and  C_17
REMARK    9  A    between atoms: C_22  and  C_23
REMARK   10  A    between atoms: C_23  and  C_24
REMARK   11  A    between atoms: C_24  and  C_25
REMARK   12  A    between atoms: C_25  and  C_26
REMARK   13  A    between atoms: C_26  and  C_27
REMARK   14  A    between atoms: C_27  and  C_28
REMARK   15  A    between atoms: C_28  and  C_29
REMARK   16  A    between atoms: C_29  and  C_30
REMARK   17  A    between atoms: C_30  and  C_31
REMARK   18  A    between atoms: C_31  and  C_32
REMARK   19  A    between atoms: C_32  and  C_33
REMARK   20  A    between atoms: C_33  and  C_34
REMARK                            x       y       z     vdW  Elec       q    Type
REMARK                         _______ _______ _______ _____ _____    ______ ____
ROOT
ATOM      1  H   LIG A   1      -8.522   1.375 129.404  0.00  0.00    +0.123 HD
ATOM      2  N   LIG A   1      -7.759   1.101 130.023  0.00  0.00    -0.307 NA
ATOM      3  C   LIG A   1      -7.189   2.304 130.648  0.00  0.00    +0.092 C 
ATOM      4  C   LIG A   1      -6.896   3.311 129.523  0.00  0.00    +0.028 C 
ATOM      5  C   LIG A   1      -8.058   2.976 131.747  0.00  0.00    +0.193 C 
ATOM      6  C   LIG A   1      -8.786   1.967 132.643  0.00  0.00    +0.048 C 
ATOM      7  C   LIG A   1      -9.314   0.760 131.869  0.00  0.00    +0.022 C 
ATOM      8  C   LIG A   1      -8.249   0.100 130.986  0.00  0.00    +0.054 C 
ENDROOT
BRANCH   8   9
ATOM      9  C   LIG A   1      -7.072  -0.594 131.721  0.00  0.00    +0.019 C 
BRANCH   9  10
ATOM     10  C   LIG A   1      -7.461  -1.662 132.763  0.00  0.00    +0.002 C 
BRANCH  10  11
ATOM     11  C   LIG A   1      -6.221  -2.453 133.248  0.00  0.00    +0.000 C 
BRANCH  11  12
ATOM     12  C   LIG A   1      -6.435  -3.978 133.178  0.00  0.00    -0.000 C 
BRANCH  12  13
ATOM     13  C   LIG A   1      -5.328  -4.747 132.423  0.00  0.00    -0.000 C 
BRANCH  13  14
ATOM     14  C   LIG A   1      -5.663  -4.915 130.925  0.00  0.00    -0.000 C 
BRANCH  14  15
ATOM     15  C   LIG A   1      -4.988  -3.867 130.016  0.00  0.00    +0.000 C 
BRANCH  15  16
ATOM     16  C   LIG A   1      -6.024  -3.133 129.149  0.00  0.00    +0.000 C 
BRANCH  16  17
ATOM     17  C   LIG A   1      -7.479  -3.416 129.537  0.00  0.00    +0.007 C 
BRANCH  17  18
ATOM     18  C   LIG A   1      -8.373  -3.388 128.293  0.00  0.00    +0.074 C 
BRANCH  18  19
ATOM     19  C   LIG A   1      -8.003  -2.257 127.352  0.00  0.00    +0.130 C 
ATOM     20  C   LIG A   1      -7.544  -2.643 125.969  0.00  0.00    +0.086 C 
ATOM     21  O   LIG A   1      -7.994  -1.082 127.716  0.00  0.00    -0.298 OA
ENDBRANCH  18  19
ENDBRANCH  17  18
ENDBRANCH  16  17
ENDBRANCH  15  16
ENDBRANCH  14  15
ENDBRANCH  13  14
ENDBRANCH  12  13
ENDBRANCH  11  12
ENDBRANCH  10  11
ENDBRANCH   9  10
ENDBRANCH   8   9
BRANCH   5  22
ATOM     22  O   LIG A   1      -7.132   3.744 132.564  0.00  0.00    -0.457 OA
BRANCH  22  23
ATOM     23  C   LIG A   1      -7.487   4.981 132.946  0.00  0.00    +0.332 C 
ATOM     24  O   LIG A   1      -6.967   5.667 133.831  0.00  0.00    -0.246 OA
BRANCH  23  25
ATOM     25  C   LIG A   1      -8.699   5.335 132.170  0.00  0.00    +0.092 C 
ATOM     26  C   LIG A   1      -8.770   6.485 131.481  0.00  0.00    +0.015 C 
BRANCH  26  27
ATOM     27  C   LIG A   1      -9.989   6.898 130.783  0.00  0.00    -0.021 A 
ATOM     28  C   LIG A   1     -11.235   6.648 131.359  0.00  0.00    +0.012 A 
ATOM     29  C   LIG A   1     -12.405   6.994 130.680  0.00  0.00    +0.050 A 
ATOM     30  C   LIG A   1     -12.339   7.600 129.423  0.00  0.00    +0.159 A 
ATOM     31  C   LIG A   1     -11.098   7.893 128.842  0.00  0.00    +0.162 A 
ATOM     32  C   LIG A   1      -9.929   7.532 129.534  0.00  0.00    +0.057 A 
BRANCH  30  33
ATOM     33  O   LIG A   1     -13.516   7.886 128.787  0.00  0.00    -0.503 OA
ATOM     34  H   LIG A   1     -13.338   8.105 127.859  0.00  0.00    +0.292 HD
ENDBRANCH  30  33
BRANCH  31  35
ATOM     35  O   LIG A   1     -10.857   8.508 127.640  0.00  0.00    -0.491 OA
ATOM     36  C   LIG A   1     -10.929   7.711 126.464  0.00  0.00    +0.277 C 
ENDBRANCH  31  35
ENDBRANCH  26  27
ENDBRANCH  23  25
ENDBRANCH  22  23
ENDBRANCH   5  22
TORSDOF 17
ENDMDL
