MODEL 1
REMARK VINA RESULT:      -8.2      0.000      0.000
REMARK  Name = NuBBE_1452
REMARK  13 active torsions:
REMARK  status: ('A' for Active; 'I' for Inactive)
REMARK    1  A    between atoms: C_1  and  C_2
REMARK    2  A    between atoms: C_3  and  C_5
REMARK    3  A    between atoms: C_5  and  C_6
REMARK    4  A    between atoms: C_6  and  O_8
REMARK    5  A    between atoms: O_8  and  C_9
REMARK    6  A    between atoms: C_10  and  C_11
REMARK    7  A    between atoms: C_14  and  O_32
REMARK    8  A    between atoms: C_22  and  C_23
REMARK    9  A    between atoms: C_24  and  C_27
REMARK   10  A    between atoms: C_33  and  C_34
REMARK   11  A    between atoms: C_33  and  C_38
REMARK   12  A    between atoms: C_34  and  O_36
REMARK   13  A    between atoms: O_36  and  C_37
REMARK                            x       y       z     vdW  Elec       q    Type
REMARK                         _______ _______ _______ _____ _____    ______ ____
ROOT
ATOM      1  C   LIG A   1      -8.200   7.685 130.339  0.00  0.00    +0.019 C 
ATOM      2  C   LIG A   1      -8.746   6.294 130.770  0.00  0.00    +0.024 C 
ATOM      3  C   LIG A   1      -7.832   5.104 130.258  0.00  0.00    +0.026 C 
ATOM      4  C   LIG A   1      -6.534   4.939 131.168  0.00  0.00    +0.041 C 
ATOM      5  C   LIG A   1      -5.645   6.232 131.123  0.00  0.00    +0.020 C 
ATOM      6  C   LIG A   1      -6.896   4.692 132.673  0.00  0.00    +0.054 C 
ATOM      7  C   LIG A   1      -8.366   5.012 133.025  0.00  0.00    +0.149 C 
ATOM      8  C   LIG A   1      -8.896   6.277 132.323  0.00  0.00    +0.158 C 
ATOM      9  O   LIG A   1     -10.308   6.408 132.660  0.00  0.00    -0.366 OA
ATOM     10  C   LIG A   1     -11.058   5.963 131.538  0.00  0.00    +0.146 C 
ATOM     11  C   LIG A   1     -10.203   6.285 130.375  0.00  0.00    -0.033 C 
ATOM     12  C   LIG A   1     -10.898   6.824 129.359  0.00  0.00    -0.063 C 
ATOM     13  C   LIG A   1     -10.381   7.293 128.039  0.00  0.00    +0.040 C 
ATOM     14  C   LIG A   1     -12.349   7.039 129.766  0.00  0.00    +0.051 C 
ATOM     15  C   LIG A   1     -12.320   6.771 131.290  0.00  0.00    +0.048 C 
ATOM     16  C   LIG A   1      -6.342   3.379 133.358  0.00  0.00    +0.089 C 
ATOM     17  C   LIG A   1      -7.399   2.280 133.568  0.00  0.00    +0.027 C 
ATOM     18  C   LIG A   1      -5.197   2.725 132.618  0.00  0.00    -0.005 C 
ATOM     19  C   LIG A   1      -4.833   2.972 131.361  0.00  0.00    +0.044 C 
ATOM     20  C   LIG A   1      -5.538   3.959 130.533  0.00  0.00    +0.162 C 
ATOM     21  O   LIG A   1      -5.216   4.047 129.348  0.00  0.00    -0.292 OA
ENDROOT
BRANCH  14  22
ATOM     22  C   LIG A   1     -12.890   8.414 129.478  0.00  0.00    -0.003 A 
ATOM     23  C   LIG A   1     -12.933   9.558 130.336  0.00  0.00    +0.045 A 
ATOM     24  C   LIG A   1     -13.521  10.572 129.619  0.00  0.00    +0.195 A 
ATOM     25  O   LIG A   1     -13.881  10.129 128.388  0.00  0.00    -0.471 OA
ATOM     26  C   LIG A   1     -13.508   8.827 128.312  0.00  0.00    +0.199 A 
ENDBRANCH  14  22
BRANCH   7  27
ATOM     27  O   LIG A   1      -8.448   5.223 134.441  0.00  0.00    -0.389 OA
ATOM     28  H   LIG A   1      -9.400   5.203 134.665  0.00  0.00    +0.210 HD
ENDBRANCH   7  27
BRANCH  16  29
ATOM     29  C   LIG A   1      -5.761   3.781 134.741  0.00  0.00    +0.317 C 
ATOM     30  O   LIG A   1      -5.541   3.026 135.676  0.00  0.00    -0.250 OA
BRANCH  29  31
ATOM     31  O   LIG A   1      -5.517   5.129 134.760  0.00  0.00    -0.467 OA
ATOM     32  C   LIG A   1      -5.282   5.672 136.055  0.00  0.00    +0.280 C 
ENDBRANCH  29  31
ENDBRANCH  16  29
BRANCH   3  33
ATOM     33  C   LIG A   1      -8.659   3.792 130.059  0.00  0.00    +0.126 C 
BRANCH  33  34
ATOM     34  C   LIG A   1      -8.684   3.181 128.668  0.00  0.00    +0.307 C 
ATOM     35  O   LIG A   1      -8.972   2.018 128.456  0.00  0.00    -0.251 OA
BRANCH  34  36
ATOM     36  O   LIG A   1      -8.341   4.106 127.737  0.00  0.00    -0.468 OA
ATOM     37  C   LIG A   1      -7.677   3.581 126.582  0.00  0.00    +0.280 C 
ENDBRANCH  34  36
ENDBRANCH  33  34
ENDBRANCH   3  33
TORSDOF 7
ENDMDL
MODEL 2
REMARK VINA RESULT:      -8.1      3.042      7.358
REMARK  Name = NuBBE_1452
REMARK  13 active torsions:
REMARK  status: ('A' for Active; 'I' for Inactive)
REMARK    1  A    between atoms: C_1  and  C_2
REMARK    2  A    between atoms: C_3  and  C_5
REMARK    3  A    between atoms: C_5  and  C_6
REMARK    4  A    between atoms: C_6  and  O_8
REMARK    5  A    between atoms: O_8  and  C_9
REMARK    6  A    between atoms: C_10  and  C_11
REMARK    7  A    between atoms: C_14  and  O_32
REMARK    8  A    between atoms: C_22  and  C_23
REMARK    9  A    between atoms: C_24  and  C_27
REMARK   10  A    between atoms: C_33  and  C_34
REMARK   11  A    between atoms: C_33  and  C_38
REMARK   12  A    between atoms: C_34  and  O_36
REMARK   13  A    between atoms: O_36  and  C_37
REMARK                            x       y       z     vdW  Elec       q    Type
REMARK                         _______ _______ _______ _____ _____    ______ ____
ROOT
ATOM      1  C   LIG A   1      -5.642   5.976 134.136  0.00  0.00    +0.019 C 
ATOM      2  C   LIG A   1      -5.690   5.447 132.675  0.00  0.00    +0.024 C 
ATOM      3  C   LIG A   1      -6.218   3.954 132.593  0.00  0.00    +0.026 C 
ATOM      4  C   LIG A   1      -7.805   3.893 132.726  0.00  0.00    +0.041 C 
ATOM      5  C   LIG A   1      -8.277   4.456 134.114  0.00  0.00    +0.020 C 
ATOM      6  C   LIG A   1      -8.523   4.749 131.626  0.00  0.00    +0.054 C 
ATOM      7  C   LIG A   1      -7.589   5.735 130.890  0.00  0.00    +0.149 C 
ATOM      8  C   LIG A   1      -6.569   6.415 131.822  0.00  0.00    +0.158 C 
ATOM      9  O   LIG A   1      -5.694   7.236 130.994  0.00  0.00    -0.366 OA
ATOM     10  C   LIG A   1      -4.470   6.531 130.837  0.00  0.00    +0.146 C 
ATOM     11  C   LIG A   1      -4.334   5.749 132.085  0.00  0.00    -0.033 C 
ATOM     12  C   LIG A   1      -3.086   5.787 132.583  0.00  0.00    -0.063 C 
ATOM     13  C   LIG A   1      -2.575   5.142 133.828  0.00  0.00    +0.040 C 
ATOM     14  C   LIG A   1      -2.216   6.724 131.757  0.00  0.00    +0.051 C 
ATOM     15  C   LIG A   1      -3.245   7.429 130.841  0.00  0.00    +0.048 C 
ATOM     16  C   LIG A   1      -9.556   4.016 130.680  0.00  0.00    +0.089 C 
ATOM     17  C   LIG A   1      -9.037   3.753 129.256  0.00  0.00    +0.027 C 
ATOM     18  C   LIG A   1     -10.043   2.683 131.203  0.00  0.00    -0.005 C 
ATOM     19  C   LIG A   1      -9.485   1.974 132.183  0.00  0.00    +0.044 C 
ATOM     20  C   LIG A   1      -8.289   2.447 132.893  0.00  0.00    +0.162 C 
ATOM     21  O   LIG A   1      -7.767   1.684 133.706  0.00  0.00    -0.292 OA
ENDROOT
BRANCH  14  22
ATOM     22  C   LIG A   1      -1.436   7.733 132.557  0.00  0.00    -0.003 A 
ATOM     23  C   LIG A   1      -1.866   8.999 133.066  0.00  0.00    +0.045 A 
ATOM     24  C   LIG A   1      -0.794   9.548 133.728  0.00  0.00    +0.195 A 
ATOM     25  O   LIG A   1       0.284   8.730 133.634  0.00  0.00    -0.471 OA
ATOM     26  C   LIG A   1      -0.106   7.643 132.920  0.00  0.00    +0.199 A 
ENDBRANCH  14  22
BRANCH   7  27
ATOM     27  O   LIG A   1      -8.400   6.759 130.297  0.00  0.00    -0.389 OA
ATOM     28  H   LIG A   1      -9.220   6.799 130.830  0.00  0.00    +0.210 HD
ENDBRANCH   7  27
BRANCH  16  29
ATOM     29  C   LIG A   1     -10.825   4.909 130.590  0.00  0.00    +0.317 C 
ATOM     30  O   LIG A   1     -11.655   4.891 129.695  0.00  0.00    -0.250 OA
BRANCH  29  31
ATOM     31  O   LIG A   1     -10.885   5.729 131.686  0.00  0.00    -0.467 OA
ATOM     32  C   LIG A   1     -11.911   6.714 131.635  0.00  0.00    +0.280 C 
ENDBRANCH  29  31
ENDBRANCH  16  29
BRANCH   3  33
ATOM     33  C   LIG A   1      -5.641   3.210 131.344  0.00  0.00    +0.126 C 
BRANCH  33  34
ATOM     34  C   LIG A   1      -4.776   1.986 131.593  0.00  0.00    +0.307 C 
ATOM     35  O   LIG A   1      -3.624   2.052 131.980  0.00  0.00    -0.251 OA
BRANCH  34  36
ATOM     36  O   LIG A   1      -5.468   0.852 131.321  0.00  0.00    -0.468 OA
ATOM     37  C   LIG A   1      -6.314   0.924 130.168  0.00  0.00    +0.280 C 
ENDBRANCH  34  36
ENDBRANCH  33  34
ENDBRANCH   3  33
TORSDOF 7
ENDMDL
MODEL 3
REMARK VINA RESULT:      -7.9      6.505     10.453
REMARK  Name = NuBBE_1452
REMARK  13 active torsions:
REMARK  status: ('A' for Active; 'I' for Inactive)
REMARK    1  A    between atoms: C_1  and  C_2
REMARK    2  A    between atoms: C_3  and  C_5
REMARK    3  A    between atoms: C_5  and  C_6
REMARK    4  A    between atoms: C_6  and  O_8
REMARK    5  A    between atoms: O_8  and  C_9
REMARK    6  A    between atoms: C_10  and  C_11
REMARK    7  A    between atoms: C_14  and  O_32
REMARK    8  A    between atoms: C_22  and  C_23
REMARK    9  A    between atoms: C_24  and  C_27
REMARK   10  A    between atoms: C_33  and  C_34
REMARK   11  A    between atoms: C_33  and  C_38
REMARK   12  A    between atoms: C_34  and  O_36
REMARK   13  A    between atoms: O_36  and  C_37
REMARK                            x       y       z     vdW  Elec       q    Type
REMARK                         _______ _______ _______ _____ _____    ______ ____
ROOT
ATOM      1  C   LIG A   1      -7.719  -0.100 129.400  0.00  0.00    +0.019 C 
ATOM      2  C   LIG A   1      -7.208  -0.673 128.048  0.00  0.00    +0.024 C 
ATOM      3  C   LIG A   1      -8.331  -0.665 126.929  0.00  0.00    +0.026 C 
ATOM      4  C   LIG A   1      -8.518   0.790 126.306  0.00  0.00    +0.041 C 
ATOM      5  C   LIG A   1      -8.975   1.818 127.401  0.00  0.00    +0.020 C 
ATOM      6  C   LIG A   1      -7.185   1.346 125.695  0.00  0.00    +0.054 C 
ATOM      7  C   LIG A   1      -5.924   0.565 126.126  0.00  0.00    +0.149 C 
ATOM      8  C   LIG A   1      -5.950   0.139 127.606  0.00  0.00    +0.158 C 
ATOM      9  O   LIG A   1      -4.761  -0.666 127.854  0.00  0.00    -0.366 OA
ATOM     10  C   LIG A   1      -5.165  -2.028 127.876  0.00  0.00    +0.146 C 
ATOM     11  C   LIG A   1      -6.554  -1.991 128.382  0.00  0.00    -0.033 C 
ATOM     12  C   LIG A   1      -6.795  -2.949 129.294  0.00  0.00    -0.063 C 
ATOM     13  C   LIG A   1      -8.063  -3.211 130.037  0.00  0.00    +0.040 C 
ATOM     14  C   LIG A   1      -5.518  -3.715 129.606  0.00  0.00    +0.051 C 
ATOM     15  C   LIG A   1      -4.429  -2.865 128.908  0.00  0.00    +0.048 C 
ATOM     16  C   LIG A   1      -7.192   1.764 124.170  0.00  0.00    +0.089 C 
ATOM     17  C   LIG A   1      -6.478   0.771 123.237  0.00  0.00    +0.027 C 
ATOM     18  C   LIG A   1      -8.572   1.971 123.587  0.00  0.00    -0.005 C 
ATOM     19  C   LIG A   1      -9.720   1.565 124.126  0.00  0.00    +0.044 C 
ATOM     20  C   LIG A   1      -9.760   0.850 125.408  0.00  0.00    +0.162 C 
ATOM     21  O   LIG A   1     -10.847   0.407 125.783  0.00  0.00    -0.292 OA
ENDROOT
BRANCH  14  22
ATOM     22  C   LIG A   1      -5.214  -3.867 131.073  0.00  0.00    -0.003 A 
ATOM     23  C   LIG A   1      -5.302  -5.037 131.891  0.00  0.00    +0.045 A 
ATOM     24  C   LIG A   1      -4.922  -4.668 133.159  0.00  0.00    +0.195 A 
ATOM     25  O   LIG A   1      -4.639  -3.342 133.196  0.00  0.00    -0.471 OA
ATOM     26  C   LIG A   1      -4.826  -2.863 131.940  0.00  0.00    +0.199 A 
ENDBRANCH  14  22
BRANCH   7  27
ATOM     27  O   LIG A   1      -4.785   1.415 125.929  0.00  0.00    -0.389 OA
ATOM     28  H   LIG A   1      -4.834   1.725 125.002  0.00  0.00    +0.210 HD
ENDBRANCH   7  27
BRANCH  16  29
ATOM     29  C   LIG A   1      -6.488   3.145 124.059  0.00  0.00    +0.317 C 
ATOM     30  O   LIG A   1      -5.869   3.560 123.092  0.00  0.00    -0.250 OA
BRANCH  29  31
ATOM     31  O   LIG A   1      -6.674   3.847 125.221  0.00  0.00    -0.467 OA
ATOM     32  C   LIG A   1      -5.804   4.961 125.386  0.00  0.00    +0.280 C 
ENDBRANCH  29  31
ENDBRANCH  16  29
BRANCH   3  33
ATOM     33  C   LIG A   1      -8.099  -1.798 125.876  0.00  0.00    +0.126 C 
BRANCH  33  34
ATOM     34  C   LIG A   1      -9.118  -2.922 125.818  0.00  0.00    +0.307 C 
ATOM     35  O   LIG A   1      -9.321  -3.687 126.743  0.00  0.00    -0.251 OA
BRANCH  34  36
ATOM     36  O   LIG A   1      -9.740  -2.938 124.612  0.00  0.00    -0.468 OA
ATOM     37  C   LIG A   1      -9.013  -2.312 123.551  0.00  0.00    +0.280 C 
ENDBRANCH  34  36
ENDBRANCH  33  34
ENDBRANCH   3  33
TORSDOF 7
ENDMDL
MODEL 4
REMARK VINA RESULT:      -7.7      3.317      8.180
REMARK  Name = NuBBE_1452
REMARK  13 active torsions:
REMARK  status: ('A' for Active; 'I' for Inactive)
REMARK    1  A    between atoms: C_1  and  C_2
REMARK    2  A    between atoms: C_3  and  C_5
REMARK    3  A    between atoms: C_5  and  C_6
REMARK    4  A    between atoms: C_6  and  O_8
REMARK    5  A    between atoms: O_8  and  C_9
REMARK    6  A    between atoms: C_10  and  C_11
REMARK    7  A    between atoms: C_14  and  O_32
REMARK    8  A    between atoms: C_22  and  C_23
REMARK    9  A    between atoms: C_24  and  C_27
REMARK   10  A    between atoms: C_33  and  C_34
REMARK   11  A    between atoms: C_33  and  C_38
REMARK   12  A    between atoms: C_34  and  O_36
REMARK   13  A    between atoms: O_36  and  C_37
REMARK                            x       y       z     vdW  Elec       q    Type
REMARK                         _______ _______ _______ _____ _____    ______ ____
ROOT
ATOM      1  C   LIG A   1      -6.993   1.243 129.136  0.00  0.00    +0.019 C 
ATOM      2  C   LIG A   1      -7.349   1.712 130.575  0.00  0.00    +0.024 C 
ATOM      3  C   LIG A   1      -6.788   3.161 130.891  0.00  0.00    +0.026 C 
ATOM      4  C   LIG A   1      -7.701   4.291 130.237  0.00  0.00    +0.041 C 
ATOM      5  C   LIG A   1      -7.730   4.158 128.673  0.00  0.00    +0.020 C 
ATOM      6  C   LIG A   1      -9.189   4.203 130.724  0.00  0.00    +0.054 C 
ATOM      7  C   LIG A   1      -9.541   2.872 131.425  0.00  0.00    +0.149 C 
ATOM      8  C   LIG A   1      -8.898   1.644 130.753  0.00  0.00    +0.158 C 
ATOM      9  O   LIG A   1      -9.227   0.477 131.562  0.00  0.00    -0.366 OA
ATOM     10  C   LIG A   1      -8.076   0.153 132.331  0.00  0.00    +0.146 C 
ATOM     11  C   LIG A   1      -6.939   0.582 131.488  0.00  0.00    -0.033 C 
ATOM     12  C   LIG A   1      -5.944  -0.321 131.467  0.00  0.00    -0.063 C 
ATOM     13  C   LIG A   1      -4.654  -0.249 130.718  0.00  0.00    +0.040 C 
ATOM     14  C   LIG A   1      -6.346  -1.569 132.239  0.00  0.00    +0.051 C 
ATOM     15  C   LIG A   1      -7.856  -1.341 132.496  0.00  0.00    +0.048 C 
ATOM     16  C   LIG A   1      -9.813   5.479 131.418  0.00  0.00    +0.089 C 
ATOM     17  C   LIG A   1      -9.958   5.364 132.945  0.00  0.00    +0.027 C 
ATOM     18  C   LIG A   1      -9.054   6.762 131.163  0.00  0.00    -0.005 C 
ATOM     19  C   LIG A   1      -7.814   6.858 130.686  0.00  0.00    +0.044 C 
ATOM     20  C   LIG A   1      -7.029   5.667 130.333  0.00  0.00    +0.162 C 
ATOM     21  O   LIG A   1      -5.853   5.832 130.008  0.00  0.00    -0.292 OA
ENDROOT
BRANCH  14  22
ATOM     22  C   LIG A   1      -6.122  -2.866 131.507  0.00  0.00    -0.003 A 
ATOM     23  C   LIG A   1      -5.139  -3.875 131.751  0.00  0.00    +0.045 A 
ATOM     24  C   LIG A   1      -5.341  -4.863 130.817  0.00  0.00    +0.195 A 
ATOM     25  O   LIG A   1      -6.356  -4.522 129.986  0.00  0.00    -0.471 OA
ATOM     26  C   LIG A   1      -6.818  -3.315 130.400  0.00  0.00    +0.199 A 
ENDBRANCH  14  22
BRANCH   7  27
ATOM     27  O   LIG A   1     -10.966   2.708 131.377  0.00  0.00    -0.389 OA
ATOM     28  H   LIG A   1     -11.281   3.278 130.647  0.00  0.00    +0.210 HD
ENDBRANCH   7  27
BRANCH  16  29
ATOM     29  C   LIG A   1     -11.221   5.707 130.801  0.00  0.00    +0.317 C 
ATOM     30  O   LIG A   1     -11.579   5.376 129.682  0.00  0.00    -0.250 OA
BRANCH  29  31
ATOM     31  O   LIG A   1     -12.023   6.339 131.716  0.00  0.00    -0.467 OA
ATOM     32  C   LIG A   1     -12.815   7.394 131.181  0.00  0.00    +0.280 C 
ENDBRANCH  29  31
ENDBRANCH  16  29
BRANCH   3  33
ATOM     33  C   LIG A   1      -6.515   3.349 132.420  0.00  0.00    +0.126 C 
BRANCH  33  34
ATOM     34  C   LIG A   1      -5.081   3.601 132.852  0.00  0.00    +0.307 C 
ATOM     35  O   LIG A   1      -4.193   2.778 132.728  0.00  0.00    -0.251 OA
BRANCH  34  36
ATOM     36  O   LIG A   1      -4.956   4.843 133.383  0.00  0.00    -0.468 OA
ATOM     37  C   LIG A   1      -6.174   5.417 133.868  0.00  0.00    +0.280 C 
ENDBRANCH  34  36
ENDBRANCH  33  34
ENDBRANCH   3  33
TORSDOF 7
ENDMDL
MODEL 5
REMARK VINA RESULT:      -7.5      3.532      7.396
REMARK  Name = NuBBE_1452
REMARK  13 active torsions:
REMARK  status: ('A' for Active; 'I' for Inactive)
REMARK    1  A    between atoms: C_1  and  C_2
REMARK    2  A    between atoms: C_3  and  C_5
REMARK    3  A    between atoms: C_5  and  C_6
REMARK    4  A    between atoms: C_6  and  O_8
REMARK    5  A    between atoms: O_8  and  C_9
REMARK    6  A    between atoms: C_10  and  C_11
REMARK    7  A    between atoms: C_14  and  O_32
REMARK    8  A    between atoms: C_22  and  C_23
REMARK    9  A    between atoms: C_24  and  C_27
REMARK   10  A    between atoms: C_33  and  C_34
REMARK   11  A    between atoms: C_33  and  C_38
REMARK   12  A    between atoms: C_34  and  O_36
REMARK   13  A    between atoms: O_36  and  C_37
REMARK                            x       y       z     vdW  Elec       q    Type
REMARK                         _______ _______ _______ _____ _____    ______ ____
ROOT
ATOM      1  C   LIG A   1      -5.519   1.431 127.808  0.00  0.00    +0.019 C 
ATOM      2  C   LIG A   1      -6.947   1.608 128.397  0.00  0.00    +0.024 C 
ATOM      3  C   LIG A   1      -6.959   1.511 129.980  0.00  0.00    +0.026 C 
ATOM      4  C   LIG A   1      -6.455   2.868 130.647  0.00  0.00    +0.041 C 
ATOM      5  C   LIG A   1      -4.974   3.184 130.233  0.00  0.00    +0.020 C 
ATOM      6  C   LIG A   1      -7.318   4.100 130.204  0.00  0.00    +0.054 C 
ATOM      7  C   LIG A   1      -8.216   3.827 128.977  0.00  0.00    +0.149 C 
ATOM      8  C   LIG A   1      -7.527   2.969 127.900  0.00  0.00    +0.158 C 
ATOM      9  O   LIG A   1      -8.506   2.706 126.853  0.00  0.00    -0.366 OA
ATOM     10  C   LIG A   1      -8.978   1.377 127.032  0.00  0.00    +0.146 C 
ATOM     11  C   LIG A   1      -7.830   0.658 127.626  0.00  0.00    -0.033 C 
ATOM     12  C   LIG A   1      -7.642  -0.554 127.075  0.00  0.00    -0.063 C 
ATOM     13  C   LIG A   1      -6.580  -1.553 127.396  0.00  0.00    +0.040 C 
ATOM     14  C   LIG A   1      -8.613  -0.768 125.923  0.00  0.00    +0.051 C 
ATOM     15  C   LIG A   1      -9.229   0.639 125.729  0.00  0.00    +0.048 C 
ATOM     16  C   LIG A   1      -8.019   4.953 131.336  0.00  0.00    +0.089 C 
ATOM     17  C   LIG A   1      -9.535   4.721 131.458  0.00  0.00    +0.027 C 
ATOM     18  C   LIG A   1      -7.448   4.741 132.720  0.00  0.00    -0.005 C 
ATOM     19  C   LIG A   1      -6.658   3.737 133.097  0.00  0.00    +0.044 C 
ATOM     20  C   LIG A   1      -6.235   2.693 132.155  0.00  0.00    +0.162 C 
ATOM     21  O   LIG A   1      -5.600   1.738 132.605  0.00  0.00    -0.292 OA
ENDROOT
BRANCH  14  22
ATOM     22  C   LIG A   1      -7.982  -1.252 124.645  0.00  0.00    -0.003 A 
ATOM     23  C   LIG A   1      -6.898  -0.682 123.908  0.00  0.00    +0.045 A 
ATOM     24  C   LIG A   1      -6.691  -1.488 122.814  0.00  0.00    +0.195 A 
ATOM     25  O   LIG A   1      -7.595  -2.499 122.799  0.00  0.00    -0.471 OA
ATOM     26  C   LIG A   1      -8.376  -2.347 123.898  0.00  0.00    +0.199 A 
ENDBRANCH  14  22
BRANCH   7  27
ATOM     27  O   LIG A   1      -8.557   5.090 128.386  0.00  0.00    -0.389 OA
ATOM     28  H   LIG A   1      -8.780   5.686 129.129  0.00  0.00    +0.210 HD
ENDBRANCH   7  27
BRANCH  16  29
ATOM     29  C   LIG A   1      -7.770   6.453 131.015  0.00  0.00    +0.317 C 
ATOM     30  O   LIG A   1      -8.488   7.174 130.340  0.00  0.00    -0.250 OA
BRANCH  29  31
ATOM     31  O   LIG A   1      -6.609   6.861 131.618  0.00  0.00    -0.467 OA
ATOM     32  C   LIG A   1      -5.564   7.212 130.718  0.00  0.00    +0.280 C 
ENDBRANCH  29  31
ENDBRANCH  16  29
BRANCH   3  33
ATOM     33  C   LIG A   1      -8.338   0.998 130.512  0.00  0.00    +0.126 C 
BRANCH  33  34
ATOM     34  C   LIG A   1      -8.343  -0.281 131.330  0.00  0.00    +0.307 C 
ATOM     35  O   LIG A   1      -8.415  -0.295 132.545  0.00  0.00    -0.251 OA
BRANCH  34  36
ATOM     36  O   LIG A   1      -8.254  -1.365 130.519  0.00  0.00    -0.468 OA
ATOM     37  C   LIG A   1      -7.393  -2.405 130.995  0.00  0.00    +0.280 C 
ENDBRANCH  34  36
ENDBRANCH  33  34
ENDBRANCH   3  33
TORSDOF 7
ENDMDL
MODEL 6
REMARK VINA RESULT:      -7.5      4.163      7.651
REMARK  Name = NuBBE_1452
REMARK  13 active torsions:
REMARK  status: ('A' for Active; 'I' for Inactive)
REMARK    1  A    between atoms: C_1  and  C_2
REMARK    2  A    between atoms: C_3  and  C_5
REMARK    3  A    between atoms: C_5  and  C_6
REMARK    4  A    between atoms: C_6  and  O_8
REMARK    5  A    between atoms: O_8  and  C_9
REMARK    6  A    between atoms: C_10  and  C_11
REMARK    7  A    between atoms: C_14  and  O_32
REMARK    8  A    between atoms: C_22  and  C_23
REMARK    9  A    between atoms: C_24  and  C_27
REMARK   10  A    between atoms: C_33  and  C_34
REMARK   11  A    between atoms: C_33  and  C_38
REMARK   12  A    between atoms: C_34  and  O_36
REMARK   13  A    between atoms: O_36  and  C_37
REMARK                            x       y       z     vdW  Elec       q    Type
REMARK                         _______ _______ _______ _____ _____    ______ ____
ROOT
ATOM      1  C   LIG A   1      -8.306   0.764 128.455  0.00  0.00    +0.019 C 
ATOM      2  C   LIG A   1      -7.218   1.611 127.735  0.00  0.00    +0.024 C 
ATOM      3  C   LIG A   1      -7.400   3.165 127.989  0.00  0.00    +0.026 C 
ATOM      4  C   LIG A   1      -6.853   3.584 129.427  0.00  0.00    +0.041 C 
ATOM      5  C   LIG A   1      -7.645   2.852 130.567  0.00  0.00    +0.020 C 
ATOM      6  C   LIG A   1      -5.343   3.210 129.616  0.00  0.00    +0.054 C 
ATOM      7  C   LIG A   1      -4.805   2.221 128.558  0.00  0.00    +0.149 C 
ATOM      8  C   LIG A   1      -5.813   1.113 128.195  0.00  0.00    +0.158 C 
ATOM      9  O   LIG A   1      -5.224   0.315 127.126  0.00  0.00    -0.366 OA
ATOM     10  C   LIG A   1      -5.840   0.712 125.908  0.00  0.00    +0.146 C 
ATOM     11  C   LIG A   1      -7.203   1.128 126.305  0.00  0.00    -0.033 C 
ATOM     12  C   LIG A   1      -8.145   0.668 125.464  0.00  0.00    -0.063 C 
ATOM     13  C   LIG A   1      -9.623   0.862 125.548  0.00  0.00    +0.040 C 
ATOM     14  C   LIG A   1      -7.521  -0.238 124.413  0.00  0.00    +0.051 C 
ATOM     15  C   LIG A   1      -6.081  -0.437 124.945  0.00  0.00    +0.048 C 
ATOM     16  C   LIG A   1      -4.335   4.373 129.978  0.00  0.00    +0.089 C 
ATOM     17  C   LIG A   1      -3.437   4.820 128.812  0.00  0.00    +0.027 C 
ATOM     18  C   LIG A   1      -4.995   5.627 130.506  0.00  0.00    -0.005 C 
ATOM     19  C   LIG A   1      -6.289   5.931 130.414  0.00  0.00    +0.044 C 
ATOM     20  C   LIG A   1      -7.249   5.026 129.768  0.00  0.00    +0.162 C 
ATOM     21  O   LIG A   1      -8.404   5.428 129.621  0.00  0.00    -0.292 OA
ENDROOT
BRANCH  14  22
ATOM     22  C   LIG A   1      -8.208  -1.565 124.232  0.00  0.00    -0.003 A 
ATOM     23  C   LIG A   1      -9.047  -2.003 123.160  0.00  0.00    +0.045 A 
ATOM     24  C   LIG A   1      -9.432  -3.289 123.453  0.00  0.00    +0.195 A 
ATOM     25  O   LIG A   1      -8.922  -3.670 124.650  0.00  0.00    -0.471 OA
ATOM     26  C   LIG A   1      -8.194  -2.625 125.120  0.00  0.00    +0.199 A 
ENDBRANCH  14  22
BRANCH   7  27
ATOM     27  O   LIG A   1      -3.630   1.594 129.091  0.00  0.00    -0.389 OA
ATOM     28  H   LIG A   1      -3.529   0.749 128.608  0.00  0.00    +0.210 HD
ENDBRANCH   7  27
BRANCH  16  29
ATOM     29  C   LIG A   1      -3.431   3.867 131.136  0.00  0.00    +0.317 C 
ATOM     30  O   LIG A   1      -3.607   2.857 131.798  0.00  0.00    -0.250 OA
BRANCH  29  31
ATOM     31  O   LIG A   1      -2.381   4.731 131.306  0.00  0.00    -0.467 OA
ATOM     32  C   LIG A   1      -1.730   4.634 132.568  0.00  0.00    +0.280 C 
ENDBRANCH  29  31
ENDBRANCH  16  29
BRANCH   3  33
ATOM     33  C   LIG A   1      -6.829   4.010 126.804  0.00  0.00    +0.126 C 
BRANCH  33  34
ATOM     34  C   LIG A   1      -7.821   4.584 125.808  0.00  0.00    +0.307 C 
ATOM     35  O   LIG A   1      -8.670   5.403 126.108  0.00  0.00    -0.251 OA
BRANCH  34  36
ATOM     36  O   LIG A   1      -7.619   4.052 124.576  0.00  0.00    -0.468 OA
ATOM     37  C   LIG A   1      -6.261   4.075 124.125  0.00  0.00    +0.280 C 
ENDBRANCH  34  36
ENDBRANCH  33  34
ENDBRANCH   3  33
TORSDOF 7
ENDMDL
MODEL 7
REMARK VINA RESULT:      -7.4      5.671      8.944
REMARK  Name = NuBBE_1452
REMARK  13 active torsions:
REMARK  status: ('A' for Active; 'I' for Inactive)
REMARK    1  A    between atoms: C_1  and  C_2
REMARK    2  A    between atoms: C_3  and  C_5
REMARK    3  A    between atoms: C_5  and  C_6
REMARK    4  A    between atoms: C_6  and  O_8
REMARK    5  A    between atoms: O_8  and  C_9
REMARK    6  A    between atoms: C_10  and  C_11
REMARK    7  A    between atoms: C_14  and  O_32
REMARK    8  A    between atoms: C_22  and  C_23
REMARK    9  A    between atoms: C_24  and  C_27
REMARK   10  A    between atoms: C_33  and  C_34
REMARK   11  A    between atoms: C_33  and  C_38
REMARK   12  A    between atoms: C_34  and  O_36
REMARK   13  A    between atoms: O_36  and  C_37
REMARK                            x       y       z     vdW  Elec       q    Type
REMARK                         _______ _______ _______ _____ _____    ______ ____
ROOT
ATOM      1  C   LIG A   1      -7.941   0.681 129.759  0.00  0.00    +0.019 C 
ATOM      2  C   LIG A   1      -6.515   0.433 129.190  0.00  0.00    +0.024 C 
ATOM      3  C   LIG A   1      -6.470   0.551 127.609  0.00  0.00    +0.026 C 
ATOM      4  C   LIG A   1      -6.452   2.075 127.143  0.00  0.00    +0.041 C 
ATOM      5  C   LIG A   1      -7.753   2.822 127.606  0.00  0.00    +0.020 C 
ATOM      6  C   LIG A   1      -5.240   2.864 127.747  0.00  0.00    +0.054 C 
ATOM      7  C   LIG A   1      -4.541   2.137 128.918  0.00  0.00    +0.149 C 
ATOM      8  C   LIG A   1      -5.527   1.432 129.869  0.00  0.00    +0.158 C 
ATOM      9  O   LIG A   1      -4.740   0.711 130.862  0.00  0.00    -0.366 OA
ATOM     10  C   LIG A   1      -4.743  -0.662 130.495  0.00  0.00    +0.146 C 
ATOM     11  C   LIG A   1      -6.042  -0.857 129.814  0.00  0.00    -0.033 C 
ATOM     12  C   LIG A   1      -6.655  -1.992 130.191  0.00  0.00    -0.063 C 
ATOM     13  C   LIG A   1      -7.980  -2.513 129.740  0.00  0.00    +0.040 C 
ATOM     14  C   LIG A   1      -5.865  -2.679 131.295  0.00  0.00    +0.051 C 
ATOM     15  C   LIG A   1      -4.814  -1.610 131.680  0.00  0.00    +0.048 C 
ATOM     16  C   LIG A   1      -4.243   3.567 126.742  0.00  0.00    +0.089 C 
ATOM     17  C   LIG A   1      -2.894   2.847 126.578  0.00  0.00    +0.027 C 
ATOM     18  C   LIG A   1      -4.794   3.752 125.345  0.00  0.00    -0.005 C 
ATOM     19  C   LIG A   1      -5.863   3.141 124.837  0.00  0.00    +0.044 C 
ATOM     20  C   LIG A   1      -6.656   2.190 125.626  0.00  0.00    +0.162 C 
ATOM     21  O   LIG A   1      -7.559   1.581 125.051  0.00  0.00    -0.292 OA
ENDROOT
BRANCH  14  22
ATOM     22  C   LIG A   1      -6.676  -3.084 132.497  0.00  0.00    -0.003 A 
ATOM     23  C   LIG A   1      -7.761  -2.392 133.121  0.00  0.00    +0.045 A 
ATOM     24  C   LIG A   1      -8.169  -3.164 134.182  0.00  0.00    +0.195 A 
ATOM     25  O   LIG A   1      -7.390  -4.269 134.284  0.00  0.00    -0.471 OA
ATOM     26  C   LIG A   1      -6.487  -4.212 133.273  0.00  0.00    +0.199 A 
ENDBRANCH  14  22
BRANCH   7  27
ATOM     27  O   LIG A   1      -3.814   3.114 129.677  0.00  0.00    -0.389 OA
ATOM     28  H   LIG A   1      -2.878   3.028 129.406  0.00  0.00    +0.210 HD
ENDBRANCH   7  27
BRANCH  16  29
ATOM     29  C   LIG A   1      -3.979   5.004 127.271  0.00  0.00    +0.317 C 
ATOM     30  O   LIG A   1      -4.788   5.917 127.309  0.00  0.00    -0.250 OA
BRANCH  29  31
ATOM     31  O   LIG A   1      -2.683   5.099 127.706  0.00  0.00    -0.467 OA
ATOM     32  C   LIG A   1      -2.369   6.315 128.376  0.00  0.00    +0.280 C 
ENDBRANCH  29  31
ENDBRANCH  16  29
BRANCH   3  33
ATOM     33  C   LIG A   1      -5.329  -0.328 127.001  0.00  0.00    +0.126 C 
BRANCH  33  34
ATOM     34  C   LIG A   1      -5.724  -1.397 125.997  0.00  0.00    +0.307 C 
ATOM     35  O   LIG A   1      -5.310  -1.423 124.853  0.00  0.00    -0.251 OA
BRANCH  34  36
ATOM     36  O   LIG A   1      -6.585  -2.282 126.560  0.00  0.00    -0.468 OA
ATOM     37  C   LIG A   1      -7.720  -2.614 125.754  0.00  0.00    +0.280 C 
ENDBRANCH  34  36
ENDBRANCH  33  34
ENDBRANCH   3  33
TORSDOF 7
ENDMDL
MODEL 8
REMARK VINA RESULT:      -7.4      2.580      4.140
REMARK  Name = NuBBE_1452
REMARK  13 active torsions:
REMARK  status: ('A' for Active; 'I' for Inactive)
REMARK    1  A    between atoms: C_1  and  C_2
REMARK    2  A    between atoms: C_3  and  C_5
REMARK    3  A    between atoms: C_5  and  C_6
REMARK    4  A    between atoms: C_6  and  O_8
REMARK    5  A    between atoms: O_8  and  C_9
REMARK    6  A    between atoms: C_10  and  C_11
REMARK    7  A    between atoms: C_14  and  O_32
REMARK    8  A    between atoms: C_22  and  C_23
REMARK    9  A    between atoms: C_24  and  C_27
REMARK   10  A    between atoms: C_33  and  C_34
REMARK   11  A    between atoms: C_33  and  C_38
REMARK   12  A    between atoms: C_34  and  O_36
REMARK   13  A    between atoms: O_36  and  C_37
REMARK                            x       y       z     vdW  Elec       q    Type
REMARK                         _______ _______ _______ _____ _____    ______ ____
ROOT
ATOM      1  C   LIG A   1      -8.121   4.736 133.427  0.00  0.00    +0.019 C 
ATOM      2  C   LIG A   1      -7.905   3.774 132.224  0.00  0.00    +0.024 C 
ATOM      3  C   LIG A   1      -6.369   3.514 131.931  0.00  0.00    +0.026 C 
ATOM      4  C   LIG A   1      -5.755   2.459 132.956  0.00  0.00    +0.041 C 
ATOM      5  C   LIG A   1      -5.841   2.989 134.431  0.00  0.00    +0.020 C 
ATOM      6  C   LIG A   1      -6.519   1.091 132.924  0.00  0.00    +0.054 C 
ATOM      7  C   LIG A   1      -7.885   1.153 132.205  0.00  0.00    +0.149 C 
ATOM      8  C   LIG A   1      -8.671   2.444 132.506  0.00  0.00    +0.158 C 
ATOM      9  O   LIG A   1      -9.883   2.420 131.696  0.00  0.00    -0.366 OA
ATOM     10  C   LIG A   1      -9.674   3.286 130.589  0.00  0.00    +0.146 C 
ATOM     11  C   LIG A   1      -8.753   4.323 131.103  0.00  0.00    -0.033 C 
ATOM     12  C   LIG A   1      -9.109   5.562 130.721  0.00  0.00    -0.063 C 
ATOM     13  C   LIG A   1      -8.440   6.854 131.058  0.00  0.00    +0.040 C 
ATOM     14  C   LIG A   1     -10.425   5.523 129.959  0.00  0.00    +0.051 C 
ATOM     15  C   LIG A   1     -10.911   4.072 130.189  0.00  0.00    +0.048 C 
ATOM     16  C   LIG A   1      -5.684  -0.213 132.604  0.00  0.00    +0.089 C 
ATOM     17  C   LIG A   1      -5.896  -0.769 131.185  0.00  0.00    +0.027 C 
ATOM     18  C   LIG A   1      -4.190  -0.053 132.773  0.00  0.00    -0.005 C 
ATOM     19  C   LIG A   1      -3.530   1.100 132.871  0.00  0.00    +0.044 C 
ATOM     20  C   LIG A   1      -4.227   2.393 132.830  0.00  0.00    +0.162 C 
ATOM     21  O   LIG A   1      -3.539   3.414 132.811  0.00  0.00    -0.292 OA
ENDROOT
BRANCH  14  22
ATOM     22  C   LIG A   1     -11.459   6.510 130.432  0.00  0.00    -0.003 A 
ATOM     23  C   LIG A   1     -11.961   7.672 129.765  0.00  0.00    +0.045 A 
ATOM     24  C   LIG A   1     -12.888   8.244 130.603  0.00  0.00    +0.195 A 
ATOM     25  O   LIG A   1     -12.971   7.541 131.760  0.00  0.00    -0.471 OA
ATOM     26  C   LIG A   1     -12.102   6.504 131.656  0.00  0.00    +0.199 A 
ENDBRANCH  14  22
BRANCH   7  27
ATOM     27  O   LIG A   1      -8.674   0.040 132.652  0.00  0.00    -0.389 OA
ATOM     28  H   LIG A   1      -9.406   0.420 133.178  0.00  0.00    +0.210 HD
ENDBRANCH   7  27
BRANCH  16  29
ATOM     29  C   LIG A   1      -6.099  -1.301 133.631  0.00  0.00    +0.317 C 
ATOM     30  O   LIG A   1      -6.748  -1.120 134.649  0.00  0.00    -0.250 OA
BRANCH  29  31
ATOM     31  O   LIG A   1      -5.630  -2.521 133.218  0.00  0.00    -0.467 OA
ATOM     32  C   LIG A   1      -5.552  -3.505 134.244  0.00  0.00    +0.280 C 
ENDBRANCH  29  31
ENDBRANCH  16  29
BRANCH   3  33
ATOM     33  C   LIG A   1      -6.122   3.175 130.424  0.00  0.00    +0.126 C 
BRANCH  33  34
ATOM     34  C   LIG A   1      -5.308   4.163 129.607  0.00  0.00    +0.307 C 
ATOM     35  O   LIG A   1      -5.740   5.239 129.238  0.00  0.00    -0.251 OA
BRANCH  34  36
ATOM     36  O   LIG A   1      -4.069   3.668 129.360  0.00  0.00    -0.468 OA
ATOM     37  C   LIG A   1      -4.021   2.259 129.112  0.00  0.00    +0.280 C 
ENDBRANCH  34  36
ENDBRANCH  33  34
ENDBRANCH   3  33
TORSDOF 7
ENDMDL
MODEL 9
REMARK VINA RESULT:      -7.3      4.865      9.788
REMARK  Name = NuBBE_1452
REMARK  13 active torsions:
REMARK  status: ('A' for Active; 'I' for Inactive)
REMARK    1  A    between atoms: C_1  and  C_2
REMARK    2  A    between atoms: C_3  and  C_5
REMARK    3  A    between atoms: C_5  and  C_6
REMARK    4  A    between atoms: C_6  and  O_8
REMARK    5  A    between atoms: O_8  and  C_9
REMARK    6  A    between atoms: C_10  and  C_11
REMARK    7  A    between atoms: C_14  and  O_32
REMARK    8  A    between atoms: C_22  and  C_23
REMARK    9  A    between atoms: C_24  and  C_27
REMARK   10  A    between atoms: C_33  and  C_34
REMARK   11  A    between atoms: C_33  and  C_38
REMARK   12  A    between atoms: C_34  and  O_36
REMARK   13  A    between atoms: O_36  and  C_37
REMARK                            x       y       z     vdW  Elec       q    Type
REMARK                         _______ _______ _______ _____ _____    ______ ____
ROOT
ATOM      1  C   LIG A   1      -4.903   0.256 129.182  0.00  0.00    +0.019 C 
ATOM      2  C   LIG A   1      -6.368   0.251 128.658  0.00  0.00    +0.024 C 
ATOM      3  C   LIG A   1      -6.972   1.713 128.552  0.00  0.00    +0.026 C 
ATOM      4  C   LIG A   1      -6.449   2.463 127.246  0.00  0.00    +0.041 C 
ATOM      5  C   LIG A   1      -4.888   2.629 127.278  0.00  0.00    +0.020 C 
ATOM      6  C   LIG A   1      -6.791   1.673 125.935  0.00  0.00    +0.054 C 
ATOM      7  C   LIG A   1      -7.222   0.210 126.180  0.00  0.00    +0.149 C 
ATOM      8  C   LIG A   1      -6.404  -0.487 127.284  0.00  0.00    +0.158 C 
ATOM      9  O   LIG A   1      -6.972  -1.816 127.480  0.00  0.00    -0.366 OA
ATOM     10  C   LIG A   1      -7.765  -1.771 128.659  0.00  0.00    +0.146 C 
ATOM     11  C   LIG A   1      -7.104  -0.756 129.508  0.00  0.00    -0.033 C 
ATOM     12  C   LIG A   1      -7.010  -1.141 130.792  0.00  0.00    -0.063 C 
ATOM     13  C   LIG A   1      -6.392  -0.399 131.930  0.00  0.00    +0.040 C 
ATOM     14  C   LIG A   1      -7.521  -2.565 130.956  0.00  0.00    +0.051 C 
ATOM     15  C   LIG A   1      -7.689  -3.039 129.492  0.00  0.00    +0.048 C 
ATOM     16  C   LIG A   1      -7.639   2.416 124.828  0.00  0.00    +0.089 C 
ATOM     17  C   LIG A   1      -9.107   1.963 124.744  0.00  0.00    +0.027 C 
ATOM     18  C   LIG A   1      -7.671   3.921 124.972  0.00  0.00    -0.005 C 
ATOM     19  C   LIG A   1      -7.320   4.613 126.055  0.00  0.00    +0.044 C 
ATOM     20  C   LIG A   1      -6.834   3.947 127.271  0.00  0.00    +0.162 C 
ATOM     21  O   LIG A   1      -6.640   4.646 128.266  0.00  0.00    -0.292 OA
ENDROOT
BRANCH  14  22
ATOM     22  C   LIG A   1      -6.599  -3.486 131.709  0.00  0.00    -0.003 A 
ATOM     23  C   LIG A   1      -5.560  -4.328 131.202  0.00  0.00    +0.045 A 
ATOM     24  C   LIG A   1      -5.006  -4.973 132.281  0.00  0.00    +0.195 A 
ATOM     25  O   LIG A   1      -5.651  -4.620 133.420  0.00  0.00    -0.471 OA
ATOM     26  C   LIG A   1      -6.615  -3.732 133.070  0.00  0.00    +0.199 A 
ENDBRANCH  14  22
BRANCH   7  27
ATOM     27  O   LIG A   1      -7.031  -0.520 124.959  0.00  0.00    -0.389 OA
ATOM     28  H   LIG A   1      -7.759  -0.251 124.364  0.00  0.00    +0.210 HD
ENDBRANCH   7  27
BRANCH  16  29
ATOM     29  C   LIG A   1      -6.958   2.150 123.457  0.00  0.00    +0.317 C 
ATOM     30  O   LIG A   1      -7.036   1.123 122.802  0.00  0.00    -0.250 OA
BRANCH  29  31
ATOM     31  O   LIG A   1      -6.249   3.260 123.077  0.00  0.00    -0.467 OA
ATOM     32  C   LIG A   1      -6.100   3.415 121.670  0.00  0.00    +0.280 C 
ENDBRANCH  29  31
ENDBRANCH  16  29
BRANCH   3  33
ATOM     33  C   LIG A   1      -8.528   1.703 128.717  0.00  0.00    +0.126 C 
BRANCH  33  34
ATOM     34  C   LIG A   1      -9.121   2.548 129.831  0.00  0.00    +0.307 C 
ATOM     35  O   LIG A   1      -9.886   3.474 129.630  0.00  0.00    -0.251 OA
BRANCH  34  36
ATOM     36  O   LIG A   1      -8.675   2.123 131.039  0.00  0.00    -0.468 OA
ATOM     37  C   LIG A   1      -9.685   1.587 131.900  0.00  0.00    +0.280 C 
ENDBRANCH  34  36
ENDBRANCH  33  34
ENDBRANCH   3  33
TORSDOF 7
ENDMDL
