MODEL 1
REMARK VINA RESULT:      -7.3      0.000      0.000
REMARK  Name = NuBBE_1103
REMARK  15 active torsions:
REMARK  status: ('A' for Active; 'I' for Inactive)
REMARK    1  A    between atoms: C_1  and  C_2
REMARK    2  A    between atoms: C_2  and  C_3
REMARK    3  A    between atoms: C_7  and  C_8
REMARK    4  A    between atoms: C_10  and  O_11
REMARK    5  A    between atoms: O_11  and  C_12
REMARK    6  A    between atoms: C_12  and  C_13
REMARK    7  A    between atoms: C_16  and  O_18
REMARK    8  A    between atoms: O_18  and  C_19
REMARK    9  A    between atoms: C_19  and  C_20
REMARK   10  A    between atoms: C_22  and  C_23
REMARK   11  A    between atoms: C_28  and  C_30
REMARK   12  A    between atoms: C_38  and  C_39
REMARK   13  A    between atoms: C_39  and  C_40
REMARK   14  A    between atoms: C_40  and  O_41
REMARK   15  A    between atoms: O_41  and  C_42
REMARK                            x       y       z     vdW  Elec       q    Type
REMARK                         _______ _______ _______ _____ _____    ______ ____
ROOT
ATOM      1  C   LIG A   1      -6.630   2.724 128.141  0.00  0.00    +0.069 C 
ATOM      2  C   LIG A   1      -6.895   4.195 128.580  0.00  0.00    +0.225 C 
ATOM      3  C   LIG A   1      -8.257   4.314 129.304  0.00  0.00    +0.227 C 
ATOM      4  C   LIG A   1      -8.558   3.375 130.526  0.00  0.00    +0.051 C 
ATOM      5  C   LIG A   1     -10.119   3.163 130.407  0.00  0.00    +0.019 C 
ATOM      6  C   LIG A   1      -7.788   2.028 130.352  0.00  0.00    +0.126 C 
ATOM      7  C   LIG A   1      -7.771   1.347 131.700  0.00  0.00    +0.157 C 
ATOM      8  C   LIG A   1      -8.420   2.240 132.714  0.00  0.00    +0.044 C 
ATOM      9  C   LIG A   1      -8.360   3.679 132.067  0.00  0.00    +0.037 C 
ATOM     10  O   LIG A   1      -8.591   0.870 130.635  0.00  0.00    -0.359 OA
ATOM     11  C   LIG A   1      -6.562   1.969 129.492  0.00  0.00    -0.035 C 
ATOM     12  C   LIG A   1      -5.374   1.434 129.844  0.00  0.00    +0.011 C 
ENDROOT
BRANCH   1  19
ATOM     13  C   LIG A   1      -8.747   2.265 123.211  0.00  0.00    +0.019 C 
ATOM     14  C   LIG A   1      -8.536   1.686 124.630  0.00  0.00    +0.031 C 
ATOM     15  C   LIG A   1      -9.945   1.306 125.143  0.00  0.00    +0.019 C 
ATOM     16  C   LIG A   1      -7.749   0.379 124.533  0.00  0.00    +0.162 C 
ATOM     17  C   LIG A   1      -7.251  -0.193 125.806  0.00  0.00    +0.043 C 
ATOM     18  C   LIG A   1      -7.232   0.535 126.932  0.00  0.00    -0.019 C 
ATOM     19  C   LIG A   1      -7.594   2.015 127.073  0.00  0.00    +0.027 C 
ATOM     20  C   LIG A   1      -7.748   2.657 125.625  0.00  0.00    +0.020 C 
ATOM     21  O   LIG A   1      -7.549  -0.223 123.487  0.00  0.00    -0.292 OA
BRANCH  20  22
ATOM     22  C   LIG A   1      -6.430   3.208 125.002  0.00  0.00    +0.125 C 
BRANCH  22  23
ATOM     23  C   LIG A   1      -6.358   4.708 124.761  0.00  0.00    +0.307 C 
ATOM     24  O   LIG A   1      -6.872   5.542 125.466  0.00  0.00    -0.251 OA
BRANCH  23  25
ATOM     25  O   LIG A   1      -5.593   4.977 123.660  0.00  0.00    -0.468 OA
ATOM     26  C   LIG A   1      -5.675   3.976 122.642  0.00  0.00    +0.280 C 
ENDBRANCH  23  25
ENDBRANCH  22  23
ENDBRANCH  20  22
ENDBRANCH   1  19
BRANCH   9  27
ATOM     27  C   LIG A   1      -7.139   4.424 132.522  0.00  0.00    -0.006 A 
ATOM     28  C   LIG A   1      -6.926   5.787 132.569  0.00  0.00    +0.198 A 
ATOM     29  O   LIG A   1      -5.669   6.076 132.990  0.00  0.00    -0.471 OA
ATOM     30  C   LIG A   1      -5.045   4.895 133.209  0.00  0.00    +0.195 A 
ATOM     31  C   LIG A   1      -5.876   3.852 132.878  0.00  0.00    +0.045 A 
ENDBRANCH   9  27
BRANCH   2  32
ATOM     32  O   LIG A   1      -5.844   4.586 129.493  0.00  0.00    -0.457 OA
BRANCH  32  33
ATOM     33  C   LIG A   1      -4.745   5.142 129.002  0.00  0.00    +0.304 C 
ATOM     34  C   LIG A   1      -3.481   4.710 129.709  0.00  0.00    +0.136 C 
ATOM     35  O   LIG A   1      -4.728   5.853 127.977  0.00  0.00    -0.251 OA
ENDBRANCH  32  33
ENDBRANCH   2  32
BRANCH   3  36
ATOM     36  O   LIG A   1      -8.592   5.713 129.459  0.00  0.00    -0.457 OA
BRANCH  36  37
ATOM     37  C   LIG A   1      -9.623   6.099 128.636  0.00  0.00    +0.304 C 
ATOM     38  C   LIG A   1     -10.798   6.644 129.380  0.00  0.00    +0.136 C 
ATOM     39  O   LIG A   1      -9.591   6.068 127.410  0.00  0.00    -0.251 OA
ENDBRANCH  36  37
ENDBRANCH   3  36
TORSDOF 9
ENDMDL
MODEL 2
REMARK VINA RESULT:      -7.2      1.727      2.355
REMARK  Name = NuBBE_1103
REMARK  15 active torsions:
REMARK  status: ('A' for Active; 'I' for Inactive)
REMARK    1  A    between atoms: C_1  and  C_2
REMARK    2  A    between atoms: C_2  and  C_3
REMARK    3  A    between atoms: C_7  and  C_8
REMARK    4  A    between atoms: C_10  and  O_11
REMARK    5  A    between atoms: O_11  and  C_12
REMARK    6  A    between atoms: C_12  and  C_13
REMARK    7  A    between atoms: C_16  and  O_18
REMARK    8  A    between atoms: O_18  and  C_19
REMARK    9  A    between atoms: C_19  and  C_20
REMARK   10  A    between atoms: C_22  and  C_23
REMARK   11  A    between atoms: C_28  and  C_30
REMARK   12  A    between atoms: C_38  and  C_39
REMARK   13  A    between atoms: C_39  and  C_40
REMARK   14  A    between atoms: C_40  and  O_41
REMARK   15  A    between atoms: O_41  and  C_42
REMARK                            x       y       z     vdW  Elec       q    Type
REMARK                         _______ _______ _______ _____ _____    ______ ____
ROOT
ATOM      1  C   LIG A   1      -6.587   4.071 129.282  0.00  0.00    +0.069 C 
ATOM      2  C   LIG A   1      -7.168   5.327 129.997  0.00  0.00    +0.225 C 
ATOM      3  C   LIG A   1      -8.678   5.146 130.283  0.00  0.00    +0.227 C 
ATOM      4  C   LIG A   1      -9.162   3.870 131.060  0.00  0.00    +0.051 C 
ATOM      5  C   LIG A   1     -10.585   3.612 130.424  0.00  0.00    +0.019 C 
ATOM      6  C   LIG A   1      -8.189   2.682 130.772  0.00  0.00    +0.126 C 
ATOM      7  C   LIG A   1      -8.441   1.634 131.829  0.00  0.00    +0.157 C 
ATOM      8  C   LIG A   1      -9.461   2.145 132.801  0.00  0.00    +0.044 C 
ATOM      9  C   LIG A   1      -9.435   3.712 132.611  0.00  0.00    +0.037 C 
ATOM     10  O   LIG A   1      -8.865   1.449 130.479  0.00  0.00    -0.359 OA
ATOM     11  C   LIG A   1      -6.780   2.953 130.338  0.00  0.00    -0.035 C 
ATOM     12  C   LIG A   1      -5.669   2.408 130.873  0.00  0.00    +0.011 C 
ENDROOT
BRANCH   1  19
ATOM     13  C   LIG A   1      -6.004   3.692 123.942  0.00  0.00    +0.019 C 
ATOM     14  C   LIG A   1      -6.790   3.333 125.227  0.00  0.00    +0.031 C 
ATOM     15  C   LIG A   1      -8.269   3.674 124.923  0.00  0.00    +0.019 C 
ATOM     16  C   LIG A   1      -6.736   1.822 125.449  0.00  0.00    +0.162 C 
ATOM     17  C   LIG A   1      -7.232   1.325 126.754  0.00  0.00    +0.043 C 
ATOM     18  C   LIG A   1      -7.435   2.162 127.782  0.00  0.00    -0.019 C 
ATOM     19  C   LIG A   1      -7.114   3.657 127.825  0.00  0.00    +0.027 C 
ATOM     20  C   LIG A   1      -6.243   4.042 126.550  0.00  0.00    +0.020 C 
ATOM     21  O   LIG A   1      -6.349   1.020 124.610  0.00  0.00    -0.292 OA
BRANCH  20  22
ATOM     22  C   LIG A   1      -4.703   3.874 126.725  0.00  0.00    +0.125 C 
BRANCH  22  23
ATOM     23  C   LIG A   1      -3.932   5.086 127.224  0.00  0.00    +0.307 C 
ATOM     24  O   LIG A   1      -4.409   6.180 127.399  0.00  0.00    -0.251 OA
BRANCH  23  25
ATOM     25  O   LIG A   1      -2.633   4.746 127.488  0.00  0.00    -0.468 OA
ATOM     26  C   LIG A   1      -2.224   3.517 126.884  0.00  0.00    +0.280 C 
ENDBRANCH  23  25
ENDBRANCH  22  23
ENDBRANCH  20  22
ENDBRANCH   1  19
BRANCH   9  27
ATOM     27  C   LIG A   1      -8.502   4.358 133.594  0.00  0.00    -0.006 A 
ATOM     28  C   LIG A   1      -8.409   5.688 133.952  0.00  0.00    +0.198 A 
ATOM     29  O   LIG A   1      -7.400   5.891 134.837  0.00  0.00    -0.471 OA
ATOM     30  C   LIG A   1      -6.816   4.690 135.054  0.00  0.00    +0.195 A 
ATOM     31  C   LIG A   1      -7.409   3.728 134.271  0.00  0.00    +0.045 A 
ENDBRANCH   9  27
BRANCH   2  32
ATOM     32  O   LIG A   1      -6.471   5.489 131.254  0.00  0.00    -0.457 OA
BRANCH  32  33
ATOM     33  C   LIG A   1      -5.640   6.513 131.397  0.00  0.00    +0.304 C 
ATOM     34  C   LIG A   1      -4.646   6.333 132.521  0.00  0.00    +0.136 C 
ATOM     35  O   LIG A   1      -5.590   7.478 130.608  0.00  0.00    -0.251 OA
ENDBRANCH  32  33
ENDBRANCH   2  32
BRANCH   3  36
ATOM     36  O   LIG A   1      -9.238   6.414 130.699  0.00  0.00    -0.457 OA
BRANCH  36  37
ATOM     37  C   LIG A   1     -10.052   6.967 129.738  0.00  0.00    +0.304 C 
ATOM     38  C   LIG A   1     -11.425   7.276 130.237  0.00  0.00    +0.136 C 
ATOM     39  O   LIG A   1      -9.700   7.244 128.596  0.00  0.00    -0.251 OA
ENDBRANCH  36  37
ENDBRANCH   3  36
TORSDOF 9
ENDMDL
MODEL 3
REMARK VINA RESULT:      -7.2      2.515      4.620
REMARK  Name = NuBBE_1103
REMARK  15 active torsions:
REMARK  status: ('A' for Active; 'I' for Inactive)
REMARK    1  A    between atoms: C_1  and  C_2
REMARK    2  A    between atoms: C_2  and  C_3
REMARK    3  A    between atoms: C_7  and  C_8
REMARK    4  A    between atoms: C_10  and  O_11
REMARK    5  A    between atoms: O_11  and  C_12
REMARK    6  A    between atoms: C_12  and  C_13
REMARK    7  A    between atoms: C_16  and  O_18
REMARK    8  A    between atoms: O_18  and  C_19
REMARK    9  A    between atoms: C_19  and  C_20
REMARK   10  A    between atoms: C_22  and  C_23
REMARK   11  A    between atoms: C_28  and  C_30
REMARK   12  A    between atoms: C_38  and  C_39
REMARK   13  A    between atoms: C_39  and  C_40
REMARK   14  A    between atoms: C_40  and  O_41
REMARK   15  A    between atoms: O_41  and  C_42
REMARK                            x       y       z     vdW  Elec       q    Type
REMARK                         _______ _______ _______ _____ _____    ______ ____
ROOT
ATOM      1  C   LIG A   1      -6.118   1.726 129.985  0.00  0.00    +0.069 C 
ATOM      2  C   LIG A   1      -7.286   2.755 130.024  0.00  0.00    +0.225 C 
ATOM      3  C   LIG A   1      -7.741   3.012 131.481  0.00  0.00    +0.227 C 
ATOM      4  C   LIG A   1      -6.674   3.438 132.551  0.00  0.00    +0.051 C 
ATOM      5  C   LIG A   1      -7.247   2.785 133.871  0.00  0.00    +0.019 C 
ATOM      6  C   LIG A   1      -5.285   2.832 132.175  0.00  0.00    +0.126 C 
ATOM      7  C   LIG A   1      -4.241   3.583 132.967  0.00  0.00    +0.157 C 
ATOM      8  C   LIG A   1      -4.905   4.674 133.752  0.00  0.00    +0.044 C 
ATOM      9  C   LIG A   1      -6.286   4.900 133.021  0.00  0.00    +0.037 C 
ATOM     10  O   LIG A   1      -4.599   2.240 133.290  0.00  0.00    -0.359 OA
ATOM     11  C   LIG A   1      -4.989   2.456 130.755  0.00  0.00    -0.035 C 
ATOM     12  C   LIG A   1      -3.890   2.809 130.056  0.00  0.00    +0.011 C 
ENDROOT
BRANCH   1  19
ATOM     13  C   LIG A   1      -7.964  -3.288 129.309  0.00  0.00    +0.019 C 
ATOM     14  C   LIG A   1      -7.122  -2.275 130.122  0.00  0.00    +0.031 C 
ATOM     15  C   LIG A   1      -7.584  -2.429 131.591  0.00  0.00    +0.019 C 
ATOM     16  C   LIG A   1      -5.653  -2.696 130.090  0.00  0.00    +0.162 C 
ATOM     17  C   LIG A   1      -4.671  -1.718 130.615  0.00  0.00    +0.043 C 
ATOM     18  C   LIG A   1      -5.012  -0.438 130.828  0.00  0.00    -0.019 C 
ATOM     19  C   LIG A   1      -6.351   0.222 130.490  0.00  0.00    +0.027 C 
ATOM     20  C   LIG A   1      -7.212  -0.771 129.591  0.00  0.00    +0.020 C 
ATOM     21  O   LIG A   1      -5.261  -3.786 129.697  0.00  0.00    -0.292 OA
BRANCH  20  22
ATOM     22  C   LIG A   1      -6.959  -0.663 128.057  0.00  0.00    +0.125 C 
BRANCH  22  23
ATOM     23  C   LIG A   1      -8.092  -0.104 127.211  0.00  0.00    +0.307 C 
ATOM     24  O   LIG A   1      -8.433   1.053 127.198  0.00  0.00    -0.251 OA
BRANCH  23  25
ATOM     25  O   LIG A   1      -8.638  -1.091 126.436  0.00  0.00    -0.468 OA
ATOM     26  C   LIG A   1      -8.393  -0.928 125.038  0.00  0.00    +0.280 C 
ENDBRANCH  23  25
ENDBRANCH  22  23
ENDBRANCH  20  22
ENDBRANCH   1  19
BRANCH   9  27
ATOM     27  C   LIG A   1      -6.184   5.999 132.004  0.00  0.00    -0.006 A 
ATOM     28  C   LIG A   1      -7.199   6.689 131.372  0.00  0.00    +0.198 A 
ATOM     29  O   LIG A   1      -6.707   7.577 130.472  0.00  0.00    -0.471 OA
ATOM     30  C   LIG A   1      -5.359   7.462 130.501  0.00  0.00    +0.195 A 
ATOM     31  C   LIG A   1      -4.987   6.467 131.374  0.00  0.00    +0.045 A 
ENDBRANCH   9  27
BRANCH   2  32
ATOM     32  O   LIG A   1      -6.809   3.997 129.458  0.00  0.00    -0.457 OA
BRANCH  32  33
ATOM     33  C   LIG A   1      -7.303   4.401 128.295  0.00  0.00    +0.304 C 
ATOM     34  C   LIG A   1      -6.410   4.089 127.117  0.00  0.00    +0.136 C 
ATOM     35  O   LIG A   1      -8.447   4.878 128.159  0.00  0.00    -0.251 OA
ENDBRANCH  32  33
ENDBRANCH   2  32
BRANCH   3  36
ATOM     36  O   LIG A   1      -8.983   3.755 131.466  0.00  0.00    -0.457 OA
BRANCH  36  37
ATOM     37  C   LIG A   1     -10.048   2.987 131.061  0.00  0.00    +0.304 C 
ATOM     38  C   LIG A   1     -10.169   1.702 131.815  0.00  0.00    +0.136 C 
ATOM     39  O   LIG A   1     -10.868   3.318 130.211  0.00  0.00    -0.251 OA
ENDBRANCH  36  37
ENDBRANCH   3  36
TORSDOF 9
ENDMDL
MODEL 4
REMARK VINA RESULT:      -7.2      2.844      6.687
REMARK  Name = NuBBE_1103
REMARK  15 active torsions:
REMARK  status: ('A' for Active; 'I' for Inactive)
REMARK    1  A    between atoms: C_1  and  C_2
REMARK    2  A    between atoms: C_2  and  C_3
REMARK    3  A    between atoms: C_7  and  C_8
REMARK    4  A    between atoms: C_10  and  O_11
REMARK    5  A    between atoms: O_11  and  C_12
REMARK    6  A    between atoms: C_12  and  C_13
REMARK    7  A    between atoms: C_16  and  O_18
REMARK    8  A    between atoms: O_18  and  C_19
REMARK    9  A    between atoms: C_19  and  C_20
REMARK   10  A    between atoms: C_22  and  C_23
REMARK   11  A    between atoms: C_28  and  C_30
REMARK   12  A    between atoms: C_38  and  C_39
REMARK   13  A    between atoms: C_39  and  C_40
REMARK   14  A    between atoms: C_40  and  O_41
REMARK   15  A    between atoms: O_41  and  C_42
REMARK                            x       y       z     vdW  Elec       q    Type
REMARK                         _______ _______ _______ _____ _____    ______ ____
ROOT
ATOM      1  C   LIG A   1      -7.329   1.492 131.248  0.00  0.00    +0.069 C 
ATOM      2  C   LIG A   1      -6.258   1.224 130.150  0.00  0.00    +0.225 C 
ATOM      3  C   LIG A   1      -4.831   1.311 130.742  0.00  0.00    +0.227 C 
ATOM      4  C   LIG A   1      -4.471   0.444 132.001  0.00  0.00    +0.051 C 
ATOM      5  C   LIG A   1      -3.427   1.363 132.752  0.00  0.00    +0.019 C 
ATOM      6  C   LIG A   1      -5.753   0.220 132.865  0.00  0.00    +0.126 C 
ATOM      7  C   LIG A   1      -5.462  -0.926 133.805  0.00  0.00    +0.157 C 
ATOM      8  C   LIG A   1      -4.098  -1.473 133.512  0.00  0.00    +0.044 C 
ATOM      9  C   LIG A   1      -3.783  -0.981 132.045  0.00  0.00    +0.037 C 
ATOM     10  O   LIG A   1      -5.536   0.421 134.271  0.00  0.00    -0.359 OA
ATOM     11  C   LIG A   1      -7.110   0.318 132.236  0.00  0.00    -0.035 C 
ATOM     12  C   LIG A   1      -8.102  -0.588 132.351  0.00  0.00    +0.011 C 
ENDROOT
BRANCH   1  19
ATOM     13  C   LIG A   1      -7.882   6.848 131.171  0.00  0.00    +0.019 C 
ATOM     14  C   LIG A   1      -7.809   5.526 131.973  0.00  0.00    +0.031 C 
ATOM     15  C   LIG A   1      -6.761   5.768 133.086  0.00  0.00    +0.019 C 
ATOM     16  C   LIG A   1      -9.141   5.290 132.684  0.00  0.00    +0.162 C 
ATOM     17  C   LIG A   1      -9.334   3.960 133.307  0.00  0.00    +0.043 C 
ATOM     18  C   LIG A   1      -8.524   2.932 133.013  0.00  0.00    -0.019 C 
ATOM     19  C   LIG A   1      -7.399   2.920 131.975  0.00  0.00    +0.027 C 
ATOM     20  C   LIG A   1      -7.493   4.236 131.085  0.00  0.00    +0.020 C 
ATOM     21  O   LIG A   1     -10.017   6.136 132.795  0.00  0.00    -0.292 OA
BRANCH  20  22
ATOM     22  C   LIG A   1      -8.422   4.128 129.838  0.00  0.00    +0.125 C 
BRANCH  22  23
ATOM     23  C   LIG A   1      -7.743   4.082 128.478  0.00  0.00    +0.307 C 
ATOM     24  O   LIG A   1      -6.789   4.749 128.164  0.00  0.00    -0.251 OA
BRANCH  23  25
ATOM     25  O   LIG A   1      -8.342   3.146 127.680  0.00  0.00    -0.468 OA
ATOM     26  C   LIG A   1      -7.659   2.920 126.444  0.00  0.00    +0.280 C 
ENDBRANCH  23  25
ENDBRANCH  22  23
ENDBRANCH  20  22
ENDBRANCH   1  19
BRANCH   9  27
ATOM     27  C   LIG A   1      -4.172  -2.020 131.034  0.00  0.00    -0.006 A 
ATOM     28  C   LIG A   1      -5.211  -2.927 131.083  0.00  0.00    +0.198 A 
ATOM     29  O   LIG A   1      -5.206  -3.743 129.999  0.00  0.00    -0.471 OA
ATOM     30  C   LIG A   1      -4.149  -3.379 129.236  0.00  0.00    +0.195 A 
ATOM     31  C   LIG A   1      -3.444  -2.373 129.853  0.00  0.00    +0.045 A 
ENDBRANCH   9  27
BRANCH   2  32
ATOM     32  O   LIG A   1      -6.468  -0.110 129.634  0.00  0.00    -0.457 OA
BRANCH  32  33
ATOM     33  C   LIG A   1      -6.847  -0.255 128.371  0.00  0.00    +0.304 C 
ATOM     34  C   LIG A   1      -5.717  -0.623 127.439  0.00  0.00    +0.136 C 
ATOM     35  O   LIG A   1      -8.037  -0.219 127.998  0.00  0.00    -0.251 OA
ENDBRANCH  32  33
ENDBRANCH   2  32
BRANCH   3  36
ATOM     36  O   LIG A   1      -3.868   1.324 129.663  0.00  0.00    -0.457 OA
BRANCH  36  37
ATOM     37  C   LIG A   1      -3.937   2.474 128.913  0.00  0.00    +0.304 C 
ATOM     38  C   LIG A   1      -3.730   3.715 129.718  0.00  0.00    +0.136 C 
ATOM     39  O   LIG A   1      -4.091   2.509 127.696  0.00  0.00    -0.251 OA
ENDBRANCH  36  37
ENDBRANCH   3  36
TORSDOF 9
ENDMDL
MODEL 5
REMARK VINA RESULT:      -7.0      2.001      7.175
REMARK  Name = NuBBE_1103
REMARK  15 active torsions:
REMARK  status: ('A' for Active; 'I' for Inactive)
REMARK    1  A    between atoms: C_1  and  C_2
REMARK    2  A    between atoms: C_2  and  C_3
REMARK    3  A    between atoms: C_7  and  C_8
REMARK    4  A    between atoms: C_10  and  O_11
REMARK    5  A    between atoms: O_11  and  C_12
REMARK    6  A    between atoms: C_12  and  C_13
REMARK    7  A    between atoms: C_16  and  O_18
REMARK    8  A    between atoms: O_18  and  C_19
REMARK    9  A    between atoms: C_19  and  C_20
REMARK   10  A    between atoms: C_22  and  C_23
REMARK   11  A    between atoms: C_28  and  C_30
REMARK   12  A    between atoms: C_38  and  C_39
REMARK   13  A    between atoms: C_39  and  C_40
REMARK   14  A    between atoms: C_40  and  O_41
REMARK   15  A    between atoms: O_41  and  C_42
REMARK                            x       y       z     vdW  Elec       q    Type
REMARK                         _______ _______ _______ _____ _____    ______ ____
ROOT
ATOM      1  C   LIG A   1      -5.154   3.082 128.361  0.00  0.00    +0.069 C 
ATOM      2  C   LIG A   1      -6.574   2.514 128.653  0.00  0.00    +0.225 C 
ATOM      3  C   LIG A   1      -7.662   3.379 127.973  0.00  0.00    +0.227 C 
ATOM      4  C   LIG A   1      -7.556   3.669 126.433  0.00  0.00    +0.051 C 
ATOM      5  C   LIG A   1      -8.190   5.112 126.321  0.00  0.00    +0.019 C 
ATOM      6  C   LIG A   1      -6.054   3.675 126.005  0.00  0.00    +0.126 C 
ATOM      7  C   LIG A   1      -6.019   3.543 124.500  0.00  0.00    +0.157 C 
ATOM      8  C   LIG A   1      -7.417   3.376 123.985  0.00  0.00    +0.044 C 
ATOM      9  C   LIG A   1      -8.243   2.888 125.240  0.00  0.00    +0.037 C 
ATOM     10  O   LIG A   1      -5.709   4.776 125.149  0.00  0.00    -0.359 OA
ATOM     11  C   LIG A   1      -5.036   2.939 126.822  0.00  0.00    -0.035 C 
ATOM     12  C   LIG A   1      -4.119   2.070 126.349  0.00  0.00    +0.011 C 
ENDROOT
BRANCH   1  19
ATOM     13  C   LIG A   1      -3.915   6.539 132.300  0.00  0.00    +0.019 C 
ATOM     14  C   LIG A   1      -3.997   6.212 130.789  0.00  0.00    +0.031 C 
ATOM     15  C   LIG A   1      -4.749   7.400 130.142  0.00  0.00    +0.019 C 
ATOM     16  C   LIG A   1      -2.590   6.220 130.191  0.00  0.00    +0.162 C 
ATOM     17  C   LIG A   1      -2.452   5.698 128.812  0.00  0.00    +0.043 C 
ATOM     18  C   LIG A   1      -3.436   4.992 128.235  0.00  0.00    -0.019 C 
ATOM     19  C   LIG A   1      -4.743   4.539 128.890  0.00  0.00    +0.027 C 
ATOM     20  C   LIG A   1      -4.660   4.796 130.458  0.00  0.00    +0.020 C 
ATOM     21  O   LIG A   1      -1.604   6.661 130.767  0.00  0.00    -0.292 OA
BRANCH  20  22
ATOM     22  C   LIG A   1      -4.034   3.635 131.288  0.00  0.00    +0.125 C 
BRANCH  22  23
ATOM     23  C   LIG A   1      -4.993   2.761 132.080  0.00  0.00    +0.307 C 
ATOM     24  O   LIG A   1      -4.680   1.757 132.670  0.00  0.00    -0.251 OA
BRANCH  23  25
ATOM     25  O   LIG A   1      -6.251   3.301 132.064  0.00  0.00    -0.468 OA
ATOM     26  C   LIG A   1      -7.053   2.927 133.186  0.00  0.00    +0.280 C 
ENDBRANCH  23  25
ENDBRANCH  22  23
ENDBRANCH  20  22
ENDBRANCH   1  19
BRANCH   9  27
ATOM     27  C   LIG A   1      -8.319   1.390 125.285  0.00  0.00    -0.006 A 
ATOM     28  C   LIG A   1      -7.487   0.464 124.688  0.00  0.00    +0.198 A 
ATOM     29  O   LIG A   1      -7.914  -0.804 124.916  0.00  0.00    -0.471 OA
ATOM     30  C   LIG A   1      -9.043  -0.712 125.658  0.00  0.00    +0.195 A 
ATOM     31  C   LIG A   1      -9.372   0.607 125.858  0.00  0.00    +0.045 A 
ENDBRANCH   9  27
BRANCH   2  32
ATOM     32  O   LIG A   1      -6.640   1.173 128.116  0.00  0.00    -0.457 OA
BRANCH  32  33
ATOM     33  C   LIG A   1      -6.797   0.156 128.953  0.00  0.00    +0.304 C 
ATOM     34  C   LIG A   1      -6.508  -1.190 128.329  0.00  0.00    +0.136 C 
ATOM     35  O   LIG A   1      -7.034   0.292 130.170  0.00  0.00    -0.251 OA
ENDBRANCH  32  33
ENDBRANCH   2  32
BRANCH   3  36
ATOM     36  O   LIG A   1      -8.962   2.990 128.475  0.00  0.00    -0.457 OA
BRANCH  36  37
ATOM     37  C   LIG A   1      -9.135   3.328 129.797  0.00  0.00    +0.304 C 
ATOM     38  C   LIG A   1      -8.885   4.775 130.072  0.00  0.00    +0.136 C 
ATOM     39  O   LIG A   1      -9.513   2.557 130.673  0.00  0.00    -0.251 OA
ENDBRANCH  36  37
ENDBRANCH   3  36
TORSDOF 9
ENDMDL
MODEL 6
REMARK VINA RESULT:      -6.9      2.156      3.654
REMARK  Name = NuBBE_1103
REMARK  15 active torsions:
REMARK  status: ('A' for Active; 'I' for Inactive)
REMARK    1  A    between atoms: C_1  and  C_2
REMARK    2  A    between atoms: C_2  and  C_3
REMARK    3  A    between atoms: C_7  and  C_8
REMARK    4  A    between atoms: C_10  and  O_11
REMARK    5  A    between atoms: O_11  and  C_12
REMARK    6  A    between atoms: C_12  and  C_13
REMARK    7  A    between atoms: C_16  and  O_18
REMARK    8  A    between atoms: O_18  and  C_19
REMARK    9  A    between atoms: C_19  and  C_20
REMARK   10  A    between atoms: C_22  and  C_23
REMARK   11  A    between atoms: C_28  and  C_30
REMARK   12  A    between atoms: C_38  and  C_39
REMARK   13  A    between atoms: C_39  and  C_40
REMARK   14  A    between atoms: C_40  and  O_41
REMARK   15  A    between atoms: O_41  and  C_42
REMARK                            x       y       z     vdW  Elec       q    Type
REMARK                         _______ _______ _______ _____ _____    ______ ____
ROOT
ATOM      1  C   LIG A   1      -6.502   3.147 129.941  0.00  0.00    +0.069 C 
ATOM      2  C   LIG A   1      -5.455   4.120 130.560  0.00  0.00    +0.225 C 
ATOM      3  C   LIG A   1      -6.059   5.533 130.741  0.00  0.00    +0.227 C 
ATOM      4  C   LIG A   1      -7.406   5.693 131.531  0.00  0.00    +0.051 C 
ATOM      5  C   LIG A   1      -8.076   6.926 130.803  0.00  0.00    +0.019 C 
ATOM      6  C   LIG A   1      -8.267   4.401 131.364  0.00  0.00    +0.126 C 
ATOM      7  C   LIG A   1      -9.326   4.428 132.442  0.00  0.00    +0.157 C 
ATOM      8  C   LIG A   1      -9.113   5.628 133.314  0.00  0.00    +0.044 C 
ATOM      9  C   LIG A   1      -7.609   6.036 133.063  0.00  0.00    +0.037 C 
ATOM     10  O   LIG A   1      -9.649   4.668 131.073  0.00  0.00    -0.359 OA
ATOM     11  C   LIG A   1      -7.609   3.098 131.025  0.00  0.00    -0.035 C 
ATOM     12  C   LIG A   1      -7.801   1.925 131.663  0.00  0.00    +0.011 C 
ENDROOT
BRANCH   1  19
ATOM     13  C   LIG A   1      -5.868   3.788 124.632  0.00  0.00    +0.019 C 
ATOM     14  C   LIG A   1      -6.804   3.587 125.849  0.00  0.00    +0.031 C 
ATOM     15  C   LIG A   1      -7.884   4.689 125.735  0.00  0.00    +0.019 C 
ATOM     16  C   LIG A   1      -7.537   2.254 125.710  0.00  0.00    +0.162 C 
ATOM     17  C   LIG A   1      -8.295   1.786 126.894  0.00  0.00    +0.043 C 
ATOM     18  C   LIG A   1      -8.108   2.343 128.101  0.00  0.00    -0.019 C 
ATOM     19  C   LIG A   1      -7.076   3.411 128.468  0.00  0.00    +0.027 C 
ATOM     20  C   LIG A   1      -6.054   3.588 127.260  0.00  0.00    +0.020 C 
ATOM     21  O   LIG A   1      -7.560   1.589 124.684  0.00  0.00    -0.292 OA
BRANCH  20  22
ATOM     22  C   LIG A   1      -4.827   2.629 127.286  0.00  0.00    +0.125 C 
BRANCH  22  23
ATOM     23  C   LIG A   1      -3.461   3.265 127.496  0.00  0.00    +0.307 C 
ATOM     24  O   LIG A   1      -3.022   3.610 128.565  0.00  0.00    -0.251 OA
BRANCH  23  25
ATOM     25  O   LIG A   1      -2.788   3.347 126.308  0.00  0.00    -0.468 OA
ATOM     26  C   LIG A   1      -1.413   2.966 126.397  0.00  0.00    +0.280 C 
ENDBRANCH  23  25
ENDBRANCH  22  23
ENDBRANCH  20  22
ENDBRANCH   1  19
BRANCH   9  27
ATOM     27  C   LIG A   1      -6.704   5.412 134.085  0.00  0.00    -0.006 A 
ATOM     28  C   LIG A   1      -5.455   5.826 134.501  0.00  0.00    +0.198 A 
ATOM     29  O   LIG A   1      -4.926   4.965 135.407  0.00  0.00    -0.471 OA
ATOM     30  C   LIG A   1      -5.827   3.970 135.580  0.00  0.00    +0.195 A 
ATOM     31  C   LIG A   1      -6.905   4.159 134.748  0.00  0.00    +0.045 A 
ENDBRANCH   9  27
BRANCH   2  32
ATOM     32  O   LIG A   1      -5.076   3.605 131.857  0.00  0.00    -0.457 OA
BRANCH  32  33
ATOM     33  C   LIG A   1      -3.935   2.939 131.972  0.00  0.00    +0.304 C 
ATOM     34  C   LIG A   1      -2.850   3.717 132.680  0.00  0.00    +0.136 C 
ATOM     35  O   LIG A   1      -3.796   1.743 131.647  0.00  0.00    -0.251 OA
ENDBRANCH  32  33
ENDBRANCH   2  32
BRANCH   3  36
ATOM     36  O   LIG A   1      -5.000   6.465 131.062  0.00  0.00    -0.457 OA
BRANCH  36  37
ATOM     37  C   LIG A   1      -4.163   6.695 129.995  0.00  0.00    +0.304 C 
ATOM     38  C   LIG A   1      -2.716   6.674 130.367  0.00  0.00    +0.136 C 
ATOM     39  O   LIG A   1      -4.532   6.846 128.835  0.00  0.00    -0.251 OA
ENDBRANCH  36  37
ENDBRANCH   3  36
TORSDOF 9
ENDMDL
MODEL 7
REMARK VINA RESULT:      -6.9      2.906      5.512
REMARK  Name = NuBBE_1103
REMARK  15 active torsions:
REMARK  status: ('A' for Active; 'I' for Inactive)
REMARK    1  A    between atoms: C_1  and  C_2
REMARK    2  A    between atoms: C_2  and  C_3
REMARK    3  A    between atoms: C_7  and  C_8
REMARK    4  A    between atoms: C_10  and  O_11
REMARK    5  A    between atoms: O_11  and  C_12
REMARK    6  A    between atoms: C_12  and  C_13
REMARK    7  A    between atoms: C_16  and  O_18
REMARK    8  A    between atoms: O_18  and  C_19
REMARK    9  A    between atoms: C_19  and  C_20
REMARK   10  A    between atoms: C_22  and  C_23
REMARK   11  A    between atoms: C_28  and  C_30
REMARK   12  A    between atoms: C_38  and  C_39
REMARK   13  A    between atoms: C_39  and  C_40
REMARK   14  A    between atoms: C_40  and  O_41
REMARK   15  A    between atoms: O_41  and  C_42
REMARK                            x       y       z     vdW  Elec       q    Type
REMARK                         _______ _______ _______ _____ _____    ______ ____
ROOT
ATOM      1  C   LIG A   1      -4.596   1.879 131.286  0.00  0.00    +0.069 C 
ATOM      2  C   LIG A   1      -5.746   2.623 130.545  0.00  0.00    +0.225 C 
ATOM      3  C   LIG A   1      -6.913   2.932 131.513  0.00  0.00    +0.227 C 
ATOM      4  C   LIG A   1      -6.615   3.698 132.851  0.00  0.00    +0.051 C 
ATOM      5  C   LIG A   1      -7.688   3.083 133.834  0.00  0.00    +0.019 C 
ATOM      6  C   LIG A   1      -5.162   3.375 133.325  0.00  0.00    +0.126 C 
ATOM      7  C   LIG A   1      -4.784   4.420 134.348  0.00  0.00    +0.157 C 
ATOM      8  C   LIG A   1      -5.896   5.417 134.471  0.00  0.00    +0.044 C 
ATOM      9  C   LIG A   1      -6.723   5.251 133.137  0.00  0.00    +0.037 C 
ATOM     10  O   LIG A   1      -5.072   3.075 134.727  0.00  0.00    -0.359 OA
ATOM     11  C   LIG A   1      -4.132   2.920 132.335  0.00  0.00    -0.035 C 
ATOM     12  C   LIG A   1      -2.890   3.428 132.197  0.00  0.00    +0.011 C 
ENDROOT
BRANCH   1  19
ATOM     13  C   LIG A   1      -5.924  -3.323 130.859  0.00  0.00    +0.019 C 
ATOM     14  C   LIG A   1      -5.360  -2.155 131.705  0.00  0.00    +0.031 C 
ATOM     15  C   LIG A   1      -6.144  -2.186 133.038  0.00  0.00    +0.019 C 
ATOM     16  C   LIG A   1      -3.902  -2.445 132.059  0.00  0.00    +0.162 C 
ATOM     17  C   LIG A   1      -3.132  -1.332 132.663  0.00  0.00    +0.043 C 
ATOM     18  C   LIG A   1      -3.591  -0.072 132.628  0.00  0.00    -0.019 C 
ATOM     19  C   LIG A   1      -4.850   0.425 131.914  0.00  0.00    +0.027 C 
ATOM     20  C   LIG A   1      -5.413  -0.733 130.978  0.00  0.00    +0.020 C 
ATOM     21  O   LIG A   1      -3.363  -3.533 131.909  0.00  0.00    -0.292 OA
BRANCH  20  22
ATOM     22  C   LIG A   1      -4.814  -0.773 129.541  0.00  0.00    +0.125 C 
BRANCH  22  23
ATOM     23  C   LIG A   1      -5.801  -0.795 128.385  0.00  0.00    +0.307 C 
ATOM     24  O   LIG A   1      -6.923  -0.354 128.431  0.00  0.00    -0.251 OA
BRANCH  23  25
ATOM     25  O   LIG A   1      -5.221  -1.346 127.275  0.00  0.00    -0.468 OA
ATOM     26  C   LIG A   1      -6.124  -2.107 126.469  0.00  0.00    +0.280 C 
ENDBRANCH  23  25
ENDBRANCH  22  23
ENDBRANCH  20  22
ENDBRANCH   1  19
BRANCH   9  27
ATOM     27  C   LIG A   1      -6.264   6.228 132.093  0.00  0.00    -0.006 A 
ATOM     28  C   LIG A   1      -7.002   6.846 131.104  0.00  0.00    +0.198 A 
ATOM     29  O   LIG A   1      -6.217   7.624 130.316  0.00  0.00    -0.471 OA
ATOM     30  C   LIG A   1      -4.951   7.507 130.782  0.00  0.00    +0.195 A 
ATOM     31  C   LIG A   1      -4.912   6.616 131.827  0.00  0.00    +0.045 A 
ENDBRANCH   9  27
BRANCH   2  32
ATOM     32  O   LIG A   1      -5.219   3.870 130.037  0.00  0.00    -0.457 OA
BRANCH  32  33
ATOM     33  C   LIG A   1      -5.300   4.116 128.736  0.00  0.00    +0.304 C 
ATOM     34  C   LIG A   1      -5.653   2.900 127.912  0.00  0.00    +0.136 C 
ATOM     35  O   LIG A   1      -5.222   5.259 128.242  0.00  0.00    -0.251 OA
ENDBRANCH  32  33
ENDBRANCH   2  32
BRANCH   3  36
ATOM     36  O   LIG A   1      -8.059   3.377 130.750  0.00  0.00    -0.457 OA
BRANCH  36  37
ATOM     37  C   LIG A   1      -8.684   2.343 130.093  0.00  0.00    +0.304 C 
ATOM     38  C   LIG A   1      -8.860   1.127 130.942  0.00  0.00    +0.136 C 
ATOM     39  O   LIG A   1      -9.117   2.401 128.947  0.00  0.00    -0.251 OA
ENDBRANCH  36  37
ENDBRANCH   3  36
TORSDOF 9
ENDMDL
MODEL 8
REMARK VINA RESULT:      -6.8      1.420      1.726
REMARK  Name = NuBBE_1103
REMARK  15 active torsions:
REMARK  status: ('A' for Active; 'I' for Inactive)
REMARK    1  A    between atoms: C_1  and  C_2
REMARK    2  A    between atoms: C_2  and  C_3
REMARK    3  A    between atoms: C_7  and  C_8
REMARK    4  A    between atoms: C_10  and  O_11
REMARK    5  A    between atoms: O_11  and  C_12
REMARK    6  A    between atoms: C_12  and  C_13
REMARK    7  A    between atoms: C_16  and  O_18
REMARK    8  A    between atoms: O_18  and  C_19
REMARK    9  A    between atoms: C_19  and  C_20
REMARK   10  A    between atoms: C_22  and  C_23
REMARK   11  A    between atoms: C_28  and  C_30
REMARK   12  A    between atoms: C_38  and  C_39
REMARK   13  A    between atoms: C_39  and  C_40
REMARK   14  A    between atoms: C_40  and  O_41
REMARK   15  A    between atoms: O_41  and  C_42
REMARK                            x       y       z     vdW  Elec       q    Type
REMARK                         _______ _______ _______ _____ _____    ______ ____
ROOT
ATOM      1  C   LIG A   1      -6.228   1.926 128.443  0.00  0.00    +0.069 C 
ATOM      2  C   LIG A   1      -6.653   3.201 129.230  0.00  0.00    +0.225 C 
ATOM      3  C   LIG A   1      -7.821   2.886 130.195  0.00  0.00    +0.227 C 
ATOM      4  C   LIG A   1      -7.670   1.705 131.219  0.00  0.00    +0.051 C 
ATOM      5  C   LIG A   1      -9.154   1.174 131.337  0.00  0.00    +0.019 C 
ATOM      6  C   LIG A   1      -6.725   0.614 130.622  0.00  0.00    +0.126 C 
ATOM      7  C   LIG A   1      -6.288  -0.271 131.765  0.00  0.00    +0.157 C 
ATOM      8  C   LIG A   1      -6.850   0.263 133.048  0.00  0.00    +0.044 C 
ATOM      9  C   LIG A   1      -7.197   1.770 132.728  0.00  0.00    +0.037 C 
ATOM     10  O   LIG A   1      -7.222  -0.724 130.786  0.00  0.00    -0.359 OA
ATOM     11  C   LIG A   1      -5.728   0.980 129.564  0.00  0.00    -0.035 C 
ATOM     12  C   LIG A   1      -4.415   0.670 129.573  0.00  0.00    +0.011 C 
ENDROOT
BRANCH   1  19
ATOM     13  C   LIG A   1      -9.487   1.977 124.156  0.00  0.00    +0.019 C 
ATOM     14  C   LIG A   1      -8.748   1.182 125.261  0.00  0.00    +0.031 C 
ATOM     15  C   LIG A   1      -9.821   0.281 125.918  0.00  0.00    +0.019 C 
ATOM     16  C   LIG A   1      -7.734   0.239 124.614  0.00  0.00    +0.162 C 
ATOM     17  C   LIG A   1      -6.774  -0.427 125.525  0.00  0.00    +0.043 C 
ATOM     18  C   LIG A   1      -6.609  -0.005 126.788  0.00  0.00    -0.019 C 
ATOM     19  C   LIG A   1      -7.258   1.218 127.438  0.00  0.00    +0.027 C 
ATOM     20  C   LIG A   1      -7.966   2.095 126.313  0.00  0.00    +0.020 C 
ATOM     21  O   LIG A   1      -7.702  -0.017 123.419  0.00  0.00    -0.292 OA
BRANCH  20  22
ATOM     22  C   LIG A   1      -7.051   3.152 125.624  0.00  0.00    +0.125 C 
BRANCH  22  23
ATOM     23  C   LIG A   1      -7.471   4.608 125.746  0.00  0.00    +0.307 C 
ATOM     24  O   LIG A   1      -8.606   5.005 125.658  0.00  0.00    -0.251 OA
BRANCH  23  25
ATOM     25  O   LIG A   1      -6.384   5.395 126.013  0.00  0.00    -0.468 OA
ATOM     26  C   LIG A   1      -5.147   4.678 126.049  0.00  0.00    +0.280 C 
ENDBRANCH  23  25
ENDBRANCH  22  23
ENDBRANCH  20  22
ENDBRANCH   1  19
BRANCH   9  27
ATOM     27  C   LIG A   1      -6.062   2.677 133.107  0.00  0.00    -0.006 A 
ATOM     28  C   LIG A   1      -6.096   4.023 133.408  0.00  0.00    +0.198 A 
ATOM     29  O   LIG A   1      -4.851   4.506 133.650  0.00  0.00    -0.471 OA
ATOM     30  C   LIG A   1      -3.990   3.473 133.495  0.00  0.00    +0.195 A 
ATOM     31  C   LIG A   1      -4.670   2.346 133.100  0.00  0.00    +0.045 A 
ENDBRANCH   9  27
BRANCH   2  32
ATOM     32  O   LIG A   1      -5.517   3.650 130.003  0.00  0.00    -0.457 OA
BRANCH  32  33
ATOM     33  C   LIG A   1      -5.006   4.848 129.752  0.00  0.00    +0.304 C 
ATOM     34  C   LIG A   1      -3.497   4.885 129.807  0.00  0.00    +0.136 C 
ATOM     35  O   LIG A   1      -5.686   5.826 129.380  0.00  0.00    -0.251 OA
ENDBRANCH  32  33
ENDBRANCH   2  32
BRANCH   3  36
ATOM     36  O   LIG A   1      -8.362   4.126 130.707  0.00  0.00    -0.457 OA
BRANCH  36  37
ATOM     37  C   LIG A   1      -9.342   4.646 129.893  0.00  0.00    +0.304 C 
ATOM     38  C   LIG A   1     -10.724   4.379 130.392  0.00  0.00    +0.136 C 
ATOM     39  O   LIG A   1      -9.134   5.314 128.886  0.00  0.00    -0.251 OA
ENDBRANCH  36  37
ENDBRANCH   3  36
TORSDOF 9
ENDMDL
MODEL 9
REMARK VINA RESULT:      -6.8      3.191      6.837
REMARK  Name = NuBBE_1103
REMARK  15 active torsions:
REMARK  status: ('A' for Active; 'I' for Inactive)
REMARK    1  A    between atoms: C_1  and  C_2
REMARK    2  A    between atoms: C_2  and  C_3
REMARK    3  A    between atoms: C_7  and  C_8
REMARK    4  A    between atoms: C_10  and  O_11
REMARK    5  A    between atoms: O_11  and  C_12
REMARK    6  A    between atoms: C_12  and  C_13
REMARK    7  A    between atoms: C_16  and  O_18
REMARK    8  A    between atoms: O_18  and  C_19
REMARK    9  A    between atoms: C_19  and  C_20
REMARK   10  A    between atoms: C_22  and  C_23
REMARK   11  A    between atoms: C_28  and  C_30
REMARK   12  A    between atoms: C_38  and  C_39
REMARK   13  A    between atoms: C_39  and  C_40
REMARK   14  A    between atoms: C_40  and  O_41
REMARK   15  A    between atoms: O_41  and  C_42
REMARK                            x       y       z     vdW  Elec       q    Type
REMARK                         _______ _______ _______ _____ _____    ______ ____
ROOT
ATOM      1  C   LIG A   1      -4.575   1.667 129.896  0.00  0.00    +0.069 C 
ATOM      2  C   LIG A   1      -4.270   0.417 130.773  0.00  0.00    +0.225 C 
ATOM      3  C   LIG A   1      -4.997   0.513 132.137  0.00  0.00    +0.227 C 
ATOM      4  C   LIG A   1      -6.547   0.763 132.161  0.00  0.00    +0.051 C 
ATOM      5  C   LIG A   1      -6.727   1.608 133.483  0.00  0.00    +0.019 C 
ATOM      6  C   LIG A   1      -6.963   1.585 130.900  0.00  0.00    +0.126 C 
ATOM      7  C   LIG A   1      -8.460   1.447 130.752  0.00  0.00    +0.157 C 
ATOM      8  C   LIG A   1      -8.978   0.517 131.807  0.00  0.00    +0.044 C 
ATOM      9  C   LIG A   1      -7.710  -0.306 132.263  0.00  0.00    +0.037 C 
ATOM     10  O   LIG A   1      -7.864   2.665 131.195  0.00  0.00    -0.359 OA
ATOM     11  C   LIG A   1      -6.105   1.564 129.671  0.00  0.00    -0.035 C 
ATOM     12  C   LIG A   1      -6.533   1.333 128.413  0.00  0.00    +0.011 C 
ENDROOT
BRANCH   1  19
ATOM     13  C   LIG A   1      -2.179   6.414 129.050  0.00  0.00    +0.019 C 
ATOM     14  C   LIG A   1      -3.065   5.507 129.938  0.00  0.00    +0.031 C 
ATOM     15  C   LIG A   1      -2.454   5.584 131.358  0.00  0.00    +0.019 C 
ATOM     16  C   LIG A   1      -4.465   6.110 130.041  0.00  0.00    +0.162 C 
ATOM     17  C   LIG A   1      -5.510   5.258 130.656  0.00  0.00    +0.043 C 
ATOM     18  C   LIG A   1      -5.316   3.943 130.837  0.00  0.00    -0.019 C 
ATOM     19  C   LIG A   1      -4.108   3.123 130.377  0.00  0.00    +0.027 C 
ATOM     20  C   LIG A   1      -3.215   4.009 129.401  0.00  0.00    +0.020 C 
ATOM     21  O   LIG A   1      -4.750   7.245 129.686  0.00  0.00    -0.292 OA
BRANCH  20  22
ATOM     22  C   LIG A   1      -3.620   3.951 127.897  0.00  0.00    +0.125 C 
BRANCH  22  23
ATOM     23  C   LIG A   1      -2.813   3.022 127.004  0.00  0.00    +0.307 C 
ATOM     24  O   LIG A   1      -1.610   2.935 127.012  0.00  0.00    -0.251 OA
BRANCH  23  25
ATOM     25  O   LIG A   1      -3.648   2.269 126.225  0.00  0.00    -0.468 OA
ATOM     26  C   LIG A   1      -4.807   2.973 125.773  0.00  0.00    +0.280 C 
ENDBRANCH  23  25
ENDBRANCH  22  23
ENDBRANCH  20  22
ENDBRANCH   1  19
BRANCH   9  27
ATOM     27  C   LIG A   1      -7.600  -1.593 131.499  0.00  0.00    -0.006 A 
ATOM     28  C   LIG A   1      -6.961  -2.762 131.863  0.00  0.00    +0.198 A 
ATOM     29  O   LIG A   1      -7.035  -3.692 130.878  0.00  0.00    -0.471 OA
ATOM     30  C   LIG A   1      -7.716  -3.128 129.853  0.00  0.00    +0.195 A 
ATOM     31  C   LIG A   1      -8.030  -1.824 130.154  0.00  0.00    +0.045 A 
ENDBRANCH   9  27
BRANCH   2  32
ATOM     32  O   LIG A   1      -4.748  -0.752 130.070  0.00  0.00    -0.457 OA
BRANCH  32  33
ATOM     33  C   LIG A   1      -3.922  -1.775 129.894  0.00  0.00    +0.304 C 
ATOM     34  C   LIG A   1      -4.347  -2.711 128.787  0.00  0.00    +0.136 C 
ATOM     35  O   LIG A   1      -2.831  -1.893 130.488  0.00  0.00    -0.251 OA
ENDBRANCH  32  33
ENDBRANCH   2  32
BRANCH   3  36
ATOM     36  O   LIG A   1      -4.488  -0.515 133.019  0.00  0.00    -0.457 OA
BRANCH  36  37
ATOM     37  C   LIG A   1      -3.431  -0.075 133.780  0.00  0.00    +0.304 C 
ATOM     38  C   LIG A   1      -2.262  -1.006 133.758  0.00  0.00    +0.136 C 
ATOM     39  O   LIG A   1      -3.396   0.994 134.381  0.00  0.00    -0.251 OA
ENDBRANCH  36  37
ENDBRANCH   3  36
TORSDOF 9
ENDMDL
