MODEL 1
REMARK VINA RESULT:      -7.1      0.000      0.000
REMARK  Name = NuBBE_2482
REMARK  12 active torsions:
REMARK  status: ('A' for Active; 'I' for Inactive)
REMARK    1  A    between atoms: C_1  and  C_2
REMARK    2  A    between atoms: C_1  and  C_4
REMARK    3  A    between atoms: C_9  and  O_11
REMARK    4  A    between atoms: O_11  and  C_12
REMARK    5  A    between atoms: C_14  and  C_19
REMARK    6  A    between atoms: C_16  and  C_18
REMARK    7  A    between atoms: C_21  and  O_22
REMARK    8  A    between atoms: O_22  and  C_23
REMARK    9  A    between atoms: C_24  and  O_29
REMARK   10  A    between atoms: C_25  and  O_27
REMARK   11  A    between atoms: O_27  and  C_28
REMARK   12  A    between atoms: O_29  and  C_30
REMARK                            x       y       z     vdW  Elec       q    Type
REMARK                         _______ _______ _______ _____ _____    ______ ____
ROOT
ATOM      1  C   LIG A   1      -7.559  -1.648 126.483  0.00  0.00    +0.059 C 
ATOM      2  C   LIG A   1      -8.007  -0.356 127.083  0.00  0.00    +0.113 C 
ATOM      3  C   LIG A   1      -7.775   0.027 128.344  0.00  0.00    +0.096 C 
ATOM      4  C   LIG A   1      -7.001  -0.848 129.234  0.00  0.00    +0.223 C 
ATOM      5  O   LIG A   1      -6.983  -0.582 130.440  0.00  0.00    -0.284 OA
ATOM      6  C   LIG A   1      -6.236  -1.989 128.596  0.00  0.00    +0.164 C 
ATOM      7  C   LIG A   1      -6.512  -2.330 127.334  0.00  0.00    +0.038 C 
ATOM      8  O   LIG A   1      -8.569   0.488 126.163  0.00  0.00    -0.487 OA
ATOM      9  C   LIG A   1      -7.948   0.170 124.891  0.00  0.00    +0.207 C 
ATOM     10  C   LIG A   1      -7.085  -1.119 125.102  0.00  0.00    +0.049 C 
ATOM     11  C   LIG A   1      -5.564  -0.938 124.994  0.00  0.00    +0.013 C 
ENDROOT
BRANCH   9  12
ATOM     12  C   LIG A   1      -7.304   1.429 124.320  0.00  0.00    +0.000 A 
ATOM     13  C   LIG A   1      -6.413   2.194 125.085  0.00  0.00    +0.057 A 
ATOM     14  C   LIG A   1      -5.788   3.338 124.575  0.00  0.00    +0.166 A 
ATOM     15  C   LIG A   1      -6.095   3.793 123.276  0.00  0.00    +0.203 A 
ATOM     16  C   LIG A   1      -7.022   3.064 122.507  0.00  0.00    +0.166 A 
ATOM     17  C   LIG A   1      -7.617   1.900 123.038  0.00  0.00    +0.057 A 
BRANCH  14  18
ATOM     18  O   LIG A   1      -4.907   4.088 125.324  0.00  0.00    -0.491 OA
ATOM     19  C   LIG A   1      -4.109   3.356 126.252  0.00  0.00    +0.277 C 
ENDBRANCH  14  18
BRANCH  16  20
ATOM     20  O   LIG A   1      -7.263   3.454 121.211  0.00  0.00    -0.491 OA
ATOM     21  C   LIG A   1      -8.627   3.722 120.895  0.00  0.00    +0.277 C 
ENDBRANCH  16  20
BRANCH  15  22
ATOM     22  O   LIG A   1      -5.379   4.890 122.870  0.00  0.00    -0.488 OA
ATOM     23  C   LIG A   1      -4.417   4.759 121.834  0.00  0.00    +0.277 C 
ENDBRANCH  15  22
ENDBRANCH   9  12
BRANCH   6  24
ATOM     24  O   LIG A   1      -5.253  -2.725 129.267  0.00  0.00    -0.492 OA
ATOM     25  C   LIG A   1      -5.682  -3.865 130.005  0.00  0.00    +0.277 C 
ENDBRANCH   6  24
BRANCH   1  26
ATOM     26  C   LIG A   1      -8.778  -2.623 126.303  0.00  0.00    +0.045 C 
BRANCH  26  27
ATOM     27  C   LIG A   1      -8.705  -3.529 125.093  0.00  0.00    -0.033 C 
ATOM     28  C   LIG A   1      -9.441  -3.385 123.984  0.00  0.00    +0.004 C 
ENDBRANCH  26  27
ENDBRANCH   1  26
TORSDOF 7
ENDMDL
MODEL 2
REMARK VINA RESULT:      -7.0      2.842      7.791
REMARK  Name = NuBBE_2482
REMARK  12 active torsions:
REMARK  status: ('A' for Active; 'I' for Inactive)
REMARK    1  A    between atoms: C_1  and  C_2
REMARK    2  A    between atoms: C_1  and  C_4
REMARK    3  A    between atoms: C_9  and  O_11
REMARK    4  A    between atoms: O_11  and  C_12
REMARK    5  A    between atoms: C_14  and  C_19
REMARK    6  A    between atoms: C_16  and  C_18
REMARK    7  A    between atoms: C_21  and  O_22
REMARK    8  A    between atoms: O_22  and  C_23
REMARK    9  A    between atoms: C_24  and  O_29
REMARK   10  A    between atoms: C_25  and  O_27
REMARK   11  A    between atoms: O_27  and  C_28
REMARK   12  A    between atoms: O_29  and  C_30
REMARK                            x       y       z     vdW  Elec       q    Type
REMARK                         _______ _______ _______ _____ _____    ______ ____
ROOT
ATOM      1  C   LIG A   1      -7.219  -1.227 125.402  0.00  0.00    +0.059 C 
ATOM      2  C   LIG A   1      -6.855  -0.135 126.353  0.00  0.00    +0.113 C 
ATOM      3  C   LIG A   1      -7.409   1.083 126.374  0.00  0.00    +0.096 C 
ATOM      4  C   LIG A   1      -8.480   1.405 125.423  0.00  0.00    +0.223 C 
ATOM      5  O   LIG A   1      -8.825   2.586 125.314  0.00  0.00    -0.284 OA
ATOM      6  C   LIG A   1      -9.124   0.253 124.682  0.00  0.00    +0.164 C 
ATOM      7  C   LIG A   1      -8.523  -0.942 124.692  0.00  0.00    +0.038 C 
ATOM      8  O   LIG A   1      -5.978  -0.547 127.321  0.00  0.00    -0.487 OA
ATOM      9  C   LIG A   1      -6.228  -1.964 127.515  0.00  0.00    +0.207 C 
ATOM     10  C   LIG A   1      -7.223  -2.419 126.396  0.00  0.00    +0.049 C 
ATOM     11  C   LIG A   1      -8.626  -2.831 126.867  0.00  0.00    +0.013 C 
ENDROOT
BRANCH   9  12
ATOM     12  C   LIG A   1      -6.566  -2.215 128.980  0.00  0.00    +0.000 A 
ATOM     13  C   LIG A   1      -7.383  -1.329 129.695  0.00  0.00    +0.057 A 
ATOM     14  C   LIG A   1      -7.731  -1.552 131.033  0.00  0.00    +0.166 A 
ATOM     15  C   LIG A   1      -7.204  -2.661 131.724  0.00  0.00    +0.203 A 
ATOM     16  C   LIG A   1      -6.345  -3.540 131.039  0.00  0.00    +0.166 A 
ATOM     17  C   LIG A   1      -6.033  -3.304 129.683  0.00  0.00    +0.057 A 
BRANCH  14  18
ATOM     18  O   LIG A   1      -8.540  -0.685 131.734  0.00  0.00    -0.491 OA
ATOM     19  C   LIG A   1      -8.696   0.612 131.161  0.00  0.00    +0.277 C 
ENDBRANCH  14  18
BRANCH  16  20
ATOM     20  O   LIG A   1      -5.894  -4.668 131.683  0.00  0.00    -0.491 OA
ATOM     21  C   LIG A   1      -4.581  -4.577 132.233  0.00  0.00    +0.277 C 
ENDBRANCH  16  20
BRANCH  15  22
ATOM     22  O   LIG A   1      -7.660  -2.803 133.011  0.00  0.00    -0.488 OA
ATOM     23  C   LIG A   1      -6.866  -2.344 134.094  0.00  0.00    +0.277 C 
ENDBRANCH  15  22
ENDBRANCH   9  12
BRANCH   6  24
ATOM     24  O   LIG A   1     -10.319   0.372 123.965  0.00  0.00    -0.492 OA
ATOM     25  C   LIG A   1     -10.219   0.635 122.569  0.00  0.00    +0.277 C 
ENDBRANCH   6  24
BRANCH   1  26
ATOM     26  C   LIG A   1      -6.090  -1.420 124.326  0.00  0.00    +0.045 C 
BRANCH  26  27
ATOM     27  C   LIG A   1      -5.864  -2.847 123.878  0.00  0.00    -0.033 C 
ATOM     28  C   LIG A   1      -4.681  -3.357 123.514  0.00  0.00    +0.004 C 
ENDBRANCH  26  27
ENDBRANCH   1  26
TORSDOF 7
ENDMDL
MODEL 3
REMARK VINA RESULT:      -7.0      2.501      7.218
REMARK  Name = NuBBE_2482
REMARK  12 active torsions:
REMARK  status: ('A' for Active; 'I' for Inactive)
REMARK    1  A    between atoms: C_1  and  C_2
REMARK    2  A    between atoms: C_1  and  C_4
REMARK    3  A    between atoms: C_9  and  O_11
REMARK    4  A    between atoms: O_11  and  C_12
REMARK    5  A    between atoms: C_14  and  C_19
REMARK    6  A    between atoms: C_16  and  C_18
REMARK    7  A    between atoms: C_21  and  O_22
REMARK    8  A    between atoms: O_22  and  C_23
REMARK    9  A    between atoms: C_24  and  O_29
REMARK   10  A    between atoms: C_25  and  O_27
REMARK   11  A    between atoms: O_27  and  C_28
REMARK   12  A    between atoms: O_29  and  C_30
REMARK                            x       y       z     vdW  Elec       q    Type
REMARK                         _______ _______ _______ _____ _____    ______ ____
ROOT
ATOM      1  C   LIG A   1      -6.644  -1.949 124.499  0.00  0.00    +0.059 C 
ATOM      2  C   LIG A   1      -6.216  -0.692 125.182  0.00  0.00    +0.113 C 
ATOM      3  C   LIG A   1      -6.603   0.542 124.835  0.00  0.00    +0.096 C 
ATOM      4  C   LIG A   1      -7.540   0.716 123.717  0.00  0.00    +0.223 C 
ATOM      5  O   LIG A   1      -7.714   1.857 123.278  0.00  0.00    -0.284 OA
ATOM      6  C   LIG A   1      -8.268  -0.514 123.219  0.00  0.00    +0.164 C 
ATOM      7  C   LIG A   1      -7.835  -1.722 123.597  0.00  0.00    +0.038 C 
ATOM      8  O   LIG A   1      -5.486  -0.928 126.316  0.00  0.00    -0.487 OA
ATOM      9  C   LIG A   1      -5.938  -2.208 126.828  0.00  0.00    +0.207 C 
ATOM     10  C   LIG A   1      -6.889  -2.832 125.753  0.00  0.00    +0.049 C 
ATOM     11  C   LIG A   1      -8.368  -2.952 126.148  0.00  0.00    +0.013 C 
ENDROOT
BRANCH   9  12
ATOM     12  C   LIG A   1      -6.426  -2.029 128.262  0.00  0.00    +0.000 A 
ATOM     13  C   LIG A   1      -6.208  -3.021 129.228  0.00  0.00    +0.057 A 
ATOM     14  C   LIG A   1      -6.621  -2.867 130.557  0.00  0.00    +0.166 A 
ATOM     15  C   LIG A   1      -7.337  -1.717 130.946  0.00  0.00    +0.203 A 
ATOM     16  C   LIG A   1      -7.606  -0.728 129.982  0.00  0.00    +0.166 A 
ATOM     17  C   LIG A   1      -7.154  -0.899 128.655  0.00  0.00    +0.057 A 
BRANCH  14  18
ATOM     18  O   LIG A   1      -6.402  -3.839 131.509  0.00  0.00    -0.491 OA
ATOM     19  C   LIG A   1      -5.469  -4.856 131.149  0.00  0.00    +0.277 C 
ENDBRANCH  14  18
BRANCH  16  20
ATOM     20  O   LIG A   1      -8.230   0.432 130.374  0.00  0.00    -0.491 OA
ATOM     21  C   LIG A   1      -8.217   1.489 129.417  0.00  0.00    +0.277 C 
ENDBRANCH  16  20
BRANCH  15  22
ATOM     22  O   LIG A   1      -7.639  -1.657 132.284  0.00  0.00    -0.488 OA
ATOM     23  C   LIG A   1      -6.813  -0.903 133.159  0.00  0.00    +0.277 C 
ENDBRANCH  15  22
ENDBRANCH   9  12
BRANCH   6  24
ATOM     24  O   LIG A   1      -9.373  -0.460 122.363  0.00  0.00    -0.492 OA
ATOM     25  C   LIG A   1     -10.317   0.584 122.582  0.00  0.00    +0.277 C 
ENDBRANCH   6  24
BRANCH   1  26
ATOM     26  C   LIG A   1      -5.465  -2.538 123.642  0.00  0.00    +0.045 C 
BRANCH  26  27
ATOM     27  C   LIG A   1      -5.153  -3.997 123.892  0.00  0.00    -0.033 C 
ATOM     28  C   LIG A   1      -4.037  -4.620 123.493  0.00  0.00    +0.004 C 
ENDBRANCH  26  27
ENDBRANCH   1  26
TORSDOF 7
ENDMDL
MODEL 4
REMARK VINA RESULT:      -7.0      3.120      4.975
REMARK  Name = NuBBE_2482
REMARK  12 active torsions:
REMARK  status: ('A' for Active; 'I' for Inactive)
REMARK    1  A    between atoms: C_1  and  C_2
REMARK    2  A    between atoms: C_1  and  C_4
REMARK    3  A    between atoms: C_9  and  O_11
REMARK    4  A    between atoms: O_11  and  C_12
REMARK    5  A    between atoms: C_14  and  C_19
REMARK    6  A    between atoms: C_16  and  C_18
REMARK    7  A    between atoms: C_21  and  O_22
REMARK    8  A    between atoms: O_22  and  C_23
REMARK    9  A    between atoms: C_24  and  O_29
REMARK   10  A    between atoms: C_25  and  O_27
REMARK   11  A    between atoms: O_27  and  C_28
REMARK   12  A    between atoms: O_29  and  C_30
REMARK                            x       y       z     vdW  Elec       q    Type
REMARK                         _______ _______ _______ _____ _____    ______ ____
ROOT
ATOM      1  C   LIG A   1      -7.571  -1.323 126.770  0.00  0.00    +0.059 C 
ATOM      2  C   LIG A   1      -6.204  -1.090 126.217  0.00  0.00    +0.113 C 
ATOM      3  C   LIG A   1      -5.828  -1.348 124.959  0.00  0.00    +0.096 C 
ATOM      4  C   LIG A   1      -6.812  -1.879 124.007  0.00  0.00    +0.223 C 
ATOM      5  O   LIG A   1      -6.400  -2.310 122.925  0.00  0.00    -0.284 OA
ATOM      6  C   LIG A   1      -8.272  -1.809 124.402  0.00  0.00    +0.164 C 
ATOM      7  C   LIG A   1      -8.588  -1.551 125.675  0.00  0.00    +0.038 C 
ATOM      8  O   LIG A   1      -5.382  -0.436 127.097  0.00  0.00    -0.487 OA
ATOM      9  C   LIG A   1      -6.248   0.379 127.928  0.00  0.00    +0.207 C 
ATOM     10  C   LIG A   1      -7.725  -0.014 127.590  0.00  0.00    +0.049 C 
ATOM     11  C   LIG A   1      -8.567   1.063 126.890  0.00  0.00    +0.013 C 
ENDROOT
BRANCH   9  12
ATOM     12  C   LIG A   1      -5.808   1.836 127.830  0.00  0.00    +0.000 A 
ATOM     13  C   LIG A   1      -4.741   2.213 127.003  0.00  0.00    +0.057 A 
ATOM     14  C   LIG A   1      -4.336   3.547 126.874  0.00  0.00    +0.166 A 
ATOM     15  C   LIG A   1      -4.964   4.553 127.636  0.00  0.00    +0.203 A 
ATOM     16  C   LIG A   1      -6.009   4.190 128.506  0.00  0.00    +0.166 A 
ATOM     17  C   LIG A   1      -6.412   2.841 128.596  0.00  0.00    +0.057 A 
BRANCH  14  18
ATOM     18  O   LIG A   1      -3.291   3.920 126.057  0.00  0.00    -0.491 OA
ATOM     19  C   LIG A   1      -2.016   3.382 126.402  0.00  0.00    +0.277 C 
ENDBRANCH  14  18
BRANCH  16  20
ATOM     20  O   LIG A   1      -6.679   5.177 129.189  0.00  0.00    -0.491 OA
ATOM     21  C   LIG A   1      -6.383   5.269 130.582  0.00  0.00    +0.277 C 
ENDBRANCH  16  20
BRANCH  15  22
ATOM     22  O   LIG A   1      -4.517   5.826 127.382  0.00  0.00    -0.488 OA
ATOM     23  C   LIG A   1      -3.595   6.439 128.270  0.00  0.00    +0.277 C 
ENDBRANCH  15  22
ENDBRANCH   9  12
BRANCH   6  24
ATOM     24  O   LIG A   1      -9.322  -2.019 123.502  0.00  0.00    -0.492 OA
ATOM     25  C   LIG A   1      -9.760  -3.360 123.310  0.00  0.00    +0.277 C 
ENDBRANCH   6  24
BRANCH   1  26
ATOM     26  C   LIG A   1      -7.572  -2.569 127.727  0.00  0.00    +0.045 C 
BRANCH  26  27
ATOM     27  C   LIG A   1      -8.656  -3.590 127.455  0.00  0.00    -0.033 C 
ATOM     28  C   LIG A   1      -9.408  -4.176 128.394  0.00  0.00    +0.004 C 
ENDBRANCH  26  27
ENDBRANCH   1  26
TORSDOF 7
ENDMDL
MODEL 5
REMARK VINA RESULT:      -6.8      7.277      9.533
REMARK  Name = NuBBE_2482
REMARK  12 active torsions:
REMARK  status: ('A' for Active; 'I' for Inactive)
REMARK    1  A    between atoms: C_1  and  C_2
REMARK    2  A    between atoms: C_1  and  C_4
REMARK    3  A    between atoms: C_9  and  O_11
REMARK    4  A    between atoms: O_11  and  C_12
REMARK    5  A    between atoms: C_14  and  C_19
REMARK    6  A    between atoms: C_16  and  C_18
REMARK    7  A    between atoms: C_21  and  O_22
REMARK    8  A    between atoms: O_22  and  C_23
REMARK    9  A    between atoms: C_24  and  O_29
REMARK   10  A    between atoms: C_25  and  O_27
REMARK   11  A    between atoms: O_27  and  C_28
REMARK   12  A    between atoms: O_29  and  C_30
REMARK                            x       y       z     vdW  Elec       q    Type
REMARK                         _______ _______ _______ _____ _____    ______ ____
ROOT
ATOM      1  C   LIG A   1      -6.693   4.471 134.540  0.00  0.00    +0.059 C 
ATOM      2  C   LIG A   1      -6.118   4.972 133.257  0.00  0.00    +0.113 C 
ATOM      3  C   LIG A   1      -5.143   4.371 132.564  0.00  0.00    +0.096 C 
ATOM      4  C   LIG A   1      -4.584   3.105 133.054  0.00  0.00    +0.223 C 
ATOM      5  O   LIG A   1      -3.551   2.682 132.526  0.00  0.00    -0.284 OA
ATOM      6  C   LIG A   1      -5.351   2.379 134.140  0.00  0.00    +0.164 C 
ATOM      7  C   LIG A   1      -6.312   3.031 134.802  0.00  0.00    +0.038 C 
ATOM      8  O   LIG A   1      -6.792   6.057 132.763  0.00  0.00    -0.487 OA
ATOM      9  C   LIG A   1      -8.159   5.931 133.233  0.00  0.00    +0.207 C 
ATOM     10  C   LIG A   1      -8.194   4.744 134.253  0.00  0.00    +0.049 C 
ATOM     11  C   LIG A   1      -8.980   3.499 133.814  0.00  0.00    +0.013 C 
ENDROOT
BRANCH   9  12
ATOM     12  C   LIG A   1      -9.102   5.930 132.034  0.00  0.00    +0.000 A 
ATOM     13  C   LIG A   1     -10.465   6.215 132.188  0.00  0.00    +0.057 A 
ATOM     14  C   LIG A   1     -11.345   6.248 131.099  0.00  0.00    +0.166 A 
ATOM     15  C   LIG A   1     -10.883   5.926 129.807  0.00  0.00    +0.203 A 
ATOM     16  C   LIG A   1      -9.527   5.593 129.637  0.00  0.00    +0.166 A 
ATOM     17  C   LIG A   1      -8.657   5.593 130.749  0.00  0.00    +0.057 A 
BRANCH  14  18
ATOM     18  O   LIG A   1     -12.685   6.534 131.248  0.00  0.00    -0.491 OA
ATOM     19  C   LIG A   1     -12.994   7.888 131.573  0.00  0.00    +0.277 C 
ENDBRANCH  14  18
BRANCH  16  20
ATOM     20  O   LIG A   1      -9.053   5.360 128.368  0.00  0.00    -0.491 OA
ATOM     21  C   LIG A   1      -8.046   4.355 128.264  0.00  0.00    +0.277 C 
ENDBRANCH  16  20
BRANCH  15  22
ATOM     22  O   LIG A   1     -11.825   6.047 128.816  0.00  0.00    -0.488 OA
ATOM     23  C   LIG A   1     -11.854   7.216 128.011  0.00  0.00    +0.277 C 
ENDBRANCH  15  22
ENDBRANCH   9  12
BRANCH   6  24
ATOM     24  O   LIG A   1      -5.096   1.054 134.506  0.00  0.00    -0.492 OA
ATOM     25  C   LIG A   1      -5.467   0.038 133.580  0.00  0.00    +0.277 C 
ENDBRANCH   6  24
BRANCH   1  26
ATOM     26  C   LIG A   1      -6.200   5.351 135.745  0.00  0.00    +0.045 C 
BRANCH  26  27
ATOM     27  C   LIG A   1      -7.299   5.951 136.596  0.00  0.00    -0.033 C 
ATOM     28  C   LIG A   1      -7.178   6.264 137.892  0.00  0.00    +0.004 C 
ENDBRANCH  26  27
ENDBRANCH   1  26
TORSDOF 7
ENDMDL
MODEL 6
REMARK VINA RESULT:      -6.8      3.089      4.904
REMARK  Name = NuBBE_2482
REMARK  12 active torsions:
REMARK  status: ('A' for Active; 'I' for Inactive)
REMARK    1  A    between atoms: C_1  and  C_2
REMARK    2  A    between atoms: C_1  and  C_4
REMARK    3  A    between atoms: C_9  and  O_11
REMARK    4  A    between atoms: O_11  and  C_12
REMARK    5  A    between atoms: C_14  and  C_19
REMARK    6  A    between atoms: C_16  and  C_18
REMARK    7  A    between atoms: C_21  and  O_22
REMARK    8  A    between atoms: O_22  and  C_23
REMARK    9  A    between atoms: C_24  and  O_29
REMARK   10  A    between atoms: C_25  and  O_27
REMARK   11  A    between atoms: O_27  and  C_28
REMARK   12  A    between atoms: O_29  and  C_30
REMARK                            x       y       z     vdW  Elec       q    Type
REMARK                         _______ _______ _______ _____ _____    ______ ____
ROOT
ATOM      1  C   LIG A   1      -7.566  -0.887 127.181  0.00  0.00    +0.059 C 
ATOM      2  C   LIG A   1      -6.109  -0.924 126.854  0.00  0.00    +0.113 C 
ATOM      3  C   LIG A   1      -5.585  -1.433 125.733  0.00  0.00    +0.096 C 
ATOM      4  C   LIG A   1      -6.476  -1.986 124.705  0.00  0.00    +0.223 C 
ATOM      5  O   LIG A   1      -5.971  -2.640 123.787  0.00  0.00    -0.284 OA
ATOM      6  C   LIG A   1      -7.952  -1.667 124.819  0.00  0.00    +0.164 C 
ATOM      7  C   LIG A   1      -8.421  -1.162 125.965  0.00  0.00    +0.038 C 
ATOM      8  O   LIG A   1      -5.345  -0.244 127.764  0.00  0.00    -0.487 OA
ATOM      9  C   LIG A   1      -6.196   0.802 128.303  0.00  0.00    +0.207 C 
ATOM     10  C   LIG A   1      -7.643   0.549 127.766  0.00  0.00    +0.049 C 
ATOM     11  C   LIG A   1      -8.190   1.593 126.781  0.00  0.00    +0.013 C 
ENDROOT
BRANCH   9  12
ATOM     12  C   LIG A   1      -5.528   2.154 128.079  0.00  0.00    +0.000 A 
ATOM     13  C   LIG A   1      -5.949   3.292 128.780  0.00  0.00    +0.057 A 
ATOM     14  C   LIG A   1      -5.334   4.539 128.613  0.00  0.00    +0.166 A 
ATOM     15  C   LIG A   1      -4.298   4.695 127.670  0.00  0.00    +0.203 A 
ATOM     16  C   LIG A   1      -3.888   3.575 126.923  0.00  0.00    +0.166 A 
ATOM     17  C   LIG A   1      -4.510   2.325 127.132  0.00  0.00    +0.057 A 
BRANCH  14  18
ATOM     18  O   LIG A   1      -5.744   5.657 129.306  0.00  0.00    -0.491 OA
ATOM     19  C   LIG A   1      -5.659   5.567 130.727  0.00  0.00    +0.277 C 
ENDBRANCH  14  18
BRANCH  16  20
ATOM     20  O   LIG A   1      -2.824   3.701 126.063  0.00  0.00    -0.491 OA
ATOM     21  C   LIG A   1      -1.626   3.042 126.468  0.00  0.00    +0.277 C 
ENDBRANCH  16  20
BRANCH  15  22
ATOM     22  O   LIG A   1      -3.738   5.948 127.637  0.00  0.00    -0.488 OA
ATOM     23  C   LIG A   1      -2.516   6.191 128.317  0.00  0.00    +0.277 C 
ENDBRANCH  15  22
ENDBRANCH   9  12
BRANCH   6  24
ATOM     24  O   LIG A   1      -8.868  -1.887 123.785  0.00  0.00    -0.492 OA
ATOM     25  C   LIG A   1      -9.409  -3.199 123.660  0.00  0.00    +0.277 C 
ENDBRANCH   6  24
BRANCH   1  26
ATOM     26  C   LIG A   1      -7.908  -1.946 128.290  0.00  0.00    +0.045 C 
BRANCH  26  27
ATOM     27  C   LIG A   1      -8.175  -3.347 127.782  0.00  0.00    -0.033 C 
ATOM     28  C   LIG A   1      -9.239  -4.090 128.112  0.00  0.00    +0.004 C 
ENDBRANCH  26  27
ENDBRANCH   1  26
TORSDOF 7
ENDMDL
MODEL 7
REMARK VINA RESULT:      -6.6      3.119      6.040
REMARK  Name = NuBBE_2482
REMARK  12 active torsions:
REMARK  status: ('A' for Active; 'I' for Inactive)
REMARK    1  A    between atoms: C_1  and  C_2
REMARK    2  A    between atoms: C_1  and  C_4
REMARK    3  A    between atoms: C_9  and  O_11
REMARK    4  A    between atoms: O_11  and  C_12
REMARK    5  A    between atoms: C_14  and  C_19
REMARK    6  A    between atoms: C_16  and  C_18
REMARK    7  A    between atoms: C_21  and  O_22
REMARK    8  A    between atoms: O_22  and  C_23
REMARK    9  A    between atoms: C_24  and  O_29
REMARK   10  A    between atoms: C_25  and  O_27
REMARK   11  A    between atoms: O_27  and  C_28
REMARK   12  A    between atoms: O_29  and  C_30
REMARK                            x       y       z     vdW  Elec       q    Type
REMARK                         _______ _______ _______ _____ _____    ______ ____
ROOT
ATOM      1  C   LIG A   1      -5.761  -3.383 130.795  0.00  0.00    +0.059 C 
ATOM      2  C   LIG A   1      -7.132  -2.863 131.075  0.00  0.00    +0.113 C 
ATOM      3  C   LIG A   1      -7.445  -2.006 132.054  0.00  0.00    +0.096 C 
ATOM      4  C   LIG A   1      -6.384  -1.492 132.930  0.00  0.00    +0.223 C 
ATOM      5  O   LIG A   1      -6.717  -0.882 133.950  0.00  0.00    -0.284 OA
ATOM      6  C   LIG A   1      -4.952  -1.704 132.487  0.00  0.00    +0.164 C 
ATOM      7  C   LIG A   1      -4.698  -2.575 131.505  0.00  0.00    +0.038 C 
ATOM      8  O   LIG A   1      -8.045  -3.239 130.125  0.00  0.00    -0.487 OA
ATOM      9  C   LIG A   1      -7.299  -3.403 128.891  0.00  0.00    +0.207 C 
ATOM     10  C   LIG A   1      -5.779  -3.285 129.245  0.00  0.00    +0.049 C 
ATOM     11  C   LIG A   1      -5.050  -2.051 128.692  0.00  0.00    +0.013 C 
ENDROOT
BRANCH   9  12
ATOM     12  C   LIG A   1      -7.901  -2.500 127.820  0.00  0.00    +0.000 A 
ATOM     13  C   LIG A   1      -8.541  -3.041 126.697  0.00  0.00    +0.057 A 
ATOM     14  C   LIG A   1      -9.127  -2.233 125.714  0.00  0.00    +0.166 A 
ATOM     15  C   LIG A   1      -9.028  -0.830 125.801  0.00  0.00    +0.203 A 
ATOM     16  C   LIG A   1      -8.351  -0.266 126.898  0.00  0.00    +0.166 A 
ATOM     17  C   LIG A   1      -7.793  -1.105 127.887  0.00  0.00    +0.057 A 
BRANCH  14  18
ATOM     18  O   LIG A   1      -9.762  -2.764 124.613  0.00  0.00    -0.491 OA
ATOM     19  C   LIG A   1      -8.906  -3.285 123.598  0.00  0.00    +0.277 C 
ENDBRANCH  14  18
BRANCH  16  20
ATOM     20  O   LIG A   1      -8.323   1.102 127.032  0.00  0.00    -0.491 OA
ATOM     21  C   LIG A   1      -7.029   1.698 126.972  0.00  0.00    +0.277 C 
ENDBRANCH  16  20
BRANCH  15  22
ATOM     22  O   LIG A   1      -9.688  -0.147 124.810  0.00  0.00    -0.488 OA
ATOM     23  C   LIG A   1      -8.945   0.521 123.801  0.00  0.00    +0.277 C 
ENDBRANCH  15  22
ENDBRANCH   9  12
BRANCH   6  24
ATOM     24  O   LIG A   1      -3.863  -1.043 133.065  0.00  0.00    -0.492 OA
ATOM     25  C   LIG A   1      -2.924  -1.837 133.784  0.00  0.00    +0.277 C 
ENDBRANCH   6  24
BRANCH   1  26
ATOM     26  C   LIG A   1      -5.639  -4.884 131.244  0.00  0.00    +0.045 C 
BRANCH  26  27
ATOM     27  C   LIG A   1      -5.183  -5.094 132.672  0.00  0.00    -0.033 C 
ATOM     28  C   LIG A   1      -5.997  -5.182 133.731  0.00  0.00    +0.004 C 
ENDBRANCH  26  27
ENDBRANCH   1  26
TORSDOF 7
ENDMDL
MODEL 8
REMARK VINA RESULT:      -6.6      3.544      6.451
REMARK  Name = NuBBE_2482
REMARK  12 active torsions:
REMARK  status: ('A' for Active; 'I' for Inactive)
REMARK    1  A    between atoms: C_1  and  C_2
REMARK    2  A    between atoms: C_1  and  C_4
REMARK    3  A    between atoms: C_9  and  O_11
REMARK    4  A    between atoms: O_11  and  C_12
REMARK    5  A    between atoms: C_14  and  C_19
REMARK    6  A    between atoms: C_16  and  C_18
REMARK    7  A    between atoms: C_21  and  O_22
REMARK    8  A    between atoms: O_22  and  C_23
REMARK    9  A    between atoms: C_24  and  O_29
REMARK   10  A    between atoms: C_25  and  O_27
REMARK   11  A    between atoms: O_27  and  C_28
REMARK   12  A    between atoms: O_29  and  C_30
REMARK                            x       y       z     vdW  Elec       q    Type
REMARK                         _______ _______ _______ _____ _____    ______ ____
ROOT
ATOM      1  C   LIG A   1      -7.020   2.545 123.633  0.00  0.00    +0.059 C 
ATOM      2  C   LIG A   1      -8.302   2.980 124.264  0.00  0.00    +0.113 C 
ATOM      3  C   LIG A   1      -9.436   2.268 124.271  0.00  0.00    +0.096 C 
ATOM      4  C   LIG A   1      -9.459   0.941 123.644  0.00  0.00    +0.223 C 
ATOM      5  O   LIG A   1     -10.554   0.398 123.471  0.00  0.00    -0.284 OA
ATOM      6  C   LIG A   1      -8.126   0.308 123.303  0.00  0.00    +0.164 C 
ATOM      7  C   LIG A   1      -7.026   1.068 123.309  0.00  0.00    +0.038 C 
ATOM      8  O   LIG A   1      -8.173   4.141 124.978  0.00  0.00    -0.487 OA
ATOM      9  C   LIG A   1      -6.798   4.179 125.441  0.00  0.00    +0.207 C 
ATOM     10  C   LIG A   1      -6.038   3.000 124.747  0.00  0.00    +0.049 C 
ATOM     11  C   LIG A   1      -5.571   1.863 125.667  0.00  0.00    +0.013 C 
ENDROOT
BRANCH   9  12
ATOM     12  C   LIG A   1      -6.786   4.299 126.962  0.00  0.00    +0.000 A 
ATOM     13  C   LIG A   1      -5.587   4.487 127.661  0.00  0.00    +0.057 A 
ATOM     14  C   LIG A   1      -5.553   4.628 129.054  0.00  0.00    +0.166 A 
ATOM     15  C   LIG A   1      -6.741   4.519 129.805  0.00  0.00    +0.203 A 
ATOM     16  C   LIG A   1      -7.952   4.286 129.126  0.00  0.00    +0.166 A 
ATOM     17  C   LIG A   1      -7.958   4.174 127.719  0.00  0.00    +0.057 A 
BRANCH  14  18
ATOM     18  O   LIG A   1      -4.375   4.819 129.743  0.00  0.00    -0.491 OA
ATOM     19  C   LIG A   1      -3.209   4.263 129.137  0.00  0.00    +0.277 C 
ENDBRANCH  14  18
BRANCH  16  20
ATOM     20  O   LIG A   1      -9.123   4.261 129.844  0.00  0.00    -0.491 OA
ATOM     21  C   LIG A   1      -9.553   2.970 130.272  0.00  0.00    +0.277 C 
ENDBRANCH  16  20
BRANCH  15  22
ATOM     22  O   LIG A   1      -6.588   4.730 131.152  0.00  0.00    -0.488 OA
ATOM     23  C   LIG A   1      -6.882   6.005 131.703  0.00  0.00    +0.277 C 
ENDBRANCH  15  22
ENDBRANCH   9  12
BRANCH   6  24
ATOM     24  O   LIG A   1      -7.980  -1.041 122.962  0.00  0.00    -0.492 OA
ATOM     25  C   LIG A   1      -6.688  -1.619 123.122  0.00  0.00    +0.277 C 
ENDBRANCH   6  24
BRANCH   1  26
ATOM     26  C   LIG A   1      -6.755   3.352 122.311  0.00  0.00    +0.045 C 
BRANCH  26  27
ATOM     27  C   LIG A   1      -5.464   4.140 122.285  0.00  0.00    -0.033 C 
ATOM     28  C   LIG A   1      -4.856   4.577 121.175  0.00  0.00    +0.004 C 
ENDBRANCH  26  27
ENDBRANCH   1  26
TORSDOF 7
ENDMDL
MODEL 9
REMARK VINA RESULT:      -6.5      3.499      7.161
REMARK  Name = NuBBE_2482
REMARK  12 active torsions:
REMARK  status: ('A' for Active; 'I' for Inactive)
REMARK    1  A    between atoms: C_1  and  C_2
REMARK    2  A    between atoms: C_1  and  C_4
REMARK    3  A    between atoms: C_9  and  O_11
REMARK    4  A    between atoms: O_11  and  C_12
REMARK    5  A    between atoms: C_14  and  C_19
REMARK    6  A    between atoms: C_16  and  C_18
REMARK    7  A    between atoms: C_21  and  O_22
REMARK    8  A    between atoms: O_22  and  C_23
REMARK    9  A    between atoms: C_24  and  O_29
REMARK   10  A    between atoms: C_25  and  O_27
REMARK   11  A    between atoms: O_27  and  C_28
REMARK   12  A    between atoms: O_29  and  C_30
REMARK                            x       y       z     vdW  Elec       q    Type
REMARK                         _______ _______ _______ _____ _____    ______ ____
ROOT
ATOM      1  C   LIG A   1      -6.036   3.327 124.491  0.00  0.00    +0.059 C 
ATOM      2  C   LIG A   1      -7.115   3.999 125.275  0.00  0.00    +0.113 C 
ATOM      3  C   LIG A   1      -8.389   3.595 125.334  0.00  0.00    +0.096 C 
ATOM      4  C   LIG A   1      -8.797   2.386 124.607  0.00  0.00    +0.223 C 
ATOM      5  O   LIG A   1     -10.005   2.154 124.497  0.00  0.00    -0.284 OA
ATOM      6  C   LIG A   1      -7.699   1.481 124.089  0.00  0.00    +0.164 C 
ATOM      7  C   LIG A   1      -6.444   1.940 124.050  0.00  0.00    +0.038 C 
ATOM      8  O   LIG A   1      -6.641   5.013 126.066  0.00  0.00    -0.487 OA
ATOM      9  C   LIG A   1      -5.272   4.661 126.396  0.00  0.00    +0.207 C 
ATOM     10  C   LIG A   1      -4.893   3.408 125.538  0.00  0.00    +0.049 C 
ATOM     11  C   LIG A   1      -4.667   2.101 126.314  0.00  0.00    +0.013 C 
ENDROOT
BRANCH   9  12
ATOM     12  C   LIG A   1      -5.120   4.617 127.913  0.00  0.00    +0.000 A 
ATOM     13  C   LIG A   1      -6.217   4.342 128.740  0.00  0.00    +0.057 A 
ATOM     14  C   LIG A   1      -6.098   4.269 130.134  0.00  0.00    +0.166 A 
ATOM     15  C   LIG A   1      -4.860   4.538 130.752  0.00  0.00    +0.203 A 
ATOM     16  C   LIG A   1      -3.755   4.860 129.942  0.00  0.00    +0.166 A 
ATOM     17  C   LIG A   1      -3.900   4.901 128.539  0.00  0.00    +0.057 A 
BRANCH  14  18
ATOM     18  O   LIG A   1      -7.174   3.993 130.948  0.00  0.00    -0.491 OA
ATOM     19  C   LIG A   1      -8.220   4.963 130.938  0.00  0.00    +0.277 C 
ENDBRANCH  14  18
BRANCH  16  20
ATOM     20  O   LIG A   1      -2.527   5.041 130.533  0.00  0.00    -0.491 OA
ATOM     21  C   LIG A   1      -2.065   6.390 130.586  0.00  0.00    +0.277 C 
ENDBRANCH  16  20
BRANCH  15  22
ATOM     22  O   LIG A   1      -4.855   4.381 132.115  0.00  0.00    -0.488 OA
ATOM     23  C   LIG A   1      -4.912   5.524 132.956  0.00  0.00    +0.277 C 
ENDBRANCH  15  22
ENDBRANCH   9  12
BRANCH   6  24
ATOM     24  O   LIG A   1      -7.929   0.181 123.627  0.00  0.00    -0.492 OA
ATOM     25  C   LIG A   1      -6.789  -0.604 123.291  0.00  0.00    +0.277 C 
ENDBRANCH   6  24
BRANCH   1  26
ATOM     26  C   LIG A   1      -5.671   4.175 123.220  0.00  0.00    +0.045 C 
BRANCH  26  27
ATOM     27  C   LIG A   1      -6.096   3.571 121.899  0.00  0.00    -0.033 C 
ATOM     28  C   LIG A   1      -5.510   3.819 120.720  0.00  0.00    +0.004 C 
ENDBRANCH  26  27
ENDBRANCH   1  26
TORSDOF 7
ENDMDL
