MODEL 1
REMARK VINA RESULT:      -4.4      0.000      0.000
REMARK  Name = NuBBE_1977
REMARK  1 active torsions:
REMARK  status: ('A' for Active; 'I' for Inactive)
REMARK    1  A    between atoms: C_1  and  C_3
REMARK                            x       y       z     vdW  Elec       q    Type
REMARK                         _______ _______ _______ _____ _____    ______ ____
ROOT
ATOM      1  C   LIG A   1     -13.305   8.211 129.023  0.00  0.00    +0.084 C 
ATOM      2  C   LIG A   1     -13.654   7.378 127.770  0.00  0.00    +0.046 C 
ATOM      3  C   LIG A   1     -12.586   7.094 126.738  0.00  0.00    -0.018 C 
ATOM      4  C   LIG A   1     -11.281   7.400 126.775  0.00  0.00    +0.048 C 
ATOM      5  S   LIG A   1     -10.487   8.299 128.016  0.00  0.00    -0.065 S 
ATOM      6  S   LIG A   1     -11.643   7.774 129.629  0.00  0.00    -0.081 S 
ENDROOT
BRANCH   1   7
ATOM      7  C   LIG A   1     -13.435   9.700 128.803  0.00  0.00    -0.019 C 
ATOM      8  C   LIG A   1     -13.401  10.616 129.781  0.00  0.00    +0.005 C 
ENDBRANCH   1   7
TORSDOF 1
ENDMDL
MODEL 2
REMARK VINA RESULT:      -4.3      1.965      2.558
REMARK  Name = NuBBE_1977
REMARK  1 active torsions:
REMARK  status: ('A' for Active; 'I' for Inactive)
REMARK    1  A    between atoms: C_1  and  C_3
REMARK                            x       y       z     vdW  Elec       q    Type
REMARK                         _______ _______ _______ _____ _____    ______ ____
ROOT
ATOM      1  C   LIG A   1     -12.578   8.598 128.685  0.00  0.00    +0.084 C 
ATOM      2  C   LIG A   1     -11.069   8.594 128.358  0.00  0.00    +0.046 C 
ATOM      3  C   LIG A   1     -10.119   7.790 129.216  0.00  0.00    -0.018 C 
ATOM      4  C   LIG A   1     -10.402   6.963 130.234  0.00  0.00    +0.048 C 
ATOM      5  S   LIG A   1     -11.970   6.666 130.890  0.00  0.00    -0.065 S 
ATOM      6  S   LIG A   1     -13.116   6.937 129.208  0.00  0.00    -0.081 S 
ENDROOT
BRANCH   1   7
ATOM      7  C   LIG A   1     -12.965   9.645 129.702  0.00  0.00    -0.019 C 
ATOM      8  C   LIG A   1     -13.568  10.805 129.404  0.00  0.00    +0.005 C 
ENDBRANCH   1   7
TORSDOF 1
ENDMDL
MODEL 3
REMARK VINA RESULT:      -4.3      1.865      3.365
REMARK  Name = NuBBE_1977
REMARK  1 active torsions:
REMARK  status: ('A' for Active; 'I' for Inactive)
REMARK    1  A    between atoms: C_1  and  C_3
REMARK                            x       y       z     vdW  Elec       q    Type
REMARK                         _______ _______ _______ _____ _____    ______ ____
ROOT
ATOM      1  C   LIG A   1     -11.876   8.272 128.865  0.00  0.00    +0.084 C 
ATOM      2  C   LIG A   1     -12.754   8.580 130.097  0.00  0.00    +0.046 C 
ATOM      3  C   LIG A   1     -12.762   7.625 131.270  0.00  0.00    -0.018 C 
ATOM      4  C   LIG A   1     -12.021   6.522 131.460  0.00  0.00    +0.048 C 
ATOM      5  S   LIG A   1     -10.897   5.853 130.335  0.00  0.00    -0.065 S 
ATOM      6  S   LIG A   1     -10.278   7.567 129.389  0.00  0.00    -0.081 S 
ENDROOT
BRANCH   1   7
ATOM      7  C   LIG A   1     -12.561   7.385 127.853  0.00  0.00    -0.019 C 
ATOM      8  C   LIG A   1     -13.874   7.116 127.846  0.00  0.00    +0.005 C 
ENDBRANCH   1   7
TORSDOF 1
ENDMDL
MODEL 4
REMARK VINA RESULT:      -4.2     12.660     13.878
REMARK  Name = NuBBE_1977
REMARK  1 active torsions:
REMARK  status: ('A' for Active; 'I' for Inactive)
REMARK    1  A    between atoms: C_1  and  C_3
REMARK                            x       y       z     vdW  Elec       q    Type
REMARK                         _______ _______ _______ _____ _____    ______ ____
ROOT
ATOM      1  C   LIG A   1      -5.648  -2.600 124.113  0.00  0.00    +0.084 C 
ATOM      2  C   LIG A   1      -6.277  -1.954 122.860  0.00  0.00    +0.046 C 
ATOM      3  C   LIG A   1      -7.760  -2.102 122.606  0.00  0.00    -0.018 C 
ATOM      4  C   LIG A   1      -8.693  -2.673 123.384  0.00  0.00    +0.048 C 
ATOM      5  S   LIG A   1      -8.404  -3.481 124.881  0.00  0.00    -0.065 S 
ATOM      6  S   LIG A   1      -6.768  -2.432 125.541  0.00  0.00    -0.081 S 
ENDROOT
BRANCH   1   7
ATOM      7  C   LIG A   1      -5.242  -4.040 123.901  0.00  0.00    -0.019 C 
ATOM      8  C   LIG A   1      -4.006  -4.437 123.564  0.00  0.00    +0.005 C 
ENDBRANCH   1   7
TORSDOF 1
ENDMDL
MODEL 5
REMARK VINA RESULT:      -4.2      2.038      2.711
REMARK  Name = NuBBE_1977
REMARK  1 active torsions:
REMARK  status: ('A' for Active; 'I' for Inactive)
REMARK    1  A    between atoms: C_1  and  C_3
REMARK                            x       y       z     vdW  Elec       q    Type
REMARK                         _______ _______ _______ _____ _____    ______ ____
ROOT
ATOM      1  C   LIG A   1     -11.511   8.493 129.106  0.00  0.00    +0.084 C 
ATOM      2  C   LIG A   1     -10.639   8.208 127.864  0.00  0.00    +0.046 C 
ATOM      3  C   LIG A   1     -11.234   7.476 126.683  0.00  0.00    -0.018 C 
ATOM      4  C   LIG A   1     -12.501   7.077 126.493  0.00  0.00    +0.048 C 
ATOM      5  S   LIG A   1     -13.792   7.235 127.628  0.00  0.00    -0.065 S 
ATOM      6  S   LIG A   1     -13.203   8.945 128.599  0.00  0.00    -0.081 S 
ENDROOT
BRANCH   1   7
ATOM      7  C   LIG A   1     -11.522   7.356 130.100  0.00  0.00    -0.019 C 
ATOM      8  C   LIG A   1     -12.390   7.246 131.116  0.00  0.00    +0.005 C 
ENDBRANCH   1   7
TORSDOF 1
ENDMDL
MODEL 6
REMARK VINA RESULT:      -4.0     11.767     13.534
REMARK  Name = NuBBE_1977
REMARK  1 active torsions:
REMARK  status: ('A' for Active; 'I' for Inactive)
REMARK    1  A    between atoms: C_1  and  C_3
REMARK                            x       y       z     vdW  Elec       q    Type
REMARK                         _______ _______ _______ _____ _____    ______ ____
ROOT
ATOM      1  C   LIG A   1      -5.803  -2.955 124.746  0.00  0.00    +0.084 C 
ATOM      2  C   LIG A   1      -5.629  -1.482 125.175  0.00  0.00    +0.046 C 
ATOM      3  C   LIG A   1      -6.428  -0.401 124.483  0.00  0.00    -0.018 C 
ATOM      4  C   LIG A   1      -7.384  -0.530 123.551  0.00  0.00    +0.048 C 
ATOM      5  S   LIG A   1      -7.897  -2.010 122.826  0.00  0.00    -0.065 S 
ATOM      6  S   LIG A   1      -7.555  -3.304 124.382  0.00  0.00    -0.081 S 
ENDROOT
BRANCH   1   7
ATOM      7  C   LIG A   1      -4.914  -3.348 123.591  0.00  0.00    -0.019 C 
ATOM      8  C   LIG A   1      -4.251  -4.510 123.505  0.00  0.00    +0.005 C 
ENDBRANCH   1   7
TORSDOF 1
ENDMDL
MODEL 7
REMARK VINA RESULT:      -3.9     11.812     12.527
REMARK  Name = NuBBE_1977
REMARK  1 active torsions:
REMARK  status: ('A' for Active; 'I' for Inactive)
REMARK    1  A    between atoms: C_1  and  C_3
REMARK                            x       y       z     vdW  Elec       q    Type
REMARK                         _______ _______ _______ _____ _____    ______ ____
ROOT
ATOM      1  C   LIG A   1      -8.415  -3.693 124.877  0.00  0.00    +0.084 C 
ATOM      2  C   LIG A   1      -9.388  -3.299 123.744  0.00  0.00    +0.046 C 
ATOM      3  C   LIG A   1      -9.161  -2.018 122.973  0.00  0.00    -0.018 C 
ATOM      4  C   LIG A   1      -8.141  -1.151 123.066  0.00  0.00    +0.048 C 
ATOM      5  S   LIG A   1      -6.832  -1.246 124.187  0.00  0.00    -0.065 S 
ATOM      6  S   LIG A   1      -6.701  -3.283 124.409  0.00  0.00    -0.081 S 
ENDROOT
BRANCH   1   7
ATOM      7  C   LIG A   1      -8.778  -3.087 126.212  0.00  0.00    -0.019 C 
ATOM      8  C   LIG A   1      -8.888  -3.780 127.354  0.00  0.00    +0.005 C 
ENDBRANCH   1   7
TORSDOF 1
ENDMDL
MODEL 8
REMARK VINA RESULT:      -3.8     11.350     13.051
REMARK  Name = NuBBE_1977
REMARK  1 active torsions:
REMARK  status: ('A' for Active; 'I' for Inactive)
REMARK    1  A    between atoms: C_1  and  C_3
REMARK                            x       y       z     vdW  Elec       q    Type
REMARK                         _______ _______ _______ _____ _____    ______ ____
ROOT
ATOM      1  C   LIG A   1      -7.345  -3.384 123.870  0.00  0.00    +0.084 C 
ATOM      2  C   LIG A   1      -8.287  -3.937 124.962  0.00  0.00    +0.046 C 
ATOM      3  C   LIG A   1      -9.019  -2.980 125.875  0.00  0.00    -0.018 C 
ATOM      4  C   LIG A   1      -9.046  -1.639 125.837  0.00  0.00    +0.048 C 
ATOM      5  S   LIG A   1      -8.155  -0.639 124.749  0.00  0.00    -0.065 S 
ATOM      6  S   LIG A   1      -8.059  -1.884 123.120  0.00  0.00    -0.081 S 
ENDROOT
BRANCH   1   7
ATOM      7  C   LIG A   1      -5.941  -3.134 124.366  0.00  0.00    -0.019 C 
ATOM      8  C   LIG A   1      -4.844  -3.723 123.867  0.00  0.00    +0.005 C 
ENDBRANCH   1   7
TORSDOF 1
ENDMDL
MODEL 9
REMARK VINA RESULT:      -3.7      3.035      4.123
REMARK  Name = NuBBE_1977
REMARK  1 active torsions:
REMARK  status: ('A' for Active; 'I' for Inactive)
REMARK    1  A    between atoms: C_1  and  C_3
REMARK                            x       y       z     vdW  Elec       q    Type
REMARK                         _______ _______ _______ _____ _____    ______ ____
ROOT
ATOM      1  C   LIG A   1     -10.830   6.373 130.047  0.00  0.00    +0.084 C 
ATOM      2  C   LIG A   1     -11.778   6.465 131.262  0.00  0.00    +0.046 C 
ATOM      3  C   LIG A   1     -12.773   7.600 131.352  0.00  0.00    -0.018 C 
ATOM      4  C   LIG A   1     -13.037   8.558 130.451  0.00  0.00    +0.048 C 
ATOM      5  S   LIG A   1     -12.220   8.787 128.948  0.00  0.00    -0.065 S 
ATOM      6  S   LIG A   1     -11.710   6.845 128.522  0.00  0.00    -0.081 S 
ENDROOT
BRANCH   1   7
ATOM      7  C   LIG A   1      -9.562   7.175 130.219  0.00  0.00    -0.019 C 
ATOM      8  C   LIG A   1      -8.523   6.798 130.978  0.00  0.00    +0.005 C 
ENDBRANCH   1   7
TORSDOF 1
ENDMDL
