MODEL 1
REMARK VINA RESULT:      -7.7      0.000      0.000
REMARK  Name = NuBBE_1949
REMARK  13 active torsions:
REMARK  status: ('A' for Active; 'I' for Inactive)
REMARK    1  A    between atoms: C_1  and  C_2
REMARK    2  A    between atoms: C_12  and  C_13
REMARK    3  A    between atoms: C_12  and  C_14
REMARK    4  A    between atoms: C_15  and  O_19
REMARK    5  A    between atoms: C_22  and  C_23
REMARK    6  A    between atoms: C_24  and  C_28
REMARK    7  A    between atoms: C_28  and  C_30
REMARK    8  A    between atoms: C_28  and  C_37
REMARK    9  A    between atoms: C_30  and  C_31
REMARK   10  A    between atoms: C_31  and  C_32
REMARK   11  A    between atoms: C_32  and  C_34
REMARK   12  A    between atoms: C_34  and  C_35
REMARK   13  A    between atoms: C_34  and  C_36
REMARK                            x       y       z     vdW  Elec       q    Type
REMARK                         _______ _______ _______ _____ _____    ______ ____
ROOT
ATOM      1  C   LIG A   1      -7.431  -4.319 124.764  0.00  0.00    +0.012 C 
ATOM      2  C   LIG A   1      -7.238  -2.790 124.647  0.00  0.00    -0.023 C 
ATOM      3  C   LIG A   1      -6.663  -2.201 126.005  0.00  0.00    +0.002 C 
ATOM      4  C   LIG A   1      -7.733  -2.170 127.109  0.00  0.00    -0.019 C 
ATOM      5  C   LIG A   1      -7.276  -2.229 128.595  0.00  0.00    -0.019 C 
ATOM      6  C   LIG A   1      -8.088  -3.352 127.981  0.00  0.00    +0.015 C 
ATOM      7  C   LIG A   1      -5.826  -2.631 128.940  0.00  0.00    +0.004 C 
ATOM      8  C   LIG A   1      -4.878  -2.207 127.811  0.00  0.00    +0.005 C 
ATOM      9  C   LIG A   1      -5.336  -2.821 126.484  0.00  0.00    +0.005 C 
ATOM     10  C   LIG A   1      -5.360  -2.236 130.384  0.00  0.00    -0.006 C 
ATOM     11  C   LIG A   1      -4.817  -0.796 130.490  0.00  0.00    +0.014 C 
ATOM     12  C   LIG A   1      -4.201  -3.173 130.820  0.00  0.00    +0.014 C 
ATOM     13  C   LIG A   1      -6.550  -2.475 131.346  0.00  0.00    +0.120 C 
ATOM     14  C   LIG A   1      -7.781  -1.634 131.024  0.00  0.00    +0.032 C 
ATOM     15  C   LIG A   1      -7.934  -1.263 129.557  0.00  0.00    +0.010 C 
ATOM     16  C   LIG A   1      -8.910  -1.320 126.679  0.00  0.00    +0.008 C 
ATOM     17  C   LIG A   1      -9.519  -1.882 125.400  0.00  0.00    +0.008 C 
ATOM     18  C   LIG A   1      -8.560  -2.035 124.195  0.00  0.00    -0.023 C 
ATOM     19  C   LIG A   1      -9.374  -2.852 123.136  0.00  0.00    +0.012 C 
ATOM     20  C   LIG A   1      -8.049  -0.742 123.407  0.00  0.00    -0.002 C 
ATOM     21  C   LIG A   1      -6.587  -1.068 123.024  0.00  0.00    +0.005 C 
ATOM     22  C   LIG A   1      -6.296  -2.500 123.461  0.00  0.00    +0.008 C 
ENDROOT
BRANCH  13  23
ATOM     23  O   LIG A   1      -6.174  -2.230 132.703  0.00  0.00    -0.391 OA
ATOM     24  H   LIG A   1      -6.194  -1.268 132.843  0.00  0.00    +0.210 HD
ENDBRANCH  13  23
BRANCH  20  25
ATOM     25  C   LIG A   1      -8.237   0.704 123.986  0.00  0.00    -0.010 C 
ATOM     26  C   LIG A   1      -9.521   1.334 123.418  0.00  0.00    +0.008 C 
BRANCH  25  27
ATOM     27  C   LIG A   1      -7.023   1.654 123.684  0.00  0.00    +0.008 C 
BRANCH  27  28
ATOM     28  C   LIG A   1      -6.494   2.422 124.927  0.00  0.00    +0.030 C 
BRANCH  28  29
ATOM     29  C   LIG A   1      -6.023   1.559 126.097  0.00  0.00    -0.074 C 
ATOM     30  C   LIG A   1      -4.836   0.904 126.030  0.00  0.00    +0.008 C 
BRANCH  29  31
ATOM     31  C   LIG A   1      -6.818   1.494 127.400  0.00  0.00    +0.008 C 
ATOM     32  C   LIG A   1      -6.030   1.955 128.629  0.00  0.00    +0.012 C 
ATOM     33  C   LIG A   1      -8.154   2.228 127.311  0.00  0.00    +0.012 C 
ENDBRANCH  29  31
ENDBRANCH  28  29
ENDBRANCH  27  28
ENDBRANCH  25  27
ENDBRANCH  20  25
TORSDOF 6
ENDMDL
MODEL 2
REMARK VINA RESULT:      -7.6      2.284      6.562
REMARK  Name = NuBBE_1949
REMARK  13 active torsions:
REMARK  status: ('A' for Active; 'I' for Inactive)
REMARK    1  A    between atoms: C_1  and  C_2
REMARK    2  A    between atoms: C_12  and  C_13
REMARK    3  A    between atoms: C_12  and  C_14
REMARK    4  A    between atoms: C_15  and  O_19
REMARK    5  A    between atoms: C_22  and  C_23
REMARK    6  A    between atoms: C_24  and  C_28
REMARK    7  A    between atoms: C_28  and  C_30
REMARK    8  A    between atoms: C_28  and  C_37
REMARK    9  A    between atoms: C_30  and  C_31
REMARK   10  A    between atoms: C_31  and  C_32
REMARK   11  A    between atoms: C_32  and  C_34
REMARK   12  A    between atoms: C_34  and  C_35
REMARK   13  A    between atoms: C_34  and  C_36
REMARK                            x       y       z     vdW  Elec       q    Type
REMARK                         _______ _______ _______ _____ _____    ______ ____
ROOT
ATOM      1  C   LIG A   1      -6.895   3.223 127.485  0.00  0.00    +0.012 C 
ATOM      2  C   LIG A   1      -6.068   2.131 128.201  0.00  0.00    -0.023 C 
ATOM      3  C   LIG A   1      -6.121   0.772 127.381  0.00  0.00    +0.002 C 
ATOM      4  C   LIG A   1      -7.491   0.084 127.509  0.00  0.00    -0.019 C 
ATOM      5  C   LIG A   1      -7.963  -0.861 126.366  0.00  0.00    -0.019 C 
ATOM      6  C   LIG A   1      -8.698   0.430 126.667  0.00  0.00    +0.015 C 
ATOM      7  C   LIG A   1      -7.228  -0.854 125.008  0.00  0.00    +0.004 C 
ATOM      8  C   LIG A   1      -5.752  -0.488 125.207  0.00  0.00    +0.005 C 
ATOM      9  C   LIG A   1      -5.639   0.864 125.920  0.00  0.00    +0.005 C 
ATOM     10  C   LIG A   1      -7.487  -2.115 124.114  0.00  0.00    -0.006 C 
ATOM     11  C   LIG A   1      -6.555  -3.303 124.431  0.00  0.00    +0.014 C 
ATOM     12  C   LIG A   1      -7.236  -1.748 122.627  0.00  0.00    +0.014 C 
ATOM     13  C   LIG A   1      -8.980  -2.501 124.261  0.00  0.00    +0.120 C 
ATOM     14  C   LIG A   1      -9.384  -2.866 125.686  0.00  0.00    +0.032 C 
ATOM     15  C   LIG A   1      -8.570  -2.186 126.775  0.00  0.00    +0.010 C 
ATOM     16  C   LIG A   1      -7.794  -0.220 128.961  0.00  0.00    +0.008 C 
ATOM     17  C   LIG A   1      -7.798   1.068 129.774  0.00  0.00    +0.008 C 
ATOM     18  C   LIG A   1      -6.507   1.919 129.713  0.00  0.00    -0.023 C 
ATOM     19  C   LIG A   1      -6.882   3.268 130.413  0.00  0.00    +0.012 C 
ATOM     20  C   LIG A   1      -5.184   1.427 130.463  0.00  0.00    -0.002 C 
ATOM     21  C   LIG A   1      -4.025   1.849 129.531  0.00  0.00    +0.005 C 
ATOM     22  C   LIG A   1      -4.621   2.636 128.368  0.00  0.00    +0.008 C 
ENDROOT
BRANCH  13  23
ATOM     23  O   LIG A   1      -9.319  -3.588 123.399  0.00  0.00    -0.391 OA
ATOM     24  H   LIG A   1     -10.198  -3.403 123.025  0.00  0.00    +0.210 HD
ENDBRANCH  13  23
BRANCH  20  25
ATOM     25  C   LIG A   1      -5.044  -0.036 131.011  0.00  0.00    -0.010 C 
ATOM     26  C   LIG A   1      -4.939  -0.013 132.546  0.00  0.00    +0.008 C 
BRANCH  25  27
ATOM     27  C   LIG A   1      -3.804  -0.802 130.425  0.00  0.00    +0.008 C 
BRANCH  27  28
ATOM     28  C   LIG A   1      -3.969  -2.346 130.393  0.00  0.00    +0.030 C 
BRANCH  28  29
ATOM     29  C   LIG A   1      -5.079  -2.883 129.491  0.00  0.00    -0.074 C 
ATOM     30  C   LIG A   1      -5.078  -2.604 128.163  0.00  0.00    +0.008 C 
BRANCH  29  31
ATOM     31  C   LIG A   1      -6.153  -3.824 130.037  0.00  0.00    +0.008 C 
ATOM     32  C   LIG A   1      -5.592  -5.008 130.829  0.00  0.00    +0.012 C 
ATOM     33  C   LIG A   1      -7.221  -3.092 130.845  0.00  0.00    +0.012 C 
ENDBRANCH  29  31
ENDBRANCH  28  29
ENDBRANCH  27  28
ENDBRANCH  25  27
ENDBRANCH  20  25
TORSDOF 6
ENDMDL
MODEL 3
REMARK VINA RESULT:      -7.5      2.468      6.967
REMARK  Name = NuBBE_1949
REMARK  13 active torsions:
REMARK  status: ('A' for Active; 'I' for Inactive)
REMARK    1  A    between atoms: C_1  and  C_2
REMARK    2  A    between atoms: C_12  and  C_13
REMARK    3  A    between atoms: C_12  and  C_14
REMARK    4  A    between atoms: C_15  and  O_19
REMARK    5  A    between atoms: C_22  and  C_23
REMARK    6  A    between atoms: C_24  and  C_28
REMARK    7  A    between atoms: C_28  and  C_30
REMARK    8  A    between atoms: C_28  and  C_37
REMARK    9  A    between atoms: C_30  and  C_31
REMARK   10  A    between atoms: C_31  and  C_32
REMARK   11  A    between atoms: C_32  and  C_34
REMARK   12  A    between atoms: C_34  and  C_35
REMARK   13  A    between atoms: C_34  and  C_36
REMARK                            x       y       z     vdW  Elec       q    Type
REMARK                         _______ _______ _______ _____ _____    ______ ____
ROOT
ATOM      1  C   LIG A   1      -5.243  -4.710 131.224  0.00  0.00    +0.012 C 
ATOM      2  C   LIG A   1      -5.672  -3.286 131.643  0.00  0.00    -0.023 C 
ATOM      3  C   LIG A   1      -6.374  -2.540 130.430  0.00  0.00    +0.002 C 
ATOM      4  C   LIG A   1      -5.356  -2.121 129.355  0.00  0.00    -0.019 C 
ATOM      5  C   LIG A   1      -5.844  -1.958 127.886  0.00  0.00    -0.019 C 
ATOM      6  C   LIG A   1      -4.846  -3.035 128.265  0.00  0.00    +0.015 C 
ATOM      7  C   LIG A   1      -7.223  -2.512 127.467  0.00  0.00    +0.004 C 
ATOM      8  C   LIG A   1      -8.190  -2.477 128.656  0.00  0.00    +0.005 C 
ATOM      9  C   LIG A   1      -7.600  -3.259 129.834  0.00  0.00    +0.005 C 
ATOM     10  C   LIG A   1      -7.789  -1.921 126.130  0.00  0.00    -0.006 C 
ATOM     11  C   LIG A   1      -8.555  -0.594 126.313  0.00  0.00    +0.014 C 
ATOM     12  C   LIG A   1      -8.799  -2.927 125.514  0.00  0.00    +0.014 C 
ATOM     13  C   LIG A   1      -6.607  -1.770 125.141  0.00  0.00    +0.120 C 
ATOM     14  C   LIG A   1      -5.515  -0.823 125.626  0.00  0.00    +0.032 C 
ATOM     15  C   LIG A   1      -5.376  -0.729 127.138  0.00  0.00    +0.010 C 
ATOM     16  C   LIG A   1      -4.316  -1.195 129.948  0.00  0.00    +0.008 C 
ATOM     17  C   LIG A   1      -3.586  -1.893 131.090  0.00  0.00    +0.008 C 
ATOM     18  C   LIG A   1      -4.471  -2.432 132.239  0.00  0.00    -0.023 C 
ATOM     19  C   LIG A   1      -3.507  -3.300 133.115  0.00  0.00    +0.012 C 
ATOM     20  C   LIG A   1      -5.155  -1.419 133.269  0.00  0.00    -0.002 C 
ATOM     21  C   LIG A   1      -6.535  -2.045 133.576  0.00  0.00    +0.005 C 
ATOM     22  C   LIG A   1      -6.610  -3.390 132.863  0.00  0.00    +0.008 C 
ENDROOT
BRANCH  13  23
ATOM     23  O   LIG A   1      -7.058  -1.326 123.860  0.00  0.00    -0.391 OA
ATOM     24  H   LIG A   1      -7.025  -0.354 123.859  0.00  0.00    +0.210 HD
ENDBRANCH  13  23
BRANCH  20  25
ATOM     25  C   LIG A   1      -5.216   0.123 132.990  0.00  0.00    -0.010 C 
ATOM     26  C   LIG A   1      -3.982   0.815 133.595  0.00  0.00    +0.008 C 
BRANCH  25  27
ATOM     27  C   LIG A   1      -6.514   0.804 133.556  0.00  0.00    +0.008 C 
BRANCH  27  28
ATOM     28  C   LIG A   1      -7.331   1.593 132.496  0.00  0.00    +0.030 C 
BRANCH  28  29
ATOM     29  C   LIG A   1      -7.871   0.777 131.323  0.00  0.00    -0.074 C 
ATOM     30  C   LIG A   1      -8.856  -0.136 131.520  0.00  0.00    +0.008 C 
BRANCH  29  31
ATOM     31  C   LIG A   1      -7.394   1.036 129.895  0.00  0.00    +0.008 C 
ATOM     32  C   LIG A   1      -8.464   1.650 128.988  0.00  0.00    +0.012 C 
ATOM     33  C   LIG A   1      -6.108   1.857 129.844  0.00  0.00    +0.012 C 
ENDBRANCH  29  31
ENDBRANCH  28  29
ENDBRANCH  27  28
ENDBRANCH  25  27
ENDBRANCH  20  25
TORSDOF 6
ENDMDL
MODEL 4
REMARK VINA RESULT:      -7.5      1.605      2.848
REMARK  Name = NuBBE_1949
REMARK  13 active torsions:
REMARK  status: ('A' for Active; 'I' for Inactive)
REMARK    1  A    between atoms: C_1  and  C_2
REMARK    2  A    between atoms: C_12  and  C_13
REMARK    3  A    between atoms: C_12  and  C_14
REMARK    4  A    between atoms: C_15  and  O_19
REMARK    5  A    between atoms: C_22  and  C_23
REMARK    6  A    between atoms: C_24  and  C_28
REMARK    7  A    between atoms: C_28  and  C_30
REMARK    8  A    between atoms: C_28  and  C_37
REMARK    9  A    between atoms: C_30  and  C_31
REMARK   10  A    between atoms: C_31  and  C_32
REMARK   11  A    between atoms: C_32  and  C_34
REMARK   12  A    between atoms: C_34  and  C_35
REMARK   13  A    between atoms: C_34  and  C_36
REMARK                            x       y       z     vdW  Elec       q    Type
REMARK                         _______ _______ _______ _____ _____    ______ ____
ROOT
ATOM      1  C   LIG A   1      -7.569  -4.319 124.814  0.00  0.00    +0.012 C 
ATOM      2  C   LIG A   1      -7.288  -2.813 124.609  0.00  0.00    -0.023 C 
ATOM      3  C   LIG A   1      -6.691  -2.177 125.936  0.00  0.00    +0.002 C 
ATOM      4  C   LIG A   1      -7.766  -2.020 127.025  0.00  0.00    -0.019 C 
ATOM      5  C   LIG A   1      -7.325  -2.016 128.517  0.00  0.00    -0.019 C 
ATOM      6  C   LIG A   1      -8.194  -3.126 127.962  0.00  0.00    +0.015 C 
ATOM      7  C   LIG A   1      -5.902  -2.477 128.900  0.00  0.00    +0.004 C 
ATOM      8  C   LIG A   1      -4.923  -2.176 127.759  0.00  0.00    +0.005 C 
ATOM      9  C   LIG A   1      -5.405  -2.841 126.466  0.00  0.00    +0.005 C 
ATOM     10  C   LIG A   1      -5.425  -2.024 130.323  0.00  0.00    -0.006 C 
ATOM     11  C   LIG A   1      -4.803  -0.613 130.350  0.00  0.00    +0.014 C 
ATOM     12  C   LIG A   1      -4.325  -2.996 130.827  0.00  0.00    +0.014 C 
ATOM     13  C   LIG A   1      -6.634  -2.137 131.285  0.00  0.00    +0.120 C 
ATOM     14  C   LIG A   1      -7.813  -1.249 130.900  0.00  0.00    +0.032 C 
ATOM     15  C   LIG A   1      -7.934  -0.959 129.412  0.00  0.00    +0.010 C 
ATOM     16  C   LIG A   1      -8.889  -1.133 126.532  0.00  0.00    +0.008 C 
ATOM     17  C   LIG A   1      -9.520  -1.735 125.282  0.00  0.00    +0.008 C 
ATOM     18  C   LIG A   1      -8.562  -2.013 124.099  0.00  0.00    -0.023 C 
ATOM     19  C   LIG A   1      -9.412  -2.845 123.081  0.00  0.00    +0.012 C 
ATOM     20  C   LIG A   1      -7.973  -0.801 123.241  0.00  0.00    -0.002 C 
ATOM     21  C   LIG A   1      -6.529  -1.231 122.894  0.00  0.00    +0.005 C 
ATOM     22  C   LIG A   1      -6.323  -2.648 123.418  0.00  0.00    +0.008 C 
ENDROOT
BRANCH  13  23
ATOM     23  O   LIG A   1      -6.255  -1.833 132.629  0.00  0.00    -0.391 OA
ATOM     24  H   LIG A   1      -5.461  -1.274 132.590  0.00  0.00    +0.210 HD
ENDBRANCH  13  23
BRANCH  20  25
ATOM     25  C   LIG A   1      -8.082   0.685 123.731  0.00  0.00    -0.010 C 
ATOM     26  C   LIG A   1      -9.384   1.317 123.207  0.00  0.00    +0.008 C 
BRANCH  25  27
ATOM     27  C   LIG A   1      -6.866   1.575 123.287  0.00  0.00    +0.008 C 
BRANCH  27  28
ATOM     28  C   LIG A   1      -7.235   3.059 123.008  0.00  0.00    +0.030 C 
BRANCH  28  29
ATOM     29  C   LIG A   1      -6.570   3.696 121.788  0.00  0.00    -0.074 C 
ATOM     30  C   LIG A   1      -5.319   4.213 121.882  0.00  0.00    +0.008 C 
BRANCH  29  31
ATOM     31  C   LIG A   1      -7.248   3.676 120.420  0.00  0.00    +0.008 C 
ATOM     32  C   LIG A   1      -8.764   3.885 120.478  0.00  0.00    +0.012 C 
ATOM     33  C   LIG A   1      -6.608   4.647 119.430  0.00  0.00    +0.012 C 
ENDBRANCH  29  31
ENDBRANCH  28  29
ENDBRANCH  27  28
ENDBRANCH  25  27
ENDBRANCH  20  25
TORSDOF 6
ENDMDL
MODEL 5
REMARK VINA RESULT:      -7.3      2.741      6.134
REMARK  Name = NuBBE_1949
REMARK  13 active torsions:
REMARK  status: ('A' for Active; 'I' for Inactive)
REMARK    1  A    between atoms: C_1  and  C_2
REMARK    2  A    between atoms: C_12  and  C_13
REMARK    3  A    between atoms: C_12  and  C_14
REMARK    4  A    between atoms: C_15  and  O_19
REMARK    5  A    between atoms: C_22  and  C_23
REMARK    6  A    between atoms: C_24  and  C_28
REMARK    7  A    between atoms: C_28  and  C_30
REMARK    8  A    between atoms: C_28  and  C_37
REMARK    9  A    between atoms: C_30  and  C_31
REMARK   10  A    between atoms: C_31  and  C_32
REMARK   11  A    between atoms: C_32  and  C_34
REMARK   12  A    between atoms: C_34  and  C_35
REMARK   13  A    between atoms: C_34  and  C_36
REMARK                            x       y       z     vdW  Elec       q    Type
REMARK                         _______ _______ _______ _____ _____    ______ ____
ROOT
ATOM      1  C   LIG A   1      -4.388  -1.529 131.433  0.00  0.00    +0.012 C 
ATOM      2  C   LIG A   1      -5.404  -1.502 130.268  0.00  0.00    -0.023 C 
ATOM      3  C   LIG A   1      -6.205  -0.131 130.266  0.00  0.00    +0.002 C 
ATOM      4  C   LIG A   1      -7.231  -0.070 131.411  0.00  0.00    -0.019 C 
ATOM      5  C   LIG A   1      -7.654   1.321 131.964  0.00  0.00    -0.019 C 
ATOM      6  C   LIG A   1      -6.898   0.332 132.829  0.00  0.00    +0.015 C 
ATOM      7  C   LIG A   1      -6.833   2.577 131.598  0.00  0.00    +0.004 C 
ATOM      8  C   LIG A   1      -6.197   2.408 130.213  0.00  0.00    +0.005 C 
ATOM      9  C   LIG A   1      -5.337   1.140 130.182  0.00  0.00    +0.005 C 
ATOM     10  C   LIG A   1      -7.576   3.938 131.828  0.00  0.00    -0.006 C 
ATOM     11  C   LIG A   1      -8.465   4.369 130.643  0.00  0.00    +0.014 C 
ATOM     12  C   LIG A   1      -6.528   5.067 132.021  0.00  0.00    +0.014 C 
ATOM     13  C   LIG A   1      -8.389   3.817 133.142  0.00  0.00    +0.120 C 
ATOM     14  C   LIG A   1      -9.450   2.723 133.110  0.00  0.00    +0.032 C 
ATOM     15  C   LIG A   1      -9.132   1.550 132.196  0.00  0.00    +0.010 C 
ATOM     16  C   LIG A   1      -8.224  -1.206 131.288  0.00  0.00    +0.008 C 
ATOM     17  C   LIG A   1      -7.496  -2.544 131.332  0.00  0.00    +0.008 C 
ATOM     18  C   LIG A   1      -6.384  -2.752 130.277  0.00  0.00    -0.023 C 
ATOM     19  C   LIG A   1      -5.658  -4.068 130.713  0.00  0.00    +0.012 C 
ATOM     20  C   LIG A   1      -6.766  -2.988 128.743  0.00  0.00    -0.002 C 
ATOM     21  C   LIG A   1      -5.665  -2.252 127.946  0.00  0.00    +0.005 C 
ATOM     22  C   LIG A   1      -4.643  -1.715 128.944  0.00  0.00    +0.008 C 
ENDROOT
BRANCH  13  23
ATOM     23  O   LIG A   1      -9.020   5.054 133.474  0.00  0.00    -0.391 OA
ATOM     24  H   LIG A   1      -8.693   5.326 134.348  0.00  0.00    +0.210 HD
ENDBRANCH  13  23
BRANCH  20  25
ATOM     25  C   LIG A   1      -8.214  -2.719 128.204  0.00  0.00    -0.010 C 
ATOM     26  C   LIG A   1      -8.954  -4.052 127.998  0.00  0.00    +0.008 C 
BRANCH  25  27
ATOM     27  C   LIG A   1      -8.233  -1.910 126.857  0.00  0.00    +0.008 C 
BRANCH  27  28
ATOM     28  C   LIG A   1      -9.190  -2.492 125.780  0.00  0.00    +0.030 C 
BRANCH  28  29
ATOM     29  C   LIG A   1      -8.574  -2.752 124.407  0.00  0.00    -0.074 C 
ATOM     30  C   LIG A   1      -9.344  -3.199 123.383  0.00  0.00    +0.008 C 
BRANCH  29  31
ATOM     31  C   LIG A   1      -7.109  -2.421 124.124  0.00  0.00    +0.008 C 
ATOM     32  C   LIG A   1      -6.172  -3.628 124.225  0.00  0.00    +0.012 C 
ATOM     33  C   LIG A   1      -6.915  -1.698 122.794  0.00  0.00    +0.012 C 
ENDBRANCH  29  31
ENDBRANCH  28  29
ENDBRANCH  27  28
ENDBRANCH  25  27
ENDBRANCH  20  25
TORSDOF 6
ENDMDL
MODEL 6
REMARK VINA RESULT:      -7.1      1.855      4.891
REMARK  Name = NuBBE_1949
REMARK  13 active torsions:
REMARK  status: ('A' for Active; 'I' for Inactive)
REMARK    1  A    between atoms: C_1  and  C_2
REMARK    2  A    between atoms: C_12  and  C_13
REMARK    3  A    between atoms: C_12  and  C_14
REMARK    4  A    between atoms: C_15  and  O_19
REMARK    5  A    between atoms: C_22  and  C_23
REMARK    6  A    between atoms: C_24  and  C_28
REMARK    7  A    between atoms: C_28  and  C_30
REMARK    8  A    between atoms: C_28  and  C_37
REMARK    9  A    between atoms: C_30  and  C_31
REMARK   10  A    between atoms: C_31  and  C_32
REMARK   11  A    between atoms: C_32  and  C_34
REMARK   12  A    between atoms: C_34  and  C_35
REMARK   13  A    between atoms: C_34  and  C_36
REMARK                            x       y       z     vdW  Elec       q    Type
REMARK                         _______ _______ _______ _____ _____    ______ ____
ROOT
ATOM      1  C   LIG A   1      -7.254   2.239 125.345  0.00  0.00    +0.012 C 
ATOM      2  C   LIG A   1      -7.765   0.843 125.768  0.00  0.00    -0.023 C 
ATOM      3  C   LIG A   1      -7.649   0.665 127.342  0.00  0.00    +0.002 C 
ATOM      4  C   LIG A   1      -6.189   0.472 127.785  0.00  0.00    -0.019 C 
ATOM      5  C   LIG A   1      -5.784   0.887 129.229  0.00  0.00    -0.019 C 
ATOM      6  C   LIG A   1      -5.215   1.604 128.021  0.00  0.00    +0.015 C 
ATOM      7  C   LIG A   1      -6.736   1.760 130.075  0.00  0.00    +0.004 C 
ATOM      8  C   LIG A   1      -8.193   1.485 129.683  0.00  0.00    +0.005 C 
ATOM      9  C   LIG A   1      -8.386   1.726 128.182  0.00  0.00    +0.005 C 
ATOM     10  C   LIG A   1      -6.447   1.745 131.616  0.00  0.00    -0.006 C 
ATOM     11  C   LIG A   1      -7.116   0.572 132.362  0.00  0.00    +0.014 C 
ATOM     12  C   LIG A   1      -7.007   3.045 132.253  0.00  0.00    +0.014 C 
ATOM     13  C   LIG A   1      -4.910   1.747 131.808  0.00  0.00    +0.120 C 
ATOM     14  C   LIG A   1      -4.213   0.532 131.207  0.00  0.00    +0.032 C 
ATOM     15  C   LIG A   1      -4.919  -0.081 130.007  0.00  0.00    +0.010 C 
ATOM     16  C   LIG A   1      -5.594  -0.751 127.120  0.00  0.00    +0.008 C 
ATOM     17  C   LIG A   1      -5.646  -0.598 125.605  0.00  0.00    +0.008 C 
ATOM     18  C   LIG A   1      -7.043  -0.339 124.991  0.00  0.00    -0.023 C 
ATOM     19  C   LIG A   1      -6.762   0.023 123.494  0.00  0.00    +0.012 C 
ATOM     20  C   LIG A   1      -8.123  -1.515 124.929  0.00  0.00    -0.002 C 
ATOM     21  C   LIG A   1      -9.478  -0.817 125.190  0.00  0.00    +0.005 C 
ATOM     22  C   LIG A   1      -9.222   0.683 125.287  0.00  0.00    +0.008 C 
ENDROOT
BRANCH  13  23
ATOM     23  O   LIG A   1      -4.564   1.832 133.192  0.00  0.00    -0.391 OA
ATOM     24  H   LIG A   1      -3.881   2.518 133.281  0.00  0.00    +0.210 HD
ENDBRANCH  13  23
BRANCH  20  25
ATOM     25  C   LIG A   1      -7.939  -2.846 125.738  0.00  0.00    -0.010 C 
ATOM     26  C   LIG A   1      -8.264  -4.054 124.841  0.00  0.00    +0.008 C 
BRANCH  25  27
ATOM     27  C   LIG A   1      -8.831  -2.914 127.030  0.00  0.00    +0.008 C 
BRANCH  27  28
ATOM     28  C   LIG A   1      -8.260  -3.832 128.146  0.00  0.00    +0.030 C 
BRANCH  28  29
ATOM     29  C   LIG A   1      -7.703  -3.120 129.378  0.00  0.00    -0.074 C 
ATOM     30  C   LIG A   1      -8.244  -1.947 129.795  0.00  0.00    +0.008 C 
BRANCH  29  31
ATOM     31  C   LIG A   1      -6.602  -3.755 130.225  0.00  0.00    +0.008 C 
ATOM     32  C   LIG A   1      -5.208  -3.662 129.598  0.00  0.00    +0.012 C 
ATOM     33  C   LIG A   1      -6.583  -3.229 131.659  0.00  0.00    +0.012 C 
ENDBRANCH  29  31
ENDBRANCH  28  29
ENDBRANCH  27  28
ENDBRANCH  25  27
ENDBRANCH  20  25
TORSDOF 6
ENDMDL
MODEL 7
REMARK VINA RESULT:      -7.0      4.152      7.750
REMARK  Name = NuBBE_1949
REMARK  13 active torsions:
REMARK  status: ('A' for Active; 'I' for Inactive)
REMARK    1  A    between atoms: C_1  and  C_2
REMARK    2  A    between atoms: C_12  and  C_13
REMARK    3  A    between atoms: C_12  and  C_14
REMARK    4  A    between atoms: C_15  and  O_19
REMARK    5  A    between atoms: C_22  and  C_23
REMARK    6  A    between atoms: C_24  and  C_28
REMARK    7  A    between atoms: C_28  and  C_30
REMARK    8  A    between atoms: C_28  and  C_37
REMARK    9  A    between atoms: C_30  and  C_31
REMARK   10  A    between atoms: C_31  and  C_32
REMARK   11  A    between atoms: C_32  and  C_34
REMARK   12  A    between atoms: C_34  and  C_35
REMARK   13  A    between atoms: C_34  and  C_36
REMARK                            x       y       z     vdW  Elec       q    Type
REMARK                         _______ _______ _______ _____ _____    ______ ____
ROOT
ATOM      1  C   LIG A   1     -10.502   4.210 130.539  0.00  0.00    +0.012 C 
ATOM      2  C   LIG A   1      -9.064   4.484 131.034  0.00  0.00    -0.023 C 
ATOM      3  C   LIG A   1      -8.155   3.198 130.831  0.00  0.00    +0.002 C 
ATOM      4  C   LIG A   1      -8.495   2.095 131.847  0.00  0.00    -0.019 C 
ATOM      5  C   LIG A   1      -8.205   0.614 131.468  0.00  0.00    -0.019 C 
ATOM      6  C   LIG A   1      -9.624   1.103 131.678  0.00  0.00    +0.015 C 
ATOM      7  C   LIG A   1      -7.889   0.241 130.003  0.00  0.00    +0.004 C 
ATOM      8  C   LIG A   1      -7.200   1.414 129.296  0.00  0.00    +0.005 C 
ATOM      9  C   LIG A   1      -8.076   2.668 129.385  0.00  0.00    +0.005 C 
ATOM     10  C   LIG A   1      -7.194  -1.151 129.814  0.00  0.00    -0.006 C 
ATOM     11  C   LIG A   1      -5.659  -1.105 129.966  0.00  0.00    +0.014 C 
ATOM     12  C   LIG A   1      -7.475  -1.673 128.379  0.00  0.00    +0.014 C 
ATOM     13  C   LIG A   1      -7.841  -2.142 130.814  0.00  0.00    +0.120 C 
ATOM     14  C   LIG A   1      -7.666  -1.745 132.275  0.00  0.00    +0.032 C 
ATOM     15  C   LIG A   1      -7.542  -0.249 132.520  0.00  0.00    +0.010 C 
ATOM     16  C   LIG A   1      -8.299   2.601 133.260  0.00  0.00    +0.008 C 
ATOM     17  C   LIG A   1      -9.191   3.811 133.509  0.00  0.00    +0.008 C 
ATOM     18  C   LIG A   1      -9.018   5.001 132.536  0.00  0.00    -0.023 C 
ATOM     19  C   LIG A   1     -10.207   5.965 132.865  0.00  0.00    +0.012 C 
ATOM     20  C   LIG A   1      -7.714   5.921 132.617  0.00  0.00    -0.002 C 
ATOM     21  C   LIG A   1      -7.395   6.280 131.147  0.00  0.00    +0.005 C 
ATOM     22  C   LIG A   1      -8.502   5.701 130.272  0.00  0.00    +0.008 C 
ENDROOT
BRANCH  13  23
ATOM     23  O   LIG A   1      -7.327  -3.463 130.637  0.00  0.00    -0.391 OA
ATOM     24  H   LIG A   1      -7.973  -4.083 131.017  0.00  0.00    +0.210 HD
ENDBRANCH  13  23
BRANCH  20  25
ATOM     25  C   LIG A   1      -6.452   5.492 133.444  0.00  0.00    -0.010 C 
ATOM     26  C   LIG A   1      -6.595   5.963 134.902  0.00  0.00    +0.008 C 
BRANCH  25  27
ATOM     27  C   LIG A   1      -5.107   6.049 132.855  0.00  0.00    +0.008 C 
BRANCH  27  28
ATOM     28  C   LIG A   1      -4.046   4.955 132.551  0.00  0.00    +0.030 C 
BRANCH  28  29
ATOM     29  C   LIG A   1      -4.507   3.808 131.653  0.00  0.00    -0.074 C 
ATOM     30  C   LIG A   1      -4.584   3.977 130.309  0.00  0.00    +0.008 C 
BRANCH  29  31
ATOM     31  C   LIG A   1      -4.792   2.422 132.230  0.00  0.00    +0.008 C 
ATOM     32  C   LIG A   1      -4.011   1.295 131.547  0.00  0.00    +0.012 C 
ATOM     33  C   LIG A   1      -4.607   2.364 133.744  0.00  0.00    +0.012 C 
ENDBRANCH  29  31
ENDBRANCH  28  29
ENDBRANCH  27  28
ENDBRANCH  25  27
ENDBRANCH  20  25
TORSDOF 6
ENDMDL
MODEL 8
REMARK VINA RESULT:      -6.9      2.448      6.596
REMARK  Name = NuBBE_1949
REMARK  13 active torsions:
REMARK  status: ('A' for Active; 'I' for Inactive)
REMARK    1  A    between atoms: C_1  and  C_2
REMARK    2  A    between atoms: C_12  and  C_13
REMARK    3  A    between atoms: C_12  and  C_14
REMARK    4  A    between atoms: C_15  and  O_19
REMARK    5  A    between atoms: C_22  and  C_23
REMARK    6  A    between atoms: C_24  and  C_28
REMARK    7  A    between atoms: C_28  and  C_30
REMARK    8  A    between atoms: C_28  and  C_37
REMARK    9  A    between atoms: C_30  and  C_31
REMARK   10  A    between atoms: C_31  and  C_32
REMARK   11  A    between atoms: C_32  and  C_34
REMARK   12  A    between atoms: C_34  and  C_35
REMARK   13  A    between atoms: C_34  and  C_36
REMARK                            x       y       z     vdW  Elec       q    Type
REMARK                         _______ _______ _______ _____ _____    ______ ____
ROOT
ATOM      1  C   LIG A   1      -5.013   2.907 127.529  0.00  0.00    +0.012 C 
ATOM      2  C   LIG A   1      -5.786   1.936 128.450  0.00  0.00    -0.023 C 
ATOM      3  C   LIG A   1      -6.227   0.642 127.642  0.00  0.00    +0.002 C 
ATOM      4  C   LIG A   1      -7.385   0.943 126.675  0.00  0.00    -0.019 C 
ATOM      5  C   LIG A   1      -7.551   0.056 125.408  0.00  0.00    -0.019 C 
ATOM      6  C   LIG A   1      -7.206   1.527 125.292  0.00  0.00    +0.015 C 
ATOM      7  C   LIG A   1      -6.407  -0.885 124.970  0.00  0.00    +0.004 C 
ATOM      8  C   LIG A   1      -5.609  -1.351 126.194  0.00  0.00    +0.005 C 
ATOM      9  C   LIG A   1      -5.081  -0.138 126.968  0.00  0.00    +0.005 C 
ATOM     10  C   LIG A   1      -6.834  -2.023 123.981  0.00  0.00    -0.006 C 
ATOM     11  C   LIG A   1      -7.386  -3.282 124.682  0.00  0.00    +0.014 C 
ATOM     12  C   LIG A   1      -5.595  -2.485 123.168  0.00  0.00    +0.014 C 
ATOM     13  C   LIG A   1      -7.859  -1.425 122.985  0.00  0.00    +0.120 C 
ATOM     14  C   LIG A   1      -9.129  -0.903 123.648  0.00  0.00    +0.032 C 
ATOM     15  C   LIG A   1      -8.950  -0.418 125.078  0.00  0.00    +0.010 C 
ATOM     16  C   LIG A   1      -8.585   1.465 127.436  0.00  0.00    +0.008 C 
ATOM     17  C   LIG A   1      -8.212   2.736 128.190  0.00  0.00    +0.008 C 
ATOM     18  C   LIG A   1      -7.022   2.624 129.173  0.00  0.00    -0.023 C 
ATOM     19  C   LIG A   1      -6.711   4.099 129.596  0.00  0.00    +0.012 C 
ATOM     20  C   LIG A   1      -7.189   1.832 130.550  0.00  0.00    -0.002 C 
ATOM     21  C   LIG A   1      -5.828   1.132 130.768  0.00  0.00    +0.005 C 
ATOM     22  C   LIG A   1      -4.889   1.574 129.651  0.00  0.00    +0.008 C 
ENDROOT
BRANCH  13  23
ATOM     23  O   LIG A   1      -8.225  -2.378 121.986  0.00  0.00    -0.391 OA
ATOM     24  H   LIG A   1      -8.925  -2.940 122.360  0.00  0.00    +0.210 HD
ENDBRANCH  13  23
BRANCH  20  25
ATOM     25  C   LIG A   1      -8.422   0.901 130.821  0.00  0.00    -0.010 C 
ATOM     26  C   LIG A   1      -9.111   1.310 132.135  0.00  0.00    +0.008 C 
BRANCH  25  27
ATOM     27  C   LIG A   1      -8.044  -0.622 130.894  0.00  0.00    +0.008 C 
BRANCH  27  28
ATOM     28  C   LIG A   1      -8.072  -1.350 129.522  0.00  0.00    +0.030 C 
BRANCH  28  29
ATOM     29  C   LIG A   1      -7.439  -2.740 129.488  0.00  0.00    -0.074 C 
ATOM     30  C   LIG A   1      -7.924  -3.693 128.653  0.00  0.00    +0.008 C 
BRANCH  29  31
ATOM     31  C   LIG A   1      -6.191  -3.058 130.310  0.00  0.00    +0.008 C 
ATOM     32  C   LIG A   1      -5.961  -4.556 130.530  0.00  0.00    +0.012 C 
ATOM     33  C   LIG A   1      -4.933  -2.396 129.751  0.00  0.00    +0.012 C 
ENDBRANCH  29  31
ENDBRANCH  28  29
ENDBRANCH  27  28
ENDBRANCH  25  27
ENDBRANCH  20  25
TORSDOF 6
ENDMDL
MODEL 9
REMARK VINA RESULT:      -6.8      2.909      7.343
REMARK  Name = NuBBE_1949
REMARK  13 active torsions:
REMARK  status: ('A' for Active; 'I' for Inactive)
REMARK    1  A    between atoms: C_1  and  C_2
REMARK    2  A    between atoms: C_12  and  C_13
REMARK    3  A    between atoms: C_12  and  C_14
REMARK    4  A    between atoms: C_15  and  O_19
REMARK    5  A    between atoms: C_22  and  C_23
REMARK    6  A    between atoms: C_24  and  C_28
REMARK    7  A    between atoms: C_28  and  C_30
REMARK    8  A    between atoms: C_28  and  C_37
REMARK    9  A    between atoms: C_30  and  C_31
REMARK   10  A    between atoms: C_31  and  C_32
REMARK   11  A    between atoms: C_32  and  C_34
REMARK   12  A    between atoms: C_34  and  C_35
REMARK   13  A    between atoms: C_34  and  C_36
REMARK                            x       y       z     vdW  Elec       q    Type
REMARK                         _______ _______ _______ _____ _____    ______ ____
ROOT
ATOM      1  C   LIG A   1      -3.750  -0.066 133.525  0.00  0.00    +0.012 C 
ATOM      2  C   LIG A   1      -4.311  -1.014 132.442  0.00  0.00    -0.023 C 
ATOM      3  C   LIG A   1      -5.436  -0.281 131.594  0.00  0.00    +0.002 C 
ATOM      4  C   LIG A   1      -6.739  -0.121 132.396  0.00  0.00    -0.019 C 
ATOM      5  C   LIG A   1      -7.702   1.046 132.034  0.00  0.00    -0.019 C 
ATOM      6  C   LIG A   1      -7.001   0.998 133.377  0.00  0.00    +0.015 C 
ATOM      7  C   LIG A   1      -7.213   2.193 131.122  0.00  0.00    +0.004 C 
ATOM      8  C   LIG A   1      -6.156   1.673 130.140  0.00  0.00    +0.005 C 
ATOM      9  C   LIG A   1      -4.998   1.029 130.910  0.00  0.00    +0.005 C 
ATOM     10  C   LIG A   1      -8.355   3.051 130.477  0.00  0.00    -0.006 C 
ATOM     11  C   LIG A   1      -8.913   2.460 129.166  0.00  0.00    +0.014 C 
ATOM     12  C   LIG A   1      -7.799   4.456 130.120  0.00  0.00    +0.014 C 
ATOM     13  C   LIG A   1      -9.465   3.238 131.541  0.00  0.00    +0.120 C 
ATOM     14  C   LIG A   1     -10.094   1.931 132.011  0.00  0.00    +0.032 C 
ATOM     15  C   LIG A   1      -9.176   0.720 131.942  0.00  0.00    +0.010 C 
ATOM     16  C   LIG A   1      -7.266  -1.476 132.820  0.00  0.00    +0.008 C 
ATOM     17  C   LIG A   1      -6.230  -2.194 133.677  0.00  0.00    +0.008 C 
ATOM     18  C   LIG A   1      -4.834  -2.391 133.040  0.00  0.00    -0.023 C 
ATOM     19  C   LIG A   1      -3.929  -2.908 134.208  0.00  0.00    +0.012 C 
ATOM     20  C   LIG A   1      -4.630  -3.455 131.866  0.00  0.00    -0.002 C 
ATOM     21  C   LIG A   1      -3.601  -2.800 130.916  0.00  0.00    +0.005 C 
ATOM     22  C   LIG A   1      -3.147  -1.488 131.549  0.00  0.00    +0.008 C 
ENDROOT
BRANCH  13  23
ATOM     23  O   LIG A   1     -10.502   4.095 131.061  0.00  0.00    -0.391 OA
ATOM     24  H   LIG A   1     -10.334   4.258 130.117  0.00  0.00    +0.210 HD
ENDBRANCH  13  23
BRANCH  20  25
ATOM     25  C   LIG A   1      -5.848  -4.101 131.118  0.00  0.00    -0.010 C 
ATOM     26  C   LIG A   1      -5.581  -5.597 130.873  0.00  0.00    +0.008 C 
BRANCH  25  27
ATOM     27  C   LIG A   1      -6.171  -3.407 129.746  0.00  0.00    +0.008 C 
BRANCH  27  28
ATOM     28  C   LIG A   1      -7.650  -2.954 129.598  0.00  0.00    +0.030 C 
BRANCH  28  29
ATOM     29  C   LIG A   1      -8.254  -3.086 128.201  0.00  0.00    -0.074 C 
ATOM     30  C   LIG A   1      -9.083  -4.120 127.908  0.00  0.00    +0.008 C 
BRANCH  29  31
ATOM     31  C   LIG A   1      -8.025  -2.013 127.137  0.00  0.00    +0.008 C 
ATOM     32  C   LIG A   1      -7.646  -0.645 127.711  0.00  0.00    +0.012 C 
ATOM     33  C   LIG A   1      -7.021  -2.446 126.071  0.00  0.00    +0.012 C 
ENDBRANCH  29  31
ENDBRANCH  28  29
ENDBRANCH  27  28
ENDBRANCH  25  27
ENDBRANCH  20  25
TORSDOF 6
ENDMDL
