MODEL 1
REMARK VINA RESULT:      -7.8      0.000      0.000
REMARK  Name = NuBBE_640
REMARK  27 active torsions:
REMARK  status: ('A' for Active; 'I' for Inactive)
REMARK    1  A    between atoms: C_4  and  O_6
REMARK    2  A    between atoms: O_6  and  C_7
REMARK    3  A    between atoms: C_7  and  C_8
REMARK    4  A    between atoms: C_10  and  O_12
REMARK    5  A    between atoms: O_12  and  C_13
REMARK    6  A    between atoms: C_13  and  C_14
REMARK    7  A    between atoms: C_15  and  C_16
REMARK    8  A    between atoms: C_17  and  C_18
REMARK    9  A    between atoms: C_18  and  C_19
REMARK   10  A    between atoms: C_19  and  C_20
REMARK   11  A    between atoms: C_20  and  C_21
REMARK   12  A    between atoms: C_21  and  C_22
REMARK   13  A    between atoms: C_24  and  C_26
REMARK   14  A    between atoms: C_27  and  C_28
REMARK   15  A    between atoms: C_27  and  C_29
REMARK   16  A    between atoms: C_29  and  C_30
REMARK   17  A    between atoms: C_30  and  C_31
REMARK   18  A    between atoms: C_31  and  C_32
REMARK   19  A    between atoms: C_36  and  O_38
REMARK   20  A    between atoms: O_38  and  C_39
REMARK   21  A    between atoms: C_39  and  C_40
REMARK   22  A    between atoms: C_43  and  O_45
REMARK   23  A    between atoms: O_45  and  C_46
REMARK   24  A    between atoms: C_46  and  C_47
REMARK   25  A    between atoms: C_50  and  O_52
REMARK   26  A    between atoms: O_52  and  C_53
REMARK   27  A    between atoms: C_53  and  C_54
REMARK                            x       y       z     vdW  Elec       q    Type
REMARK                         _______ _______ _______ _____ _____    ______ ____
ROOT
ATOM      1  C   LIG A   1      -7.431   3.434 130.052  0.00  0.00    +0.019 C 
ATOM      2  C   LIG A   1      -6.065   2.654 130.220  0.00  0.00    +0.104 C 
ATOM      3  C   LIG A   1      -6.297   1.175 129.724  0.00  0.00    +0.234 C 
ATOM      4  C   LIG A   1      -7.486   0.528 130.457  0.00  0.00    +0.222 C 
ATOM      5  C   LIG A   1      -8.767   1.365 130.774  0.00  0.00    +0.037 C 
ATOM      6  C   LIG A   1      -9.472   0.658 131.910  0.00  0.00    +0.012 C 
ATOM      7  C   LIG A   1      -8.641   2.930 130.971  0.00  0.00    -0.022 C 
ATOM      8  C   LIG A   1      -9.941   3.575 130.395  0.00  0.00    +0.012 C 
ATOM      9  C   LIG A   1      -5.066   3.349 129.329  0.00  0.00    +0.014 C 
ATOM     10  C   LIG A   1      -3.810   3.682 130.077  0.00  0.00    +0.343 C 
ATOM     11  O   LIG A   1      -3.969   3.038 131.353  0.00  0.00    -0.297 OA
ATOM     12  C   LIG A   1      -5.383   2.878 131.595  0.00  0.00    +0.328 C 
ATOM     13  C   LIG A   1      -5.361   3.717 128.073  0.00  0.00    +0.023 C 
ATOM     14  C   LIG A   1      -6.723   3.565 127.484  0.00  0.00    +0.200 C 
ATOM     15  C   LIG A   1      -7.846   3.394 128.524  0.00  0.00    +0.054 C 
ENDROOT
BRANCH   7  16
ATOM     16  C   LIG A   1      -8.535   3.526 132.452  0.00  0.00    +0.012 C 
BRANCH  16  17
ATOM     17  C   LIG A   1      -8.373   5.067 132.807  0.00  0.00    +0.035 C 
BRANCH  17  18
ATOM     18  C   LIG A   1      -7.423   6.054 132.116  0.00  0.00    -0.055 C 
ATOM     19  C   LIG A   1      -6.153   6.209 132.540  0.00  0.00    +0.012 C 
BRANCH  18  20
ATOM     20  C   LIG A   1      -7.833   6.892 130.999  0.00  0.00    -0.005 C 
ATOM     21  C   LIG A   1      -9.079   7.031 130.551  0.00  0.00    +0.008 C 
ENDBRANCH  18  20
ENDBRANCH  17  18
ENDBRANCH  16  17
ENDBRANCH   7  16
BRANCH  10  22
ATOM     22  O   LIG A   1      -3.791   5.104 130.282  0.00  0.00    -0.431 OA
BRANCH  22  23
ATOM     23  C   LIG A   1      -2.571   5.707 130.287  0.00  0.00    +0.306 C 
ATOM     24  C   LIG A   1      -2.246   6.170 128.896  0.00  0.00    +0.136 C 
ATOM     25  O   LIG A   1      -1.798   5.778 131.231  0.00  0.00    -0.251 OA
ENDBRANCH  22  23
ENDBRANCH  10  22
BRANCH  12  26
ATOM     26  O   LIG A   1      -5.794   1.914 132.595  0.00  0.00    -0.434 OA
BRANCH  26  27
ATOM     27  C   LIG A   1      -5.284   1.992 133.817  0.00  0.00    +0.306 C 
ATOM     28  C   LIG A   1      -5.505   3.236 134.593  0.00  0.00    +0.136 C 
ATOM     29  O   LIG A   1      -4.664   0.979 134.316  0.00  0.00    -0.251 OA
ENDBRANCH  26  27
ENDBRANCH  12  26
BRANCH   4  30
ATOM     30  O   LIG A   1      -7.835  -0.742 129.838  0.00  0.00    -0.454 OA
BRANCH  30  31
ATOM     31  C   LIG A   1      -7.479  -1.922 130.403  0.00  0.00    +0.332 C 
ATOM     32  O   LIG A   1      -7.334  -2.184 131.584  0.00  0.00    -0.246 OA
BRANCH  31  33
ATOM     33  C   LIG A   1      -7.521  -2.907 129.312  0.00  0.00    +0.091 C 
ATOM     34  C   LIG A   1      -8.650  -3.139 128.623  0.00  0.00    +0.007 C 
BRANCH  34  35
ATOM     35  C   LIG A   1      -8.697  -3.951 127.411  0.00  0.00    -0.004 C 
ATOM     36  C   LIG A   1      -8.388  -3.385 126.237  0.00  0.00    -0.027 C 
BRANCH  36  37
ATOM     37  C   LIG A   1      -8.154  -3.891 124.856  0.00  0.00    +0.027 C 
BRANCH  37  38
ATOM     38  C   LIG A   1      -7.763  -2.918 123.709  0.00  0.00    +0.004 C 
BRANCH  38  39
ATOM     39  C   LIG A   1      -6.259  -2.635 123.436  0.00  0.00    +0.000 C 
BRANCH  39  40
ATOM     40  C   LIG A   1      -5.203  -3.356 124.301  0.00  0.00    -0.003 C 
ATOM     41  C   LIG A   1      -4.493  -4.513 123.663  0.00  0.00    +0.004 C 
ENDBRANCH  39  40
ENDBRANCH  38  39
ENDBRANCH  37  38
ENDBRANCH  36  37
ENDBRANCH  34  35
ENDBRANCH  31  33
ENDBRANCH  30  31
ENDBRANCH   4  30
BRANCH  14  42
ATOM     42  O   LIG A   1      -6.990   4.763 126.740  0.00  0.00    -0.457 OA
BRANCH  42  43
ATOM     43  C   LIG A   1      -8.002   4.678 125.836  0.00  0.00    +0.304 C 
ATOM     44  C   LIG A   1      -7.691   3.651 124.797  0.00  0.00    +0.136 C 
ATOM     45  O   LIG A   1      -9.014   5.366 125.819  0.00  0.00    -0.251 OA
ENDBRANCH  42  43
ENDBRANCH  14  42
BRANCH   3  46
ATOM     46  O   LIG A   1      -5.074   0.349 129.453  0.00  0.00    -0.457 OA
BRANCH  46  47
ATOM     47  C   LIG A   1      -4.288  -0.443 130.231  0.00  0.00    +0.304 C 
ATOM     48  C   LIG A   1      -3.963  -1.744 129.600  0.00  0.00    +0.136 C 
ATOM     49  O   LIG A   1      -3.937  -0.317 131.394  0.00  0.00    -0.251 OA
ENDBRANCH  46  47
ENDBRANCH   3  46
TORSDOF 20
ENDMDL
MODEL 2
REMARK VINA RESULT:      -7.8      2.108      5.930
REMARK  Name = NuBBE_640
REMARK  27 active torsions:
REMARK  status: ('A' for Active; 'I' for Inactive)
REMARK    1  A    between atoms: C_4  and  O_6
REMARK    2  A    between atoms: O_6  and  C_7
REMARK    3  A    between atoms: C_7  and  C_8
REMARK    4  A    between atoms: C_10  and  O_12
REMARK    5  A    between atoms: O_12  and  C_13
REMARK    6  A    between atoms: C_13  and  C_14
REMARK    7  A    between atoms: C_15  and  C_16
REMARK    8  A    between atoms: C_17  and  C_18
REMARK    9  A    between atoms: C_18  and  C_19
REMARK   10  A    between atoms: C_19  and  C_20
REMARK   11  A    between atoms: C_20  and  C_21
REMARK   12  A    between atoms: C_21  and  C_22
REMARK   13  A    between atoms: C_24  and  C_26
REMARK   14  A    between atoms: C_27  and  C_28
REMARK   15  A    between atoms: C_27  and  C_29
REMARK   16  A    between atoms: C_29  and  C_30
REMARK   17  A    between atoms: C_30  and  C_31
REMARK   18  A    between atoms: C_31  and  C_32
REMARK   19  A    between atoms: C_36  and  O_38
REMARK   20  A    between atoms: O_38  and  C_39
REMARK   21  A    between atoms: C_39  and  C_40
REMARK   22  A    between atoms: C_43  and  O_45
REMARK   23  A    between atoms: O_45  and  C_46
REMARK   24  A    between atoms: C_46  and  C_47
REMARK   25  A    between atoms: C_50  and  O_52
REMARK   26  A    between atoms: O_52  and  C_53
REMARK   27  A    between atoms: C_53  and  C_54
REMARK                            x       y       z     vdW  Elec       q    Type
REMARK                         _______ _______ _______ _____ _____    ______ ____
ROOT
ATOM      1  C   LIG A   1      -5.580   3.079 127.924  0.00  0.00    +0.019 C 
ATOM      2  C   LIG A   1      -6.873   2.588 128.690  0.00  0.00    +0.104 C 
ATOM      3  C   LIG A   1      -6.529   1.210 129.372  0.00  0.00    +0.234 C 
ATOM      4  C   LIG A   1      -5.990   0.203 128.340  0.00  0.00    +0.222 C 
ATOM      5  C   LIG A   1      -5.027   0.678 127.204  0.00  0.00    +0.037 C 
ATOM      6  C   LIG A   1      -5.115  -0.356 126.105  0.00  0.00    +0.012 C 
ATOM      7  C   LIG A   1      -5.113   2.172 126.690  0.00  0.00    -0.022 C 
ATOM      8  C   LIG A   1      -3.662   2.622 126.327  0.00  0.00    +0.012 C 
ATOM      9  C   LIG A   1      -7.165   3.630 129.743  0.00  0.00    +0.014 C 
ATOM     10  C   LIG A   1      -8.594   4.079 129.682  0.00  0.00    +0.343 C 
ATOM     11  O   LIG A   1      -9.209   3.195 128.728  0.00  0.00    -0.297 OA
ATOM     12  C   LIG A   1      -8.175   2.698 127.853  0.00  0.00    +0.328 C 
ATOM     13  C   LIG A   1      -6.204   4.148 130.521  0.00  0.00    +0.023 C 
ATOM     14  C   LIG A   1      -4.759   3.821 130.350  0.00  0.00    +0.200 C 
ATOM     15  C   LIG A   1      -4.403   3.230 128.973  0.00  0.00    +0.054 C 
ENDROOT
BRANCH   7  16
ATOM     16  C   LIG A   1      -5.961   2.498 125.373  0.00  0.00    +0.012 C 
BRANCH  16  17
ATOM     17  C   LIG A   1      -5.675   3.704 124.378  0.00  0.00    +0.035 C 
BRANCH  17  18
ATOM     18  C   LIG A   1      -5.992   3.726 122.876  0.00  0.00    -0.055 C 
ATOM     19  C   LIG A   1      -7.096   3.125 122.390  0.00  0.00    +0.012 C 
BRANCH  18  20
ATOM     20  C   LIG A   1      -5.123   4.359 121.897  0.00  0.00    -0.005 C 
ATOM     21  C   LIG A   1      -5.406   4.536 120.608  0.00  0.00    +0.008 C 
ENDBRANCH  18  20
ENDBRANCH  17  18
ENDBRANCH  16  17
ENDBRANCH   7  16
BRANCH  10  22
ATOM     22  O   LIG A   1      -8.607   5.411 129.144  0.00  0.00    -0.431 OA
BRANCH  22  23
ATOM     23  C   LIG A   1      -9.675   6.192 129.464  0.00  0.00    +0.306 C 
ATOM     24  C   LIG A   1      -9.323   7.044 130.649  0.00  0.00    +0.136 C 
ATOM     25  O   LIG A   1     -10.786   6.149 128.956  0.00  0.00    -0.251 OA
ENDBRANCH  22  23
ENDBRANCH  10  22
BRANCH  12  26
ATOM     26  O   LIG A   1      -8.456   1.504 127.082  0.00  0.00    -0.434 OA
BRANCH  26  27
ATOM     27  C   LIG A   1      -9.025   1.623 125.890  0.00  0.00    +0.306 C 
ATOM     28  C   LIG A   1      -9.486   0.390 125.207  0.00  0.00    +0.136 C 
ATOM     29  O   LIG A   1      -9.214   2.793 125.386  0.00  0.00    -0.251 OA
ENDBRANCH  26  27
ENDBRANCH  12  26
BRANCH   4  30
ATOM     30  O   LIG A   1      -5.463  -0.977 129.007  0.00  0.00    -0.454 OA
BRANCH  30  31
ATOM     31  C   LIG A   1      -6.281  -1.978 129.418  0.00  0.00    +0.332 C 
ATOM     32  O   LIG A   1      -6.504  -2.357 130.554  0.00  0.00    -0.246 OA
BRANCH  31  33
ATOM     33  C   LIG A   1      -7.036  -2.383 128.223  0.00  0.00    +0.091 C 
ATOM     34  C   LIG A   1      -8.047  -3.263 128.300  0.00  0.00    +0.007 C 
BRANCH  34  35
ATOM     35  C   LIG A   1      -8.952  -3.546 127.190  0.00  0.00    -0.004 C 
ATOM     36  C   LIG A   1      -8.673  -3.042 125.981  0.00  0.00    -0.027 C 
BRANCH  36  37
ATOM     37  C   LIG A   1      -9.223  -3.234 124.610  0.00  0.00    +0.027 C 
BRANCH  37  38
ATOM     38  C   LIG A   1      -8.373  -2.887 123.357  0.00  0.00    +0.004 C 
BRANCH  38  39
ATOM     39  C   LIG A   1      -7.136  -1.958 123.516  0.00  0.00    +0.000 C 
BRANCH  39  40
ATOM     40  C   LIG A   1      -5.739  -2.524 123.186  0.00  0.00    -0.003 C 
ATOM     41  C   LIG A   1      -5.201  -3.563 124.124  0.00  0.00    +0.004 C 
ENDBRANCH  39  40
ENDBRANCH  38  39
ENDBRANCH  37  38
ENDBRANCH  36  37
ENDBRANCH  34  35
ENDBRANCH  31  33
ENDBRANCH  30  31
ENDBRANCH   4  30
BRANCH  14  42
ATOM     42  O   LIG A   1      -4.033   5.050 130.503  0.00  0.00    -0.457 OA
BRANCH  42  43
ATOM     43  C   LIG A   1      -2.871   4.962 131.202  0.00  0.00    +0.304 C 
ATOM     44  C   LIG A   1      -1.946   6.072 130.823  0.00  0.00    +0.136 C 
ATOM     45  O   LIG A   1      -2.573   4.083 132.000  0.00  0.00    -0.251 OA
ENDBRANCH  42  43
ENDBRANCH  14  42
BRANCH   3  46
ATOM     46  O   LIG A   1      -7.468   0.725 130.438  0.00  0.00    -0.457 OA
BRANCH  46  47
ATOM     47  C   LIG A   1      -7.413   0.709 131.797  0.00  0.00    +0.304 C 
ATOM     48  C   LIG A   1      -6.030   0.767 132.327  0.00  0.00    +0.136 C 
ATOM     49  O   LIG A   1      -8.289   0.515 132.626  0.00  0.00    -0.251 OA
ENDBRANCH  46  47
ENDBRANCH   3  46
TORSDOF 20
ENDMDL
MODEL 3
REMARK VINA RESULT:      -7.7      1.584      1.970
REMARK  Name = NuBBE_640
REMARK  27 active torsions:
REMARK  status: ('A' for Active; 'I' for Inactive)
REMARK    1  A    between atoms: C_4  and  O_6
REMARK    2  A    between atoms: O_6  and  C_7
REMARK    3  A    between atoms: C_7  and  C_8
REMARK    4  A    between atoms: C_10  and  O_12
REMARK    5  A    between atoms: O_12  and  C_13
REMARK    6  A    between atoms: C_13  and  C_14
REMARK    7  A    between atoms: C_15  and  C_16
REMARK    8  A    between atoms: C_17  and  C_18
REMARK    9  A    between atoms: C_18  and  C_19
REMARK   10  A    between atoms: C_19  and  C_20
REMARK   11  A    between atoms: C_20  and  C_21
REMARK   12  A    between atoms: C_21  and  C_22
REMARK   13  A    between atoms: C_24  and  C_26
REMARK   14  A    between atoms: C_27  and  C_28
REMARK   15  A    between atoms: C_27  and  C_29
REMARK   16  A    between atoms: C_29  and  C_30
REMARK   17  A    between atoms: C_30  and  C_31
REMARK   18  A    between atoms: C_31  and  C_32
REMARK   19  A    between atoms: C_36  and  O_38
REMARK   20  A    between atoms: O_38  and  C_39
REMARK   21  A    between atoms: C_39  and  C_40
REMARK   22  A    between atoms: C_43  and  O_45
REMARK   23  A    between atoms: O_45  and  C_46
REMARK   24  A    between atoms: C_46  and  C_47
REMARK   25  A    between atoms: C_50  and  O_52
REMARK   26  A    between atoms: O_52  and  C_53
REMARK   27  A    between atoms: C_53  and  C_54
REMARK                            x       y       z     vdW  Elec       q    Type
REMARK                         _______ _______ _______ _____ _____    ______ ____
ROOT
ATOM      1  C   LIG A   1      -7.517   2.756 129.140  0.00  0.00    +0.019 C 
ATOM      2  C   LIG A   1      -6.252   1.813 129.026  0.00  0.00    +0.104 C 
ATOM      3  C   LIG A   1      -6.758   0.323 129.122  0.00  0.00    +0.234 C 
ATOM      4  C   LIG A   1      -7.592   0.105 130.397  0.00  0.00    +0.222 C 
ATOM      5  C   LIG A   1      -8.581   1.211 130.891  0.00  0.00    +0.037 C 
ATOM      6  C   LIG A   1      -8.816   0.952 132.363  0.00  0.00    +0.012 C 
ATOM      7  C   LIG A   1      -8.287   2.726 130.544  0.00  0.00    -0.022 C 
ATOM      8  C   LIG A   1      -9.664   3.426 130.315  0.00  0.00    +0.012 C 
ATOM      9  C   LIG A   1      -5.651   2.070 127.666  0.00  0.00    +0.014 C 
ATOM     10  C   LIG A   1      -4.182   2.352 127.765  0.00  0.00    +0.343 C 
ATOM     11  O   LIG A   1      -3.857   2.092 129.142  0.00  0.00    -0.297 OA
ATOM     12  C   LIG A   1      -5.062   2.253 129.919  0.00  0.00    +0.328 C 
ATOM     13  C   LIG A   1      -6.401   2.154 126.557  0.00  0.00    +0.023 C 
ATOM     14  C   LIG A   1      -7.891   2.104 126.581  0.00  0.00    +0.200 C 
ATOM     15  C   LIG A   1      -8.512   2.405 127.959  0.00  0.00    +0.054 C 
ENDROOT
BRANCH   7  16
ATOM     16  C   LIG A   1      -7.557   3.649 131.628  0.00  0.00    +0.012 C 
BRANCH  16  17
ATOM     17  C   LIG A   1      -8.040   5.099 132.066  0.00  0.00    +0.035 C 
BRANCH  17  18
ATOM     18  C   LIG A   1      -7.834   6.395 131.270  0.00  0.00    -0.055 C 
ATOM     19  C   LIG A   1      -8.877   7.039 130.710  0.00  0.00    +0.012 C 
BRANCH  18  20
ATOM     20  C   LIG A   1      -6.522   6.983 131.049  0.00  0.00    -0.005 C 
ATOM     21  C   LIG A   1      -5.393   6.607 131.646  0.00  0.00    +0.008 C 
ENDBRANCH  18  20
ENDBRANCH  17  18
ENDBRANCH  16  17
ENDBRANCH   7  16
BRANCH  10  22
ATOM     22  O   LIG A   1      -3.990   3.752 127.507  0.00  0.00    -0.431 OA
BRANCH  22  23
ATOM     23  C   LIG A   1      -2.707   4.181 127.369  0.00  0.00    +0.306 C 
ATOM     24  C   LIG A   1      -1.923   3.151 126.611  0.00  0.00    +0.136 C 
ATOM     25  O   LIG A   1      -2.218   5.187 127.865  0.00  0.00    -0.251 OA
ENDBRANCH  22  23
ENDBRANCH  10  22
BRANCH  12  26
ATOM     26  O   LIG A   1      -5.099   1.664 131.242  0.00  0.00    -0.434 OA
BRANCH  26  27
ATOM     27  C   LIG A   1      -4.132   1.948 132.104  0.00  0.00    +0.306 C 
ATOM     28  C   LIG A   1      -3.868   3.373 132.419  0.00  0.00    +0.136 C 
ATOM     29  O   LIG A   1      -3.490   0.993 132.683  0.00  0.00    -0.251 OA
ENDBRANCH  26  27
ENDBRANCH  12  26
BRANCH   4  30
ATOM     30  O   LIG A   1      -8.241  -1.196 130.366  0.00  0.00    -0.454 OA
BRANCH  30  31
ATOM     31  C   LIG A   1      -7.617  -2.306 130.831  0.00  0.00    +0.332 C 
ATOM     32  O   LIG A   1      -7.173  -2.515 131.946  0.00  0.00    -0.246 OA
BRANCH  31  33
ATOM     33  C   LIG A   1      -7.781  -3.318 129.778  0.00  0.00    +0.091 C 
ATOM     34  C   LIG A   1      -8.544  -3.086 128.697  0.00  0.00    +0.007 C 
BRANCH  34  35
ATOM     35  C   LIG A   1      -8.581  -3.969 127.536  0.00  0.00    -0.004 C 
ATOM     36  C   LIG A   1      -8.510  -3.434 126.311  0.00  0.00    -0.027 C 
BRANCH  36  37
ATOM     37  C   LIG A   1      -8.345  -3.978 124.934  0.00  0.00    +0.027 C 
BRANCH  37  38
ATOM     38  C   LIG A   1      -8.308  -3.030 123.704  0.00  0.00    +0.004 C 
BRANCH  38  39
ATOM     39  C   LIG A   1      -6.949  -2.419 123.261  0.00  0.00    +0.000 C 
BRANCH  39  40
ATOM     40  C   LIG A   1      -5.745  -2.520 124.221  0.00  0.00    -0.003 C 
ATOM     41  C   LIG A   1      -5.593  -1.414 125.222  0.00  0.00    +0.004 C 
ENDBRANCH  39  40
ENDBRANCH  38  39
ENDBRANCH  37  38
ENDBRANCH  36  37
ENDBRANCH  34  35
ENDBRANCH  31  33
ENDBRANCH  30  31
ENDBRANCH   4  30
BRANCH  14  42
ATOM     42  O   LIG A   1      -8.357   3.102 125.661  0.00  0.00    -0.457 OA
BRANCH  42  43
ATOM     43  C   LIG A   1      -8.966   2.629 124.542  0.00  0.00    +0.304 C 
ATOM     44  C   LIG A   1      -8.232   3.070 123.318  0.00  0.00    +0.136 C 
ATOM     45  O   LIG A   1      -9.999   1.973 124.505  0.00  0.00    -0.251 OA
ENDBRANCH  42  43
ENDBRANCH  14  42
BRANCH   3  46
ATOM     46  O   LIG A   1      -5.803  -0.749 128.687  0.00  0.00    -0.457 OA
BRANCH  46  47
ATOM     47  C   LIG A   1      -4.770  -1.387 129.301  0.00  0.00    +0.304 C 
ATOM     48  C   LIG A   1      -4.421  -2.680 128.666  0.00  0.00    +0.136 C 
ATOM     49  O   LIG A   1      -4.193  -1.140 130.350  0.00  0.00    -0.251 OA
ENDBRANCH  46  47
ENDBRANCH   3  46
TORSDOF 20
ENDMDL
MODEL 4
REMARK VINA RESULT:      -7.5      2.329      8.273
REMARK  Name = NuBBE_640
REMARK  27 active torsions:
REMARK  status: ('A' for Active; 'I' for Inactive)
REMARK    1  A    between atoms: C_4  and  O_6
REMARK    2  A    between atoms: O_6  and  C_7
REMARK    3  A    between atoms: C_7  and  C_8
REMARK    4  A    between atoms: C_10  and  O_12
REMARK    5  A    between atoms: O_12  and  C_13
REMARK    6  A    between atoms: C_13  and  C_14
REMARK    7  A    between atoms: C_15  and  C_16
REMARK    8  A    between atoms: C_17  and  C_18
REMARK    9  A    between atoms: C_18  and  C_19
REMARK   10  A    between atoms: C_19  and  C_20
REMARK   11  A    between atoms: C_20  and  C_21
REMARK   12  A    between atoms: C_21  and  C_22
REMARK   13  A    between atoms: C_24  and  C_26
REMARK   14  A    between atoms: C_27  and  C_28
REMARK   15  A    between atoms: C_27  and  C_29
REMARK   16  A    between atoms: C_29  and  C_30
REMARK   17  A    between atoms: C_30  and  C_31
REMARK   18  A    between atoms: C_31  and  C_32
REMARK   19  A    between atoms: C_36  and  O_38
REMARK   20  A    between atoms: O_38  and  C_39
REMARK   21  A    between atoms: C_39  and  C_40
REMARK   22  A    between atoms: C_43  and  O_45
REMARK   23  A    between atoms: O_45  and  C_46
REMARK   24  A    between atoms: C_46  and  C_47
REMARK   25  A    between atoms: C_50  and  O_52
REMARK   26  A    between atoms: O_52  and  C_53
REMARK   27  A    between atoms: C_53  and  C_54
REMARK                            x       y       z     vdW  Elec       q    Type
REMARK                         _______ _______ _______ _____ _____    ______ ____
ROOT
ATOM      1  C   LIG A   1      -5.746   0.068 127.629  0.00  0.00    +0.019 C 
ATOM      2  C   LIG A   1      -7.065   0.872 127.288  0.00  0.00    +0.104 C 
ATOM      3  C   LIG A   1      -7.858   1.079 128.635  0.00  0.00    +0.234 C 
ATOM      4  C   LIG A   1      -8.106  -0.266 129.341  0.00  0.00    +0.222 C 
ATOM      5  C   LIG A   1      -6.998  -1.370 129.347  0.00  0.00    +0.037 C 
ATOM      6  C   LIG A   1      -7.700  -2.682 129.614  0.00  0.00    +0.012 C 
ATOM      7  C   LIG A   1      -5.957  -1.428 128.157  0.00  0.00    -0.022 C 
ATOM      8  C   LIG A   1      -4.591  -1.888 128.759  0.00  0.00    +0.012 C 
ATOM      9  C   LIG A   1      -6.621   2.205 126.738  0.00  0.00    +0.014 C 
ATOM     10  C   LIG A   1      -7.300   2.508 125.435  0.00  0.00    +0.343 C 
ATOM     11  O   LIG A   1      -8.276   1.462 125.285  0.00  0.00    -0.297 OA
ATOM     12  C   LIG A   1      -7.829   0.326 126.053  0.00  0.00    +0.328 C 
ATOM     13  C   LIG A   1      -5.647   2.926 127.310  0.00  0.00    +0.023 C 
ATOM     14  C   LIG A   1      -4.851   2.435 128.472  0.00  0.00    +0.200 C 
ATOM     15  C   LIG A   1      -4.904   0.908 128.674  0.00  0.00    +0.054 C 
ENDROOT
BRANCH   7  16
ATOM     16  C   LIG A   1      -6.208  -2.444 126.947  0.00  0.00    +0.012 C 
BRANCH  16  17
ATOM     17  C   LIG A   1      -5.135  -2.831 125.841  0.00  0.00    +0.035 C 
BRANCH  17  18
ATOM     18  C   LIG A   1      -5.284  -2.617 124.328  0.00  0.00    -0.055 C 
ATOM     19  C   LIG A   1      -6.022  -1.601 123.839  0.00  0.00    +0.012 C 
BRANCH  18  20
ATOM     20  C   LIG A   1      -4.674  -3.499 123.344  0.00  0.00    -0.005 C 
ATOM     21  C   LIG A   1      -4.259  -4.744 123.571  0.00  0.00    +0.008 C 
ENDBRANCH  18  20
ENDBRANCH  17  18
ENDBRANCH  16  17
ENDBRANCH   7  16
BRANCH  10  22
ATOM     22  O   LIG A   1      -6.319   2.371 124.394  0.00  0.00    -0.431 OA
BRANCH  22  23
ATOM     23  C   LIG A   1      -6.449   3.191 123.316  0.00  0.00    +0.306 C 
ATOM     24  C   LIG A   1      -5.507   4.350 123.464  0.00  0.00    +0.136 C 
ATOM     25  O   LIG A   1      -7.267   3.084 122.414  0.00  0.00    -0.251 OA
ENDBRANCH  22  23
ENDBRANCH  10  22
BRANCH  12  26
ATOM     26  O   LIG A   1      -8.805  -0.689 126.393  0.00  0.00    -0.434 OA
BRANCH  26  27
ATOM     27  C   LIG A   1      -9.233  -1.517 125.450  0.00  0.00    +0.306 C 
ATOM     28  C   LIG A   1      -9.450  -2.939 125.811  0.00  0.00    +0.136 C 
ATOM     29  O   LIG A   1      -9.501  -1.064 124.274  0.00  0.00    -0.251 OA
ENDBRANCH  26  27
ENDBRANCH  12  26
BRANCH   4  30
ATOM     30  O   LIG A   1      -8.630  -0.050 130.680  0.00  0.00    -0.454 OA
BRANCH  30  31
ATOM     31  C   LIG A   1      -7.859   0.480 131.662  0.00  0.00    +0.332 C 
ATOM     32  O   LIG A   1      -6.659   0.354 131.835  0.00  0.00    -0.246 OA
BRANCH  31  33
ATOM     33  C   LIG A   1      -8.723   1.437 132.366  0.00  0.00    +0.091 C 
ATOM     34  C   LIG A   1      -8.210   2.481 133.038  0.00  0.00    +0.007 C 
BRANCH  34  35
ATOM     35  C   LIG A   1      -9.023   3.564 133.581  0.00  0.00    -0.004 C 
ATOM     36  C   LIG A   1      -9.052   4.739 132.940  0.00  0.00    -0.027 C 
BRANCH  36  37
ATOM     37  C   LIG A   1      -9.859   5.985 133.065  0.00  0.00    +0.027 C 
BRANCH  37  38
ATOM     38  C   LIG A   1     -10.764   6.465 131.898  0.00  0.00    +0.004 C 
BRANCH  38  39
ATOM     39  C   LIG A   1     -10.102   6.979 130.588  0.00  0.00    +0.000 C 
BRANCH  39  40
ATOM     40  C   LIG A   1     -10.890   6.860 129.266  0.00  0.00    -0.003 C 
ATOM     41  C   LIG A   1     -12.303   6.368 129.372  0.00  0.00    +0.004 C 
ENDBRANCH  39  40
ENDBRANCH  38  39
ENDBRANCH  37  38
ENDBRANCH  36  37
ENDBRANCH  34  35
ENDBRANCH  31  33
ENDBRANCH  30  31
ENDBRANCH   4  30
BRANCH  14  42
ATOM     42  O   LIG A   1      -3.485   2.799 128.225  0.00  0.00    -0.457 OA
BRANCH  42  43
ATOM     43  C   LIG A   1      -3.109   4.018 128.697  0.00  0.00    +0.304 C 
ATOM     44  C   LIG A   1      -3.531   4.181 130.120  0.00  0.00    +0.136 C 
ATOM     45  O   LIG A   1      -2.546   4.897 128.059  0.00  0.00    -0.251 OA
ENDBRANCH  42  43
ENDBRANCH  14  42
BRANCH   3  46
ATOM     46  O   LIG A   1      -8.950   2.108 128.630  0.00  0.00    -0.457 OA
BRANCH  46  47
ATOM     47  C   LIG A   1      -9.217   3.192 129.407  0.00  0.00    +0.304 C 
ATOM     48  C   LIG A   1      -8.022   4.024 129.681  0.00  0.00    +0.136 C 
ATOM     49  O   LIG A   1     -10.229   3.503 130.017  0.00  0.00    -0.251 OA
ENDBRANCH  46  47
ENDBRANCH   3  46
TORSDOF 20
ENDMDL
MODEL 5
REMARK VINA RESULT:      -7.3      2.492      7.038
REMARK  Name = NuBBE_640
REMARK  27 active torsions:
REMARK  status: ('A' for Active; 'I' for Inactive)
REMARK    1  A    between atoms: C_4  and  O_6
REMARK    2  A    between atoms: O_6  and  C_7
REMARK    3  A    between atoms: C_7  and  C_8
REMARK    4  A    between atoms: C_10  and  O_12
REMARK    5  A    between atoms: O_12  and  C_13
REMARK    6  A    between atoms: C_13  and  C_14
REMARK    7  A    between atoms: C_15  and  C_16
REMARK    8  A    between atoms: C_17  and  C_18
REMARK    9  A    between atoms: C_18  and  C_19
REMARK   10  A    between atoms: C_19  and  C_20
REMARK   11  A    between atoms: C_20  and  C_21
REMARK   12  A    between atoms: C_21  and  C_22
REMARK   13  A    between atoms: C_24  and  C_26
REMARK   14  A    between atoms: C_27  and  C_28
REMARK   15  A    between atoms: C_27  and  C_29
REMARK   16  A    between atoms: C_29  and  C_30
REMARK   17  A    between atoms: C_30  and  C_31
REMARK   18  A    between atoms: C_31  and  C_32
REMARK   19  A    between atoms: C_36  and  O_38
REMARK   20  A    between atoms: O_38  and  C_39
REMARK   21  A    between atoms: C_39  and  C_40
REMARK   22  A    between atoms: C_43  and  O_45
REMARK   23  A    between atoms: O_45  and  C_46
REMARK   24  A    between atoms: C_46  and  C_47
REMARK   25  A    between atoms: C_50  and  O_52
REMARK   26  A    between atoms: O_52  and  C_53
REMARK   27  A    between atoms: C_53  and  C_54
REMARK                            x       y       z     vdW  Elec       q    Type
REMARK                         _______ _______ _______ _____ _____    ______ ____
ROOT
ATOM      1  C   LIG A   1      -6.319   1.759 128.465  0.00  0.00    +0.019 C 
ATOM      2  C   LIG A   1      -6.398   0.218 128.812  0.00  0.00    +0.104 C 
ATOM      3  C   LIG A   1      -7.377   0.055 130.037  0.00  0.00    +0.234 C 
ATOM      4  C   LIG A   1      -6.938   0.944 131.215  0.00  0.00    +0.222 C 
ATOM      5  C   LIG A   1      -6.382   2.381 130.954  0.00  0.00    +0.037 C 
ATOM      6  C   LIG A   1      -5.574   2.758 132.176  0.00  0.00    +0.012 C 
ATOM      7  C   LIG A   1      -5.657   2.694 129.583  0.00  0.00    -0.022 C 
ATOM      8  C   LIG A   1      -6.006   4.167 129.200  0.00  0.00    +0.012 C 
ATOM      9  C   LIG A   1      -6.973  -0.464 127.595  0.00  0.00    +0.014 C 
ATOM     10  C   LIG A   1      -6.128  -1.628 127.174  0.00  0.00    +0.343 C 
ATOM     11  O   LIG A   1      -5.154  -1.765 128.224  0.00  0.00    -0.297 OA
ATOM     12  C   LIG A   1      -5.015  -0.482 128.868  0.00  0.00    +0.328 C 
ATOM     13  C   LIG A   1      -8.032   0.027 126.935  0.00  0.00    +0.023 C 
ATOM     14  C   LIG A   1      -8.669   1.331 127.278  0.00  0.00    +0.200 C 
ATOM     15  C   LIG A   1      -7.777   2.269 128.113  0.00  0.00    +0.054 C 
ENDROOT
BRANCH   7  16
ATOM     16  C   LIG A   1      -4.059   2.643 129.513  0.00  0.00    +0.012 C 
BRANCH  16  17
ATOM     17  C   LIG A   1      -3.161   3.487 128.510  0.00  0.00    +0.035 C 
BRANCH  17  18
ATOM     18  C   LIG A   1      -2.879   3.137 127.043  0.00  0.00    -0.055 C 
ATOM     19  C   LIG A   1      -1.617   2.992 126.594  0.00  0.00    +0.012 C 
BRANCH  18  20
ATOM     20  C   LIG A   1      -3.934   2.972 126.055  0.00  0.00    -0.005 C 
ATOM     21  C   LIG A   1      -4.823   3.901 125.708  0.00  0.00    +0.008 C 
ENDBRANCH  18  20
ENDBRANCH  17  18
ENDBRANCH  16  17
ENDBRANCH   7  16
BRANCH  10  22
ATOM     22  O   LIG A   1      -5.447  -1.255 125.965  0.00  0.00    -0.431 OA
BRANCH  22  23
ATOM     23  C   LIG A   1      -5.904  -1.806 124.808  0.00  0.00    +0.306 C 
ATOM     24  C   LIG A   1      -5.157  -3.082 124.543  0.00  0.00    +0.136 C 
ATOM     25  O   LIG A   1      -6.712  -1.312 124.035  0.00  0.00    -0.251 OA
ENDBRANCH  22  23
ENDBRANCH  10  22
BRANCH  12  26
ATOM     26  O   LIG A   1      -4.416  -0.448 130.187  0.00  0.00    -0.434 OA
BRANCH  26  27
ATOM     27  C   LIG A   1      -3.682  -1.476 130.591  0.00  0.00    +0.306 C 
ATOM     28  C   LIG A   1      -3.953  -2.048 131.932  0.00  0.00    +0.136 C 
ATOM     29  O   LIG A   1      -2.801  -1.983 129.799  0.00  0.00    -0.251 OA
ENDBRANCH  26  27
ENDBRANCH  12  26
BRANCH   4  30
ATOM     30  O   LIG A   1      -7.963   0.963 132.247  0.00  0.00    -0.454 OA
BRANCH  30  31
ATOM     31  C   LIG A   1      -9.256   1.246 131.952  0.00  0.00    +0.332 C 
ATOM     32  O   LIG A   1     -10.183   0.472 131.790  0.00  0.00    -0.246 OA
BRANCH  31  33
ATOM     33  C   LIG A   1      -9.379   2.705 132.088  0.00  0.00    +0.091 C 
ATOM     34  C   LIG A   1      -9.697   3.480 131.039  0.00  0.00    +0.007 C 
BRANCH  34  35
ATOM     35  C   LIG A   1     -10.026   4.897 131.159  0.00  0.00    -0.004 C 
ATOM     36  C   LIG A   1      -9.606   5.744 130.211  0.00  0.00    -0.027 C 
BRANCH  36  37
ATOM     37  C   LIG A   1      -9.871   7.174 129.887  0.00  0.00    +0.027 C 
BRANCH  37  38
ATOM     38  C   LIG A   1     -10.438   7.582 128.500  0.00  0.00    +0.004 C 
BRANCH  38  39
ATOM     39  C   LIG A   1     -11.917   7.244 128.158  0.00  0.00    +0.000 C 
BRANCH  39  40
ATOM     40  C   LIG A   1     -13.037   7.910 128.984  0.00  0.00    -0.003 C 
ATOM     41  C   LIG A   1     -12.889   9.378 129.251  0.00  0.00    +0.004 C 
ENDBRANCH  39  40
ENDBRANCH  38  39
ENDBRANCH  37  38
ENDBRANCH  36  37
ENDBRANCH  34  35
ENDBRANCH  31  33
ENDBRANCH  30  31
ENDBRANCH   4  30
BRANCH  14  42
ATOM     42  O   LIG A   1      -8.962   1.990 126.038  0.00  0.00    -0.457 OA
BRANCH  42  43
ATOM     43  C   LIG A   1      -9.592   1.230 125.103  0.00  0.00    +0.304 C 
ATOM     44  C   LIG A   1      -8.997   1.459 123.753  0.00  0.00    +0.136 C 
ATOM     45  O   LIG A   1     -10.546   0.489 125.299  0.00  0.00    -0.251 OA
ENDBRANCH  42  43
ENDBRANCH  14  42
BRANCH   3  46
ATOM     46  O   LIG A   1      -7.887  -1.327 130.321  0.00  0.00    -0.457 OA
BRANCH  46  47
ATOM     47  C   LIG A   1      -7.452  -2.340 131.118  0.00  0.00    +0.304 C 
ATOM     48  C   LIG A   1      -7.003  -3.530 130.358  0.00  0.00    +0.136 C 
ATOM     49  O   LIG A   1      -7.505  -2.476 132.331  0.00  0.00    -0.251 OA
ENDBRANCH  46  47
ENDBRANCH   3  46
TORSDOF 20
ENDMDL
MODEL 6
REMARK VINA RESULT:      -7.2      1.889      3.200
REMARK  Name = NuBBE_640
REMARK  27 active torsions:
REMARK  status: ('A' for Active; 'I' for Inactive)
REMARK    1  A    between atoms: C_4  and  O_6
REMARK    2  A    between atoms: O_6  and  C_7
REMARK    3  A    between atoms: C_7  and  C_8
REMARK    4  A    between atoms: C_10  and  O_12
REMARK    5  A    between atoms: O_12  and  C_13
REMARK    6  A    between atoms: C_13  and  C_14
REMARK    7  A    between atoms: C_15  and  C_16
REMARK    8  A    between atoms: C_17  and  C_18
REMARK    9  A    between atoms: C_18  and  C_19
REMARK   10  A    between atoms: C_19  and  C_20
REMARK   11  A    between atoms: C_20  and  C_21
REMARK   12  A    between atoms: C_21  and  C_22
REMARK   13  A    between atoms: C_24  and  C_26
REMARK   14  A    between atoms: C_27  and  C_28
REMARK   15  A    between atoms: C_27  and  C_29
REMARK   16  A    between atoms: C_29  and  C_30
REMARK   17  A    between atoms: C_30  and  C_31
REMARK   18  A    between atoms: C_31  and  C_32
REMARK   19  A    between atoms: C_36  and  O_38
REMARK   20  A    between atoms: O_38  and  C_39
REMARK   21  A    between atoms: C_39  and  C_40
REMARK   22  A    between atoms: C_43  and  O_45
REMARK   23  A    between atoms: O_45  and  C_46
REMARK   24  A    between atoms: C_46  and  C_47
REMARK   25  A    between atoms: C_50  and  O_52
REMARK   26  A    between atoms: O_52  and  C_53
REMARK   27  A    between atoms: C_53  and  C_54
REMARK                            x       y       z     vdW  Elec       q    Type
REMARK                         _______ _______ _______ _____ _____    ______ ____
ROOT
ATOM      1  C   LIG A   1      -8.373   3.445 129.422  0.00  0.00    +0.019 C 
ATOM      2  C   LIG A   1      -6.809   3.214 129.476  0.00  0.00    +0.104 C 
ATOM      3  C   LIG A   1      -6.555   1.847 130.220  0.00  0.00    +0.234 C 
ATOM      4  C   LIG A   1      -7.241   1.833 131.597  0.00  0.00    +0.222 C 
ATOM      5  C   LIG A   1      -8.656   2.474 131.781  0.00  0.00    +0.037 C 
ATOM      6  C   LIG A   1      -8.803   2.776 133.255  0.00  0.00    +0.012 C 
ATOM      7  C   LIG A   1      -9.097   3.662 130.834  0.00  0.00    -0.022 C 
ATOM      8  C   LIG A   1     -10.630   3.508 130.580  0.00  0.00    +0.012 C 
ATOM      9  C   LIG A   1      -6.344   3.120 128.044  0.00  0.00    +0.014 C 
ATOM     10  C   LIG A   1      -5.187   4.039 127.787  0.00  0.00    +0.343 C 
ATOM     11  O   LIG A   1      -4.838   4.550 129.086  0.00  0.00    -0.297 OA
ATOM     12  C   LIG A   1      -6.008   4.464 129.925  0.00  0.00    +0.328 C 
ATOM     13  C   LIG A   1      -6.996   2.391 127.126  0.00  0.00    +0.023 C 
ATOM     14  C   LIG A   1      -8.285   1.697 127.409  0.00  0.00    +0.200 C 
ATOM     15  C   LIG A   1      -9.032   2.232 128.646  0.00  0.00    +0.054 C 
ENDROOT
BRANCH   7  16
ATOM     16  C   LIG A   1      -8.938   5.170 131.344  0.00  0.00    +0.012 C 
BRANCH  16  17
ATOM     17  C   LIG A   1      -9.038   6.461 130.424  0.00  0.00    +0.035 C 
BRANCH  17  18
ATOM     18  C   LIG A   1     -10.334   7.168 130.003  0.00  0.00    -0.055 C 
ATOM     19  C   LIG A   1     -10.364   7.986 128.933  0.00  0.00    +0.012 C 
BRANCH  18  20
ATOM     20  C   LIG A   1     -11.583   7.026 130.737  0.00  0.00    -0.005 C 
ATOM     21  C   LIG A   1     -12.758   7.534 130.372  0.00  0.00    +0.008 C 
ENDBRANCH  18  20
ENDBRANCH  17  18
ENDBRANCH  16  17
ENDBRANCH   7  16
BRANCH  10  22
ATOM     22  O   LIG A   1      -5.669   5.127 126.982  0.00  0.00    -0.431 OA
BRANCH  22  23
ATOM     23  C   LIG A   1      -5.532   5.002 125.635  0.00  0.00    +0.306 C 
ATOM     24  C   LIG A   1      -4.359   4.112 125.340  0.00  0.00    +0.136 C 
ATOM     25  O   LIG A   1      -6.176   5.591 124.779  0.00  0.00    -0.251 OA
ENDBRANCH  22  23
ENDBRANCH  10  22
BRANCH  12  26
ATOM     26  O   LIG A   1      -5.819   4.531 131.360  0.00  0.00    -0.434 OA
BRANCH  26  27
ATOM     27  C   LIG A   1      -5.715   5.717 131.944  0.00  0.00    +0.306 C 
ATOM     28  C   LIG A   1      -5.740   5.775 133.425  0.00  0.00    +0.136 C 
ATOM     29  O   LIG A   1      -5.540   6.771 131.224  0.00  0.00    -0.251 OA
ENDBRANCH  26  27
ENDBRANCH  12  26
BRANCH   4  30
ATOM     30  O   LIG A   1      -7.197   0.499 132.175  0.00  0.00    -0.454 OA
BRANCH  30  31
ATOM     31  C   LIG A   1      -8.227  -0.369 132.024  0.00  0.00    +0.332 C 
ATOM     32  O   LIG A   1      -9.262  -0.437 132.665  0.00  0.00    -0.246 OA
BRANCH  31  33
ATOM     33  C   LIG A   1      -7.954  -1.087 130.771  0.00  0.00    +0.091 C 
ATOM     34  C   LIG A   1      -7.554  -2.369 130.772  0.00  0.00    +0.007 C 
BRANCH  34  35
ATOM     35  C   LIG A   1      -7.464  -3.183 129.563  0.00  0.00    -0.004 C 
ATOM     36  C   LIG A   1      -8.564  -3.373 128.825  0.00  0.00    -0.027 C 
BRANCH  36  37
ATOM     37  C   LIG A   1      -8.842  -3.965 127.486  0.00  0.00    +0.027 C 
BRANCH  37  38
ATOM     38  C   LIG A   1      -8.617  -3.139 126.190  0.00  0.00    +0.004 C 
BRANCH  38  39
ATOM     39  C   LIG A   1      -7.200  -2.577 125.887  0.00  0.00    +0.000 C 
BRANCH  39  40
ATOM     40  C   LIG A   1      -6.739  -2.489 124.417  0.00  0.00    -0.003 C 
ATOM     41  C   LIG A   1      -5.301  -2.821 124.146  0.00  0.00    +0.004 C 
ENDBRANCH  39  40
ENDBRANCH  38  39
ENDBRANCH  37  38
ENDBRANCH  36  37
ENDBRANCH  34  35
ENDBRANCH  31  33
ENDBRANCH  30  31
ENDBRANCH   4  30
BRANCH  14  42
ATOM     42  O   LIG A   1      -9.126   1.898 126.265  0.00  0.00    -0.457 OA
BRANCH  42  43
ATOM     43  C   LIG A   1      -9.370   0.791 125.514  0.00  0.00    +0.304 C 
ATOM     44  C   LIG A   1      -8.474   0.760 124.319  0.00  0.00    +0.136 C 
ATOM     45  O   LIG A   1     -10.226  -0.055 125.732  0.00  0.00    -0.251 OA
ENDBRANCH  42  43
ENDBRANCH  14  42
BRANCH   3  46
ATOM     46  O   LIG A   1      -5.189   1.242 130.083  0.00  0.00    -0.457 OA
BRANCH  46  47
ATOM     47  C   LIG A   1      -4.743   0.012 129.710  0.00  0.00    +0.304 C 
ATOM     48  C   LIG A   1      -5.238  -0.409 128.378  0.00  0.00    +0.136 C 
ATOM     49  O   LIG A   1      -4.134  -0.838 130.341  0.00  0.00    -0.251 OA
ENDBRANCH  46  47
ENDBRANCH   3  46
TORSDOF 20
ENDMDL
MODEL 7
REMARK VINA RESULT:      -7.2      1.602      2.449
REMARK  Name = NuBBE_640
REMARK  27 active torsions:
REMARK  status: ('A' for Active; 'I' for Inactive)
REMARK    1  A    between atoms: C_4  and  O_6
REMARK    2  A    between atoms: O_6  and  C_7
REMARK    3  A    between atoms: C_7  and  C_8
REMARK    4  A    between atoms: C_10  and  O_12
REMARK    5  A    between atoms: O_12  and  C_13
REMARK    6  A    between atoms: C_13  and  C_14
REMARK    7  A    between atoms: C_15  and  C_16
REMARK    8  A    between atoms: C_17  and  C_18
REMARK    9  A    between atoms: C_18  and  C_19
REMARK   10  A    between atoms: C_19  and  C_20
REMARK   11  A    between atoms: C_20  and  C_21
REMARK   12  A    between atoms: C_21  and  C_22
REMARK   13  A    between atoms: C_24  and  C_26
REMARK   14  A    between atoms: C_27  and  C_28
REMARK   15  A    between atoms: C_27  and  C_29
REMARK   16  A    between atoms: C_29  and  C_30
REMARK   17  A    between atoms: C_30  and  C_31
REMARK   18  A    between atoms: C_31  and  C_32
REMARK   19  A    between atoms: C_36  and  O_38
REMARK   20  A    between atoms: O_38  and  C_39
REMARK   21  A    between atoms: C_39  and  C_40
REMARK   22  A    between atoms: C_43  and  O_45
REMARK   23  A    between atoms: O_45  and  C_46
REMARK   24  A    between atoms: C_46  and  C_47
REMARK   25  A    between atoms: C_50  and  O_52
REMARK   26  A    between atoms: O_52  and  C_53
REMARK   27  A    between atoms: C_53  and  C_54
REMARK                            x       y       z     vdW  Elec       q    Type
REMARK                         _______ _______ _______ _____ _____    ______ ____
ROOT
ATOM      1  C   LIG A   1      -7.143   3.103 131.274  0.00  0.00    +0.019 C 
ATOM      2  C   LIG A   1      -5.958   2.572 130.370  0.00  0.00    +0.104 C 
ATOM      3  C   LIG A   1      -6.426   1.214 129.721  0.00  0.00    +0.234 C 
ATOM      4  C   LIG A   1      -6.890   0.218 130.798  0.00  0.00    +0.222 C 
ATOM      5  C   LIG A   1      -7.707   0.717 132.034  0.00  0.00    +0.037 C 
ATOM      6  C   LIG A   1      -7.541  -0.330 133.111  0.00  0.00    +0.012 C 
ATOM      7  C   LIG A   1      -7.510   2.202 132.545  0.00  0.00    -0.022 C 
ATOM      8  C   LIG A   1      -8.895   2.702 133.064  0.00  0.00    +0.012 C 
ATOM      9  C   LIG A   1      -5.741   3.613 129.299  0.00  0.00    +0.014 C 
ATOM     10  C   LIG A   1      -4.297   4.007 129.209  0.00  0.00    +0.343 C 
ATOM     11  O   LIG A   1      -3.618   3.091 130.086  0.00  0.00    -0.297 OA
ATOM     12  C   LIG A   1      -4.571   2.625 131.064  0.00  0.00    +0.328 C 
ATOM     13  C   LIG A   1      -6.759   4.174 128.631  0.00  0.00    +0.023 C 
ATOM     14  C   LIG A   1      -8.189   3.900 128.954  0.00  0.00    +0.200 C 
ATOM     15  C   LIG A   1      -8.418   3.309 130.357  0.00  0.00    +0.054 C 
ENDROOT
BRANCH   7  16
ATOM     16  C   LIG A   1      -6.514   2.483 133.765  0.00  0.00    +0.012 C 
BRANCH  16  17
ATOM     17  C   LIG A   1      -6.610   3.722 134.756  0.00  0.00    +0.035 C 
BRANCH  17  18
ATOM     18  C   LIG A   1      -6.922   5.171 134.358  0.00  0.00    -0.055 C 
ATOM     19  C   LIG A   1      -7.834   5.896 135.034  0.00  0.00    +0.012 C 
BRANCH  18  20
ATOM     20  C   LIG A   1      -6.286   5.831 133.228  0.00  0.00    -0.005 C 
ATOM     21  C   LIG A   1      -4.974   5.920 133.020  0.00  0.00    +0.008 C 
ENDBRANCH  18  20
ENDBRANCH  17  18
ENDBRANCH  16  17
ENDBRANCH   7  16
BRANCH  10  22
ATOM     22  O   LIG A   1      -4.176   5.333 129.750  0.00  0.00    -0.431 OA
BRANCH  22  23
ATOM     23  C   LIG A   1      -2.934   5.887 129.744  0.00  0.00    +0.306 C 
ATOM     24  C   LIG A   1      -2.412   5.909 128.337  0.00  0.00    +0.136 C 
ATOM     25  O   LIG A   1      -2.281   6.223 130.722  0.00  0.00    -0.251 OA
ENDBRANCH  22  23
ENDBRANCH  10  22
BRANCH  12  26
ATOM     26  O   LIG A   1      -4.256   1.414 131.793  0.00  0.00    -0.434 OA
BRANCH  26  27
ATOM     27  C   LIG A   1      -3.360   1.461 132.770  0.00  0.00    +0.306 C 
ATOM     28  C   LIG A   1      -2.975   2.789 133.306  0.00  0.00    +0.136 C 
ATOM     29  O   LIG A   1      -2.892   0.366 133.261  0.00  0.00    -0.251 OA
ENDBRANCH  26  27
ENDBRANCH  12  26
BRANCH   4  30
ATOM     30  O   LIG A   1      -7.529  -0.935 130.185  0.00  0.00    -0.454 OA
BRANCH  30  31
ATOM     31  C   LIG A   1      -6.903  -2.136 130.119  0.00  0.00    +0.332 C 
ATOM     32  O   LIG A   1      -6.328  -2.741 131.007  0.00  0.00    -0.246 OA
BRANCH  31  33
ATOM     33  C   LIG A   1      -7.248  -2.687 128.801  0.00  0.00    +0.091 C 
ATOM     34  C   LIG A   1      -8.356  -3.424 128.619  0.00  0.00    +0.007 C 
BRANCH  34  35
ATOM     35  C   LIG A   1      -8.848  -3.823 127.304  0.00  0.00    -0.004 C 
ATOM     36  C   LIG A   1      -8.529  -3.079 126.238  0.00  0.00    -0.027 C 
BRANCH  36  37
ATOM     37  C   LIG A   1      -8.678  -3.236 124.764  0.00  0.00    +0.027 C 
BRANCH  37  38
ATOM     38  C   LIG A   1      -7.470  -3.007 123.815  0.00  0.00    +0.004 C 
BRANCH  38  39
ATOM     39  C   LIG A   1      -6.029  -3.060 124.397  0.00  0.00    +0.000 C 
BRANCH  39  40
ATOM     40  C   LIG A   1      -4.850  -3.296 123.430  0.00  0.00    -0.003 C 
ATOM     41  C   LIG A   1      -4.171  -4.630 123.517  0.00  0.00    +0.004 C 
ENDBRANCH  39  40
ENDBRANCH  38  39
ENDBRANCH  37  38
ENDBRANCH  36  37
ENDBRANCH  34  35
ENDBRANCH  31  33
ENDBRANCH  30  31
ENDBRANCH   4  30
BRANCH  14  42
ATOM     42  O   LIG A   1      -8.879   5.157 128.887  0.00  0.00    -0.457 OA
BRANCH  42  43
ATOM     43  C   LIG A   1      -9.804   5.370 129.860  0.00  0.00    +0.304 C 
ATOM     44  C   LIG A   1      -9.289   6.342 130.870  0.00  0.00    +0.136 C 
ATOM     45  O   LIG A   1     -10.895   4.822 129.952  0.00  0.00    -0.251 OA
ENDBRANCH  42  43
ENDBRANCH  14  42
BRANCH   3  46
ATOM     46  O   LIG A   1      -5.626   0.705 128.558  0.00  0.00    -0.457 OA
BRANCH  46  47
ATOM     47  C   LIG A   1      -5.869   0.615 127.222  0.00  0.00    +0.304 C 
ATOM     48  C   LIG A   1      -7.307   0.458 126.899  0.00  0.00    +0.136 C 
ATOM     49  O   LIG A   1      -5.099   0.500 126.280  0.00  0.00    -0.251 OA
ENDBRANCH  46  47
ENDBRANCH   3  46
TORSDOF 20
ENDMDL
MODEL 8
REMARK VINA RESULT:      -7.1      3.248      8.219
REMARK  Name = NuBBE_640
REMARK  27 active torsions:
REMARK  status: ('A' for Active; 'I' for Inactive)
REMARK    1  A    between atoms: C_4  and  O_6
REMARK    2  A    between atoms: O_6  and  C_7
REMARK    3  A    between atoms: C_7  and  C_8
REMARK    4  A    between atoms: C_10  and  O_12
REMARK    5  A    between atoms: O_12  and  C_13
REMARK    6  A    between atoms: C_13  and  C_14
REMARK    7  A    between atoms: C_15  and  C_16
REMARK    8  A    between atoms: C_17  and  C_18
REMARK    9  A    between atoms: C_18  and  C_19
REMARK   10  A    between atoms: C_19  and  C_20
REMARK   11  A    between atoms: C_20  and  C_21
REMARK   12  A    between atoms: C_21  and  C_22
REMARK   13  A    between atoms: C_24  and  C_26
REMARK   14  A    between atoms: C_27  and  C_28
REMARK   15  A    between atoms: C_27  and  C_29
REMARK   16  A    between atoms: C_29  and  C_30
REMARK   17  A    between atoms: C_30  and  C_31
REMARK   18  A    between atoms: C_31  and  C_32
REMARK   19  A    between atoms: C_36  and  O_38
REMARK   20  A    between atoms: O_38  and  C_39
REMARK   21  A    between atoms: C_39  and  C_40
REMARK   22  A    between atoms: C_43  and  O_45
REMARK   23  A    between atoms: O_45  and  C_46
REMARK   24  A    between atoms: C_46  and  C_47
REMARK   25  A    between atoms: C_50  and  O_52
REMARK   26  A    between atoms: O_52  and  C_53
REMARK   27  A    between atoms: C_53  and  C_54
REMARK                            x       y       z     vdW  Elec       q    Type
REMARK                         _______ _______ _______ _____ _____    ______ ____
ROOT
ATOM      1  C   LIG A   1      -7.618   1.289 125.175  0.00  0.00    +0.019 C 
ATOM      2  C   LIG A   1      -7.091   0.404 126.374  0.00  0.00    +0.104 C 
ATOM      3  C   LIG A   1      -8.055   0.638 127.599  0.00  0.00    +0.234 C 
ATOM      4  C   LIG A   1      -8.174   2.137 127.928  0.00  0.00    +0.222 C 
ATOM      5  C   LIG A   1      -8.239   3.194 126.779  0.00  0.00    +0.037 C 
ATOM      6  C   LIG A   1      -7.818   4.514 127.384  0.00  0.00    +0.012 C 
ATOM      7  C   LIG A   1      -7.548   2.874 125.392  0.00  0.00    -0.022 C 
ATOM      8  C   LIG A   1      -8.428   3.519 124.275  0.00  0.00    +0.012 C 
ATOM      9  C   LIG A   1      -7.176  -1.031 125.914  0.00  0.00    +0.014 C 
ATOM     10  C   LIG A   1      -5.877  -1.749 126.131  0.00  0.00    +0.343 C 
ATOM     11  O   LIG A   1      -5.072  -0.820 126.878  0.00  0.00    -0.297 OA
ATOM     12  C   LIG A   1      -5.560   0.509 126.603  0.00  0.00    +0.328 C 
ATOM     13  C   LIG A   1      -8.253  -1.515 125.279  0.00  0.00    +0.023 C 
ATOM     14  C   LIG A   1      -9.411  -0.664 124.883  0.00  0.00    +0.200 C 
ATOM     15  C   LIG A   1      -9.101   0.844 124.838  0.00  0.00    +0.054 C 
ENDROOT
BRANCH   7  16
ATOM     16  C   LIG A   1      -6.079   3.437 125.101  0.00  0.00    +0.012 C 
BRANCH  16  17
ATOM     17  C   LIG A   1      -5.730   4.588 124.062  0.00  0.00    +0.035 C 
BRANCH  17  18
ATOM     18  C   LIG A   1      -5.339   4.385 122.592  0.00  0.00    -0.055 C 
ATOM     19  C   LIG A   1      -4.243   4.977 122.077  0.00  0.00    +0.012 C 
BRANCH  18  20
ATOM     20  C   LIG A   1      -6.127   3.581 121.671  0.00  0.00    -0.005 C 
ATOM     21  C   LIG A   1      -5.643   2.677 120.822  0.00  0.00    +0.008 C 
ENDBRANCH  18  20
ENDBRANCH  17  18
ENDBRANCH  16  17
ENDBRANCH   7  16
BRANCH  10  22
ATOM     22  O   LIG A   1      -5.271  -1.948 124.844  0.00  0.00    -0.431 OA
BRANCH  22  23
ATOM     23  C   LIG A   1      -5.348  -3.199 124.315  0.00  0.00    +0.306 C 
ATOM     24  C   LIG A   1      -4.137  -3.449 123.464  0.00  0.00    +0.136 C 
ATOM     25  O   LIG A   1      -6.288  -3.974 124.413  0.00  0.00    -0.251 OA
ENDBRANCH  22  23
ENDBRANCH  10  22
BRANCH  12  26
ATOM     26  O   LIG A   1      -5.196   1.568 127.522  0.00  0.00    -0.434 OA
BRANCH  26  27
ATOM     27  C   LIG A   1      -4.073   2.244 127.319  0.00  0.00    +0.306 C 
ATOM     28  C   LIG A   1      -3.612   3.174 128.377  0.00  0.00    +0.136 C 
ATOM     29  O   LIG A   1      -3.389   2.039 126.247  0.00  0.00    -0.251 OA
ENDBRANCH  26  27
ENDBRANCH  12  26
BRANCH   4  30
ATOM     30  O   LIG A   1      -9.231   2.362 128.901  0.00  0.00    -0.454 OA
BRANCH  30  31
ATOM     31  C   LIG A   1      -8.961   2.858 130.134  0.00  0.00    +0.332 C 
ATOM     32  O   LIG A   1      -7.902   2.859 130.735  0.00  0.00    -0.246 OA
BRANCH  31  33
ATOM     33  C   LIG A   1     -10.162   3.610 130.525  0.00  0.00    +0.091 C 
ATOM     34  C   LIG A   1     -10.205   4.950 130.444  0.00  0.00    +0.007 C 
BRANCH  34  35
ATOM     35  C   LIG A   1     -11.428   5.727 130.627  0.00  0.00    -0.004 C 
ATOM     36  C   LIG A   1     -11.447   7.009 130.243  0.00  0.00    -0.027 C 
BRANCH  36  37
ATOM     37  C   LIG A   1     -12.504   8.048 130.102  0.00  0.00    +0.027 C 
BRANCH  37  38
ATOM     38  C   LIG A   1     -12.981   8.511 128.698  0.00  0.00    +0.004 C 
BRANCH  38  39
ATOM     39  C   LIG A   1     -13.394   7.441 127.648  0.00  0.00    +0.000 C 
BRANCH  39  40
ATOM     40  C   LIG A   1     -12.373   7.037 126.563  0.00  0.00    -0.003 C 
ATOM     41  C   LIG A   1     -11.042   7.726 126.608  0.00  0.00    +0.004 C 
ENDBRANCH  39  40
ENDBRANCH  38  39
ENDBRANCH  37  38
ENDBRANCH  36  37
ENDBRANCH  34  35
ENDBRANCH  31  33
ENDBRANCH  30  31
ENDBRANCH   4  30
BRANCH  14  42
ATOM     42  O   LIG A   1      -9.798  -1.074 123.563  0.00  0.00    -0.457 OA
BRANCH  42  43
ATOM     43  C   LIG A   1      -9.041  -2.058 123.010  0.00  0.00    +0.304 C 
ATOM     44  C   LIG A   1      -9.628  -3.400 123.304  0.00  0.00    +0.136 C 
ATOM     45  O   LIG A   1      -7.994  -1.904 122.394  0.00  0.00    -0.251 OA
ENDBRANCH  42  43
ENDBRANCH  14  42
BRANCH   3  46
ATOM     46  O   LIG A   1      -7.974  -0.349 128.727  0.00  0.00    -0.457 OA
BRANCH  46  47
ATOM     47  C   LIG A   1      -7.246  -0.401 129.875  0.00  0.00    +0.304 C 
ATOM     48  C   LIG A   1      -8.061  -0.725 131.069  0.00  0.00    +0.136 C 
ATOM     49  O   LIG A   1      -6.085  -0.090 130.095  0.00  0.00    -0.251 OA
ENDBRANCH  46  47
ENDBRANCH   3  46
TORSDOF 20
ENDMDL
MODEL 9
REMARK VINA RESULT:      -7.1      2.119      5.158
REMARK  Name = NuBBE_640
REMARK  27 active torsions:
REMARK  status: ('A' for Active; 'I' for Inactive)
REMARK    1  A    between atoms: C_4  and  O_6
REMARK    2  A    between atoms: O_6  and  C_7
REMARK    3  A    between atoms: C_7  and  C_8
REMARK    4  A    between atoms: C_10  and  O_12
REMARK    5  A    between atoms: O_12  and  C_13
REMARK    6  A    between atoms: C_13  and  C_14
REMARK    7  A    between atoms: C_15  and  C_16
REMARK    8  A    between atoms: C_17  and  C_18
REMARK    9  A    between atoms: C_18  and  C_19
REMARK   10  A    between atoms: C_19  and  C_20
REMARK   11  A    between atoms: C_20  and  C_21
REMARK   12  A    between atoms: C_21  and  C_22
REMARK   13  A    between atoms: C_24  and  C_26
REMARK   14  A    between atoms: C_27  and  C_28
REMARK   15  A    between atoms: C_27  and  C_29
REMARK   16  A    between atoms: C_29  and  C_30
REMARK   17  A    between atoms: C_30  and  C_31
REMARK   18  A    between atoms: C_31  and  C_32
REMARK   19  A    between atoms: C_36  and  O_38
REMARK   20  A    between atoms: O_38  and  C_39
REMARK   21  A    between atoms: C_39  and  C_40
REMARK   22  A    between atoms: C_43  and  O_45
REMARK   23  A    between atoms: O_45  and  C_46
REMARK   24  A    between atoms: C_46  and  C_47
REMARK   25  A    between atoms: C_50  and  O_52
REMARK   26  A    between atoms: O_52  and  C_53
REMARK   27  A    between atoms: C_53  and  C_54
REMARK                            x       y       z     vdW  Elec       q    Type
REMARK                         _______ _______ _______ _____ _____    ______ ____
ROOT
ATOM      1  C   LIG A   1      -6.761   3.210 131.255  0.00  0.00    +0.019 C 
ATOM      2  C   LIG A   1      -7.456   3.258 129.835  0.00  0.00    +0.104 C 
ATOM      3  C   LIG A   1      -7.640   1.772 129.343  0.00  0.00    +0.234 C 
ATOM      4  C   LIG A   1      -6.300   1.015 129.362  0.00  0.00    +0.222 C 
ATOM      5  C   LIG A   1      -5.282   1.243 130.526  0.00  0.00    +0.037 C 
ATOM      6  C   LIG A   1      -3.929   0.814 130.005  0.00  0.00    +0.012 C 
ATOM      7  C   LIG A   1      -5.268   2.633 131.282  0.00  0.00    -0.022 C 
ATOM      8  C   LIG A   1      -4.927   2.344 132.778  0.00  0.00    +0.012 C 
ATOM      9  C   LIG A   1      -8.803   3.906 130.042  0.00  0.00    +0.014 C 
ATOM     10  C   LIG A   1      -9.021   5.029 129.072  0.00  0.00    +0.343 C 
ATOM     11  O   LIG A   1      -7.903   4.949 128.171  0.00  0.00    -0.297 OA
ATOM     12  C   LIG A   1      -6.823   4.288 128.863  0.00  0.00    +0.328 C 
ATOM     13  C   LIG A   1      -9.609   3.571 131.060  0.00  0.00    +0.023 C 
ATOM     14  C   LIG A   1      -9.209   2.609 132.127  0.00  0.00    +0.200 C 
ATOM     15  C   LIG A   1      -7.689   2.386 132.239  0.00  0.00    +0.054 C 
ENDROOT
BRANCH   7  16
ATOM     16  C   LIG A   1      -4.205   3.748 130.850  0.00  0.00    +0.012 C 
BRANCH  16  17
ATOM     17  C   LIG A   1      -2.949   4.197 131.715  0.00  0.00    +0.035 C 
BRANCH  17  18
ATOM     18  C   LIG A   1      -2.721   5.591 132.314  0.00  0.00    -0.055 C 
ATOM     19  C   LIG A   1      -1.482   6.111 132.411  0.00  0.00    +0.012 C 
BRANCH  18  20
ATOM     20  C   LIG A   1      -3.804   6.412 132.833  0.00  0.00    -0.005 C 
ATOM     21  C   LIG A   1      -4.615   6.082 133.836  0.00  0.00    +0.008 C 
ENDBRANCH  18  20
ENDBRANCH  17  18
ENDBRANCH  16  17
ENDBRANCH   7  16
BRANCH  10  22
ATOM     22  O   LIG A   1      -8.928   6.261 129.808  0.00  0.00    -0.431 OA
BRANCH  22  23
ATOM     23  C   LIG A   1      -9.881   7.199 129.557  0.00  0.00    +0.306 C 
ATOM     24  C   LIG A   1     -11.069   6.941 130.438  0.00  0.00    +0.136 C 
ATOM     25  O   LIG A   1      -9.847   8.057 128.686  0.00  0.00    -0.251 OA
ENDBRANCH  22  23
ENDBRANCH  10  22
BRANCH  12  26
ATOM     26  O   LIG A   1      -5.749   3.731 128.067  0.00  0.00    -0.434 OA
BRANCH  26  27
ATOM     27  C   LIG A   1      -5.005   4.540 127.325  0.00  0.00    +0.306 C 
ATOM     28  C   LIG A   1      -4.621   4.092 125.965  0.00  0.00    +0.136 C 
ATOM     29  O   LIG A   1      -4.685   5.704 127.774  0.00  0.00    -0.251 OA
ENDBRANCH  26  27
ENDBRANCH  12  26
BRANCH   4  30
ATOM     30  O   LIG A   1      -6.513  -0.405 129.130  0.00  0.00    -0.454 OA
BRANCH  30  31
ATOM     31  C   LIG A   1      -7.339  -1.133 129.923  0.00  0.00    +0.332 C 
ATOM     32  O   LIG A   1      -7.593  -0.971 131.104  0.00  0.00    -0.246 OA
BRANCH  31  33
ATOM     33  C   LIG A   1      -8.056  -2.039 129.015  0.00  0.00    +0.091 C 
ATOM     34  C   LIG A   1      -7.776  -2.079 127.702  0.00  0.00    +0.007 C 
BRANCH  34  35
ATOM     35  C   LIG A   1      -8.311  -3.093 126.798  0.00  0.00    -0.004 C 
ATOM     36  C   LIG A   1      -8.879  -2.703 125.650  0.00  0.00    -0.027 C 
BRANCH  36  37
ATOM     37  C   LIG A   1      -9.366  -3.403 124.428  0.00  0.00    +0.027 C 
BRANCH  37  38
ATOM     38  C   LIG A   1      -8.896  -2.957 123.016  0.00  0.00    +0.004 C 
BRANCH  38  39
ATOM     39  C   LIG A   1      -8.001  -1.692 122.882  0.00  0.00    +0.000 C 
BRANCH  39  40
ATOM     40  C   LIG A   1      -6.496  -1.879 122.596  0.00  0.00    -0.003 C 
ATOM     41  C   LIG A   1      -5.723  -2.693 123.589  0.00  0.00    +0.004 C 
ENDBRANCH  39  40
ENDBRANCH  38  39
ENDBRANCH  37  38
ENDBRANCH  36  37
ENDBRANCH  34  35
ENDBRANCH  31  33
ENDBRANCH  30  31
ENDBRANCH   4  30
BRANCH  14  42
ATOM     42  O   LIG A   1      -9.666   3.156 133.373  0.00  0.00    -0.457 OA
BRANCH  42  43
ATOM     43  C   LIG A   1      -9.200   4.397 133.675  0.00  0.00    +0.304 C 
ATOM     44  C   LIG A   1      -8.165   4.320 134.749  0.00  0.00    +0.136 C 
ATOM     45  O   LIG A   1      -9.586   5.451 133.189  0.00  0.00    -0.251 OA
ENDBRANCH  42  43
ENDBRANCH  14  42
BRANCH   3  46
ATOM     46  O   LIG A   1      -8.586   1.545 128.201  0.00  0.00    -0.457 OA
BRANCH  46  47
ATOM     47  C   LIG A   1      -8.443   1.569 126.848  0.00  0.00    +0.304 C 
ATOM     48  C   LIG A   1      -9.467   0.768 126.137  0.00  0.00    +0.136 C 
ATOM     49  O   LIG A   1      -7.544   2.016 126.152  0.00  0.00    -0.251 OA
ENDBRANCH  46  47
ENDBRANCH   3  46
TORSDOF 20
ENDMDL
