MODEL 1
REMARK VINA RESULT:      -6.8      0.000      0.000
REMARK  Name = NuBBE_858
REMARK  6 active torsions:
REMARK  status: ('A' for Active; 'I' for Inactive)
REMARK    1  A    between atoms: C_1  and  C_2
REMARK    2  A    between atoms: C_2  and  C_3
REMARK    3  A    between atoms: C_3  and  S_4
REMARK    4  A    between atoms: S_4  and  C_5
REMARK    5  A    between atoms: C_13  and  O_14
REMARK    6  A    between atoms: O_14  and  C_15
REMARK                            x       y       z     vdW  Elec       q    Type
REMARK                         _______ _______ _______ _____ _____    ______ ____
ROOT
ATOM      1  C   LIG A   1     -11.357   7.625 129.552  0.00  0.00    +0.041 A 
ATOM      2  C   LIG A   1     -12.380   7.225 130.426  0.00  0.00    +0.019 A 
ATOM      3  C   LIG A   1     -12.109   6.547 131.620  0.00  0.00    +0.029 A 
ATOM      4  C   LIG A   1     -10.769   6.306 131.906  0.00  0.00    +0.068 A 
ATOM      5  C   LIG A   1      -9.717   6.717 131.094  0.00  0.00    +0.092 A 
ATOM      6  N   LIG A   1      -8.505   6.376 131.659  0.00  0.00    -0.214 NA
ATOM      7  C   LIG A   1      -8.815   5.648 132.713  0.00  0.00    +0.203 A 
ATOM      8  N   LIG A   1      -7.917   4.953 133.468  0.00  0.00    -0.221 N 
ATOM      9  C   LIG A   1      -8.244   3.668 133.868  0.00  0.00    +0.406 C 
ATOM     10  O   LIG A   1      -9.345   3.162 133.872  0.00  0.00    -0.226 OA
ATOM     11  N   LIG A   1     -10.160   5.654 132.942  0.00  0.00    -0.326 N 
ATOM     12  C   LIG A   1     -10.010   7.379 129.887  0.00  0.00    +0.047 A 
ATOM     13  H   LIG A   1      -6.951   5.172 133.399  0.00  0.00    +0.161 HD
ATOM     14  H   LIG A   1     -10.612   5.211 133.732  0.00  0.00    +0.169 HD
ENDROOT
BRANCH   1  15
ATOM     15  S   LIG A   1     -11.783   8.555 128.047  0.00  0.00    +0.054 S 
ATOM     16  O   LIG A   1     -11.768   7.554 126.928  0.00  0.00    -0.252 OA
BRANCH  15  17
ATOM     17  C   LIG A   1     -13.532   8.940 128.429  0.00  0.00    +0.108 C 
BRANCH  17  19
ATOM     18  C   LIG A   1     -13.391  10.745 130.211  0.00  0.00    +0.005 C 
ATOM     19  C   LIG A   1     -13.711  10.423 128.755  0.00  0.00    +0.010 C 
ENDBRANCH  17  19
ENDBRANCH  15  17
ENDBRANCH   1  15
BRANCH   9  20
ATOM     20  O   LIG A   1      -7.079   3.060 134.263  0.00  0.00    -0.453 OA
ATOM     21  C   LIG A   1      -6.433   2.272 133.261  0.00  0.00    +0.282 C 
ENDBRANCH   9  20
TORSDOF 4
ENDMDL
MODEL 2
REMARK VINA RESULT:      -6.5      3.134      3.766
REMARK  Name = NuBBE_858
REMARK  6 active torsions:
REMARK  status: ('A' for Active; 'I' for Inactive)
REMARK    1  A    between atoms: C_1  and  C_2
REMARK    2  A    between atoms: C_2  and  C_3
REMARK    3  A    between atoms: C_3  and  S_4
REMARK    4  A    between atoms: S_4  and  C_5
REMARK    5  A    between atoms: C_13  and  O_14
REMARK    6  A    between atoms: O_14  and  C_15
REMARK                            x       y       z     vdW  Elec       q    Type
REMARK                         _______ _______ _______ _____ _____    ______ ____
ROOT
ATOM      1  C   LIG A   1     -10.593   6.581 131.042  0.00  0.00    +0.041 A 
ATOM      2  C   LIG A   1     -10.439   5.935 132.278  0.00  0.00    +0.019 A 
ATOM      3  C   LIG A   1      -9.179   5.731 132.853  0.00  0.00    +0.029 A 
ATOM      4  C   LIG A   1      -8.087   6.218 132.143  0.00  0.00    +0.068 A 
ATOM      5  C   LIG A   1      -8.190   6.901 130.936  0.00  0.00    +0.092 A 
ATOM      6  N   LIG A   1      -6.944   7.301 130.496  0.00  0.00    -0.214 NA
ATOM      7  C   LIG A   1      -6.094   6.749 131.338  0.00  0.00    +0.203 A 
ATOM      8  N   LIG A   1      -4.740   6.736 131.177  0.00  0.00    -0.221 N 
ATOM      9  C   LIG A   1      -4.053   5.565 131.449  0.00  0.00    +0.406 C 
ATOM     10  O   LIG A   1      -4.455   4.610 132.077  0.00  0.00    -0.226 OA
ATOM     11  N   LIG A   1      -6.743   6.164 132.386  0.00  0.00    -0.326 N 
ATOM     12  C   LIG A   1      -9.462   7.079 130.362  0.00  0.00    +0.047 A 
ATOM     13  H   LIG A   1      -4.320   7.368 130.536  0.00  0.00    +0.161 HD
ATOM     14  H   LIG A   1      -6.285   5.734 133.180  0.00  0.00    +0.169 HD
ENDROOT
BRANCH   1  15
ATOM     15  S   LIG A   1     -12.268   6.863 130.386  0.00  0.00    +0.054 S 
ATOM     16  O   LIG A   1     -13.117   7.220 131.570  0.00  0.00    -0.252 OA
BRANCH  15  17
ATOM     17  C   LIG A   1     -11.954   8.398 129.439  0.00  0.00    +0.108 C 
BRANCH  17  19
ATOM     18  C   LIG A   1     -13.727   7.496 127.859  0.00  0.00    +0.005 C 
ATOM     19  C   LIG A   1     -13.133   8.733 128.525  0.00  0.00    +0.010 C 
ENDBRANCH  17  19
ENDBRANCH  15  17
ENDBRANCH   1  15
BRANCH   9  20
ATOM     20  O   LIG A   1      -2.816   5.678 130.865  0.00  0.00    -0.453 OA
ATOM     21  C   LIG A   1      -2.825   6.059 129.487  0.00  0.00    +0.282 C 
ENDBRANCH   9  20
TORSDOF 4
ENDMDL
MODEL 3
REMARK VINA RESULT:      -6.4      3.567      7.155
REMARK  Name = NuBBE_858
REMARK  6 active torsions:
REMARK  status: ('A' for Active; 'I' for Inactive)
REMARK    1  A    between atoms: C_1  and  C_2
REMARK    2  A    between atoms: C_2  and  C_3
REMARK    3  A    between atoms: C_3  and  S_4
REMARK    4  A    between atoms: S_4  and  C_5
REMARK    5  A    between atoms: C_13  and  O_14
REMARK    6  A    between atoms: O_14  and  C_15
REMARK                            x       y       z     vdW  Elec       q    Type
REMARK                         _______ _______ _______ _____ _____    ______ ____
ROOT
ATOM      1  C   LIG A   1      -7.123   6.153 132.207  0.00  0.00    +0.041 A 
ATOM      2  C   LIG A   1      -8.139   5.545 132.960  0.00  0.00    +0.019 A 
ATOM      3  C   LIG A   1      -9.489   5.669 132.614  0.00  0.00    +0.029 A 
ATOM      4  C   LIG A   1      -9.771   6.412 131.472  0.00  0.00    +0.068 A 
ATOM      5  C   LIG A   1      -8.799   6.999 130.670  0.00  0.00    +0.092 A 
ATOM      6  N   LIG A   1      -9.378   7.629 129.587  0.00  0.00    -0.214 NA
ATOM      7  C   LIG A   1     -10.675   7.552 129.804  0.00  0.00    +0.203 A 
ATOM      8  N   LIG A   1     -11.624   8.202 129.071  0.00  0.00    -0.221 N 
ATOM      9  C   LIG A   1     -12.673   8.812 129.739  0.00  0.00    +0.406 C 
ATOM     10  O   LIG A   1     -13.021   8.620 130.884  0.00  0.00    -0.226 OA
ATOM     11  N   LIG A   1     -10.953   6.758 130.877  0.00  0.00    -0.326 N 
ATOM     12  C   LIG A   1      -7.448   6.882 131.045  0.00  0.00    +0.047 A 
ATOM     13  H   LIG A   1     -11.385   8.566 128.178  0.00  0.00    +0.161 HD
ATOM     14  H   LIG A   1     -11.885   6.512 131.186  0.00  0.00    +0.169 HD
ENDROOT
BRANCH   1  15
ATOM     15  S   LIG A   1      -5.385   5.898 132.685  0.00  0.00    +0.054 S 
ATOM     16  O   LIG A   1      -5.246   4.429 132.957  0.00  0.00    -0.252 OA
BRANCH  15  17
ATOM     17  C   LIG A   1      -4.586   6.247 131.075  0.00  0.00    +0.108 C 
BRANCH  17  19
ATOM     18  C   LIG A   1      -3.998   8.420 129.899  0.00  0.00    +0.005 C 
ATOM     19  C   LIG A   1      -3.781   7.546 131.129  0.00  0.00    +0.010 C 
ENDBRANCH  17  19
ENDBRANCH  15  17
ENDBRANCH   1  15
BRANCH   9  20
ATOM     20  O   LIG A   1     -13.255   9.690 128.859  0.00  0.00    -0.453 OA
ATOM     21  C   LIG A   1     -13.654  10.942 129.422  0.00  0.00    +0.282 C 
ENDBRANCH   9  20
TORSDOF 4
ENDMDL
MODEL 4
REMARK VINA RESULT:      -6.3      8.793     11.394
REMARK  Name = NuBBE_858
REMARK  6 active torsions:
REMARK  status: ('A' for Active; 'I' for Inactive)
REMARK    1  A    between atoms: C_1  and  C_2
REMARK    2  A    between atoms: C_2  and  C_3
REMARK    3  A    between atoms: C_3  and  S_4
REMARK    4  A    between atoms: S_4  and  C_5
REMARK    5  A    between atoms: C_13  and  O_14
REMARK    6  A    between atoms: O_14  and  C_15
REMARK                            x       y       z     vdW  Elec       q    Type
REMARK                         _______ _______ _______ _____ _____    ______ ____
ROOT
ATOM      1  C   LIG A   1      -5.770   3.754 126.229  0.00  0.00    +0.041 A 
ATOM      2  C   LIG A   1      -6.697   2.716 126.046  0.00  0.00    +0.019 A 
ATOM      3  C   LIG A   1      -7.130   2.329 124.772  0.00  0.00    +0.029 A 
ATOM      4  C   LIG A   1      -6.579   3.016 123.694  0.00  0.00    +0.068 A 
ATOM      5  C   LIG A   1      -5.628   4.023 123.821  0.00  0.00    +0.092 A 
ATOM      6  N   LIG A   1      -5.238   4.482 122.579  0.00  0.00    -0.214 NA
ATOM      7  C   LIG A   1      -6.038   3.873 121.727  0.00  0.00    +0.203 A 
ATOM      8  N   LIG A   1      -6.122   4.166 120.398  0.00  0.00    -0.221 N 
ATOM      9  C   LIG A   1      -7.375   4.234 119.813  0.00  0.00    +0.406 C 
ATOM     10  O   LIG A   1      -8.415   3.800 120.260  0.00  0.00    -0.226 OA
ATOM     11  N   LIG A   1      -6.796   2.925 122.348  0.00  0.00    -0.326 N 
ATOM     12  C   LIG A   1      -5.220   4.413 125.110  0.00  0.00    +0.047 A 
ATOM     13  H   LIG A   1      -5.394   4.687 119.967  0.00  0.00    +0.161 HD
ATOM     14  H   LIG A   1      -7.435   2.298 121.875  0.00  0.00    +0.169 HD
ENDROOT
BRANCH   1  15
ATOM     15  S   LIG A   1      -5.209   4.161 127.912  0.00  0.00    +0.054 S 
ATOM     16  O   LIG A   1      -4.997   2.846 128.603  0.00  0.00    -0.252 OA
BRANCH  15  17
ATOM     17  C   LIG A   1      -3.562   4.854 127.510  0.00  0.00    +0.108 C 
BRANCH  17  19
ATOM     18  C   LIG A   1      -1.902   3.200 126.531  0.00  0.00    +0.005 C 
ATOM     19  C   LIG A   1      -2.453   3.843 127.799  0.00  0.00    +0.010 C 
ENDBRANCH  17  19
ENDBRANCH  15  17
ENDBRANCH   1  15
BRANCH   9  20
ATOM     20  O   LIG A   1      -7.229   4.897 118.620  0.00  0.00    -0.453 OA
ATOM     21  C   LIG A   1      -6.012   5.632 118.477  0.00  0.00    +0.282 C 
ENDBRANCH   9  20
TORSDOF 4
ENDMDL
MODEL 5
REMARK VINA RESULT:      -6.3      9.922     12.167
REMARK  Name = NuBBE_858
REMARK  6 active torsions:
REMARK  status: ('A' for Active; 'I' for Inactive)
REMARK    1  A    between atoms: C_1  and  C_2
REMARK    2  A    between atoms: C_2  and  C_3
REMARK    3  A    between atoms: C_3  and  S_4
REMARK    4  A    between atoms: S_4  and  C_5
REMARK    5  A    between atoms: C_13  and  O_14
REMARK    6  A    between atoms: O_14  and  C_15
REMARK                            x       y       z     vdW  Elec       q    Type
REMARK                         _______ _______ _______ _____ _____    ______ ____
ROOT
ATOM      1  C   LIG A   1      -7.958  -0.232 125.264  0.00  0.00    +0.041 A 
ATOM      2  C   LIG A   1      -6.754   0.368 125.666  0.00  0.00    +0.019 A 
ATOM      3  C   LIG A   1      -6.236   1.494 125.015  0.00  0.00    +0.029 A 
ATOM      4  C   LIG A   1      -6.987   1.999 123.958  0.00  0.00    +0.068 A 
ATOM      5  C   LIG A   1      -8.205   1.466 123.549  0.00  0.00    +0.092 A 
ATOM      6  N   LIG A   1      -8.734   2.206 122.510  0.00  0.00    -0.214 NA
ATOM      7  C   LIG A   1      -7.794   3.076 122.201  0.00  0.00    +0.203 A 
ATOM      8  N   LIG A   1      -7.822   3.893 121.109  0.00  0.00    -0.221 N 
ATOM      9  C   LIG A   1      -6.661   4.052 120.372  0.00  0.00    +0.406 C 
ATOM     10  O   LIG A   1      -5.532   3.777 120.718  0.00  0.00    -0.226 OA
ATOM     11  N   LIG A   1      -6.769   3.039 123.099  0.00  0.00    -0.326 N 
ATOM     12  C   LIG A   1      -8.700   0.322 124.201  0.00  0.00    +0.047 A 
ATOM     13  H   LIG A   1      -8.682   4.041 120.634  0.00  0.00    +0.161 HD
ATOM     14  H   LIG A   1      -5.971   3.662 123.088  0.00  0.00    +0.169 HD
ENDROOT
BRANCH   1  15
ATOM     15  S   LIG A   1      -8.598  -1.657 126.198  0.00  0.00    +0.054 S 
ATOM     16  O   LIG A   1      -9.864  -2.067 125.505  0.00  0.00    -0.252 OA
BRANCH  15  17
ATOM     17  C   LIG A   1      -7.306  -2.884 125.776  0.00  0.00    +0.108 C 
BRANCH  17  19
ATOM     18  C   LIG A   1      -5.823  -2.889 123.714  0.00  0.00    +0.005 C 
ATOM     19  C   LIG A   1      -7.228  -3.106 124.265  0.00  0.00    +0.010 C 
ENDBRANCH  17  19
ENDBRANCH  15  17
ENDBRANCH   1  15
BRANCH   9  20
ATOM     20  O   LIG A   1      -7.022   4.581 119.159  0.00  0.00    -0.453 OA
ATOM     21  C   LIG A   1      -6.093   5.513 118.599  0.00  0.00    +0.282 C 
ENDBRANCH   9  20
TORSDOF 4
ENDMDL
MODEL 6
REMARK VINA RESULT:      -6.0      3.092      3.537
REMARK  Name = NuBBE_858
REMARK  6 active torsions:
REMARK  status: ('A' for Active; 'I' for Inactive)
REMARK    1  A    between atoms: C_1  and  C_2
REMARK    2  A    between atoms: C_2  and  C_3
REMARK    3  A    between atoms: C_3  and  S_4
REMARK    4  A    between atoms: S_4  and  C_5
REMARK    5  A    between atoms: C_13  and  O_14
REMARK    6  A    between atoms: O_14  and  C_15
REMARK                            x       y       z     vdW  Elec       q    Type
REMARK                         _______ _______ _______ _____ _____    ______ ____
ROOT
ATOM      1  C   LIG A   1     -11.557   6.011 131.069  0.00  0.00    +0.041 A 
ATOM      2  C   LIG A   1     -10.744   6.249 132.187  0.00  0.00    +0.019 A 
ATOM      3  C   LIG A   1      -9.683   5.400 132.524  0.00  0.00    +0.029 A 
ATOM      4  C   LIG A   1      -9.466   4.315 131.680  0.00  0.00    +0.068 A 
ATOM      5  C   LIG A   1     -10.217   4.059 130.538  0.00  0.00    +0.092 A 
ATOM      6  N   LIG A   1      -9.738   2.943 129.882  0.00  0.00    -0.214 NA
ATOM      7  C   LIG A   1      -8.815   2.449 130.681  0.00  0.00    +0.203 A 
ATOM      8  N   LIG A   1      -8.203   1.243 130.509  0.00  0.00    -0.221 N 
ATOM      9  C   LIG A   1      -8.015   0.433 131.616  0.00  0.00    +0.406 C 
ATOM     10  O   LIG A   1      -8.074   0.760 132.781  0.00  0.00    -0.226 OA
ATOM     11  N   LIG A   1      -8.564   3.289 131.726  0.00  0.00    -0.326 N 
ATOM     12  C   LIG A   1     -11.292   4.911 130.227  0.00  0.00    +0.047 A 
ATOM     13  H   LIG A   1      -8.251   0.795 129.624  0.00  0.00    +0.161 HD
ATOM     14  H   LIG A   1      -7.850   3.137 132.429  0.00  0.00    +0.169 HD
ENDROOT
BRANCH   1  15
ATOM     15  S   LIG A   1     -12.880   7.194 130.661  0.00  0.00    +0.054 S 
ATOM     16  O   LIG A   1     -13.177   7.931 131.933  0.00  0.00    -0.252 OA
BRANCH  15  17
ATOM     17  C   LIG A   1     -11.935   8.320 129.568  0.00  0.00    +0.108 C 
BRANCH  17  19
ATOM     18  C   LIG A   1     -13.651   7.700 127.800  0.00  0.00    +0.005 C 
ATOM     19  C   LIG A   1     -12.798   8.810 128.405  0.00  0.00    +0.010 C 
ENDBRANCH  17  19
ENDBRANCH  15  17
ENDBRANCH   1  15
BRANCH   9  20
ATOM     20  O   LIG A   1      -7.748  -0.830 131.150  0.00  0.00    -0.453 OA
ATOM     21  C   LIG A   1      -7.639  -0.946 129.730  0.00  0.00    +0.282 C 
ENDBRANCH   9  20
TORSDOF 4
ENDMDL
MODEL 7
REMARK VINA RESULT:      -6.0     10.611     11.005
REMARK  Name = NuBBE_858
REMARK  6 active torsions:
REMARK  status: ('A' for Active; 'I' for Inactive)
REMARK    1  A    between atoms: C_1  and  C_2
REMARK    2  A    between atoms: C_2  and  C_3
REMARK    3  A    between atoms: C_3  and  S_4
REMARK    4  A    between atoms: S_4  and  C_5
REMARK    5  A    between atoms: C_13  and  O_14
REMARK    6  A    between atoms: O_14  and  C_15
REMARK                            x       y       z     vdW  Elec       q    Type
REMARK                         _______ _______ _______ _____ _____    ______ ____
ROOT
ATOM      1  C   LIG A   1      -7.942  -2.590 126.180  0.00  0.00    +0.041 A 
ATOM      2  C   LIG A   1      -8.852  -3.335 126.948  0.00  0.00    +0.019 A 
ATOM      3  C   LIG A   1      -8.591  -3.669 128.282  0.00  0.00    +0.029 A 
ATOM      4  C   LIG A   1      -7.390  -3.210 128.814  0.00  0.00    +0.068 A 
ATOM      5  C   LIG A   1      -6.476  -2.435 128.107  0.00  0.00    +0.092 A 
ATOM      6  N   LIG A   1      -5.406  -2.094 128.910  0.00  0.00    -0.214 NA
ATOM      7  C   LIG A   1      -5.594  -2.765 130.029  0.00  0.00    +0.203 A 
ATOM      8  N   LIG A   1      -4.682  -2.863 131.037  0.00  0.00    -0.221 N 
ATOM      9  C   LIG A   1      -4.485  -4.097 131.634  0.00  0.00    +0.406 C 
ATOM     10  O   LIG A   1      -5.213  -5.064 131.571  0.00  0.00    -0.226 OA
ATOM     11  N   LIG A   1      -6.813  -3.377 130.041  0.00  0.00    -0.326 N 
ATOM     12  C   LIG A   1      -6.745  -2.126 126.761  0.00  0.00    +0.047 A 
ATOM     13  H   LIG A   1      -3.927  -2.218 131.076  0.00  0.00    +0.161 HD
ATOM     14  H   LIG A   1      -7.189  -3.895 130.825  0.00  0.00    +0.169 HD
ENDROOT
BRANCH   1  15
ATOM     15  S   LIG A   1      -8.377  -2.143 124.470  0.00  0.00    +0.054 S 
ATOM     16  O   LIG A   1      -9.437  -1.086 124.579  0.00  0.00    -0.252 OA
BRANCH  15  17
ATOM     17  C   LIG A   1      -6.816  -1.321 123.979  0.00  0.00    +0.108 C 
BRANCH  17  19
ATOM     18  C   LIG A   1      -5.106  -3.151 123.553  0.00  0.00    +0.005 C 
ATOM     19  C   LIG A   1      -6.067  -2.144 122.930  0.00  0.00    +0.010 C 
ENDBRANCH  17  19
ENDBRANCH  15  17
ENDBRANCH   1  15
BRANCH   9  20
ATOM     20  O   LIG A   1      -3.298  -4.029 132.319  0.00  0.00    -0.453 OA
ATOM     21  C   LIG A   1      -3.306  -3.185 133.472  0.00  0.00    +0.282 C 
ENDBRANCH   9  20
TORSDOF 4
ENDMDL
MODEL 8
REMARK VINA RESULT:      -5.6      4.303      7.531
REMARK  Name = NuBBE_858
REMARK  6 active torsions:
REMARK  status: ('A' for Active; 'I' for Inactive)
REMARK    1  A    between atoms: C_1  and  C_2
REMARK    2  A    between atoms: C_2  and  C_3
REMARK    3  A    between atoms: C_3  and  S_4
REMARK    4  A    between atoms: S_4  and  C_5
REMARK    5  A    between atoms: C_13  and  O_14
REMARK    6  A    between atoms: O_14  and  C_15
REMARK                            x       y       z     vdW  Elec       q    Type
REMARK                         _______ _______ _______ _____ _____    ______ ____
ROOT
ATOM      1  C   LIG A   1      -5.905   5.099 130.051  0.00  0.00    +0.041 A 
ATOM      2  C   LIG A   1      -5.934   6.264 130.833  0.00  0.00    +0.019 A 
ATOM      3  C   LIG A   1      -7.136   6.901 131.164  0.00  0.00    +0.029 A 
ATOM      4  C   LIG A   1      -8.303   6.310 130.691  0.00  0.00    +0.068 A 
ATOM      5  C   LIG A   1      -8.329   5.134 129.947  0.00  0.00    +0.092 A 
ATOM      6  N   LIG A   1      -9.629   4.769 129.662  0.00  0.00    -0.214 NA
ATOM      7  C   LIG A   1     -10.366   5.772 130.095  0.00  0.00    +0.203 A 
ATOM      8  N   LIG A   1     -11.701   5.913 129.857  0.00  0.00    -0.221 N 
ATOM      9  C   LIG A   1     -12.183   7.163 129.509  0.00  0.00    +0.406 C 
ATOM     10  O   LIG A   1     -11.621   8.228 129.648  0.00  0.00    -0.226 OA
ATOM     11  N   LIG A   1      -9.617   6.673 130.792  0.00  0.00    -0.326 N 
ATOM     12  C   LIG A   1      -7.111   4.519 129.606  0.00  0.00    +0.047 A 
ATOM     13  H   LIG A   1     -12.228   5.126 129.556  0.00  0.00    +0.161 HD
ATOM     14  H   LIG A   1      -9.988   7.489 131.263  0.00  0.00    +0.169 HD
ENDROOT
BRANCH   1  15
ATOM     15  S   LIG A   1      -4.308   4.294 129.712  0.00  0.00    +0.054 S 
ATOM     16  O   LIG A   1      -4.600   2.825 129.622  0.00  0.00    -0.252 OA
BRANCH  15  17
ATOM     17  C   LIG A   1      -4.025   4.913 128.012  0.00  0.00    +0.108 C 
BRANCH  17  19
ATOM     18  C   LIG A   1      -2.192   3.546 126.905  0.00  0.00    +0.005 C 
ATOM     19  C   LIG A   1      -3.694   3.767 127.056  0.00  0.00    +0.010 C 
ENDBRANCH  17  19
ENDBRANCH  15  17
ENDBRANCH   1  15
BRANCH   9  20
ATOM     20  O   LIG A   1     -13.429   6.978 128.964  0.00  0.00    -0.453 OA
ATOM     21  C   LIG A   1     -13.700   7.743 127.788  0.00  0.00    +0.282 C 
ENDBRANCH   9  20
TORSDOF 4
ENDMDL
MODEL 9
REMARK VINA RESULT:      -5.5     10.784     11.219
REMARK  Name = NuBBE_858
REMARK  6 active torsions:
REMARK  status: ('A' for Active; 'I' for Inactive)
REMARK    1  A    between atoms: C_1  and  C_2
REMARK    2  A    between atoms: C_2  and  C_3
REMARK    3  A    between atoms: C_3  and  S_4
REMARK    4  A    between atoms: S_4  and  C_5
REMARK    5  A    between atoms: C_13  and  O_14
REMARK    6  A    between atoms: O_14  and  C_15
REMARK                            x       y       z     vdW  Elec       q    Type
REMARK                         _______ _______ _______ _____ _____    ______ ____
ROOT
ATOM      1  C   LIG A   1      -6.821  -2.430 127.800  0.00  0.00    +0.041 A 
ATOM      2  C   LIG A   1      -7.820  -2.909 128.662  0.00  0.00    +0.019 A 
ATOM      3  C   LIG A   1      -7.541  -3.276 129.984  0.00  0.00    +0.029 A 
ATOM      4  C   LIG A   1      -6.224  -3.125 130.405  0.00  0.00    +0.068 A 
ATOM      5  C   LIG A   1      -5.207  -2.617 129.603  0.00  0.00    +0.092 A 
ATOM      6  N   LIG A   1      -4.023  -2.543 130.309  0.00  0.00    -0.214 NA
ATOM      7  C   LIG A   1      -4.278  -3.127 131.462  0.00  0.00    +0.203 A 
ATOM      8  N   LIG A   1      -3.339  -3.435 132.401  0.00  0.00    -0.221 N 
ATOM      9  C   LIG A   1      -3.407  -4.668 133.026  0.00  0.00    +0.406 C 
ATOM     10  O   LIG A   1      -4.356  -5.422 133.054  0.00  0.00    -0.226 OA
ATOM     11  N   LIG A   1      -5.606  -3.412 131.590  0.00  0.00    -0.326 N 
ATOM     12  C   LIG A   1      -5.501  -2.272 128.271  0.00  0.00    +0.047 A 
ATOM     13  H   LIG A   1      -2.447  -2.999 132.358  0.00  0.00    +0.161 HD
ATOM     14  H   LIG A   1      -6.033  -3.807 132.419  0.00  0.00    +0.169 HD
ENDROOT
BRANCH   1  15
ATOM     15  S   LIG A   1      -7.271  -1.915 126.113  0.00  0.00    +0.054 S 
ATOM     16  O   LIG A   1      -6.168  -2.410 125.225  0.00  0.00    -0.252 OA
BRANCH  15  17
ATOM     17  C   LIG A   1      -8.724  -2.999 125.857  0.00  0.00    +0.108 C 
BRANCH  17  19
ATOM     18  C   LIG A   1      -9.391  -3.171 123.412  0.00  0.00    +0.005 C 
ATOM     19  C   LIG A   1      -8.598  -3.793 124.556  0.00  0.00    +0.010 C 
ENDBRANCH  17  19
ENDBRANCH  15  17
ENDBRANCH   1  15
BRANCH   9  20
ATOM     20  O   LIG A   1      -2.188  -4.891 133.615  0.00  0.00    -0.453 OA
ATOM     21  C   LIG A   1      -1.895  -4.063 134.742  0.00  0.00    +0.282 C 
ENDBRANCH   9  20
TORSDOF 4
ENDMDL
