MODEL 1
REMARK VINA RESULT:      -6.6      0.000      0.000
REMARK  Name = NuBBE_175
REMARK  15 active torsions:
REMARK  status: ('A' for Active; 'I' for Inactive)
REMARK    1  A    between atoms: C_3  and  C_5
REMARK    2  A    between atoms: C_8  and  C_10
REMARK    3  A    between atoms: C_10  and  C_11
REMARK    4  A    between atoms: C_11  and  C_12
REMARK    5  A    between atoms: C_12  and  C_13
REMARK    6  A    between atoms: C_13  and  C_14
REMARK    7  A    between atoms: C_14  and  C_15
REMARK    8  A    between atoms: C_15  and  C_16
REMARK    9  A    between atoms: C_16  and  C_17
REMARK   10  A    between atoms: C_17  and  C_18
REMARK   11  A    between atoms: C_18  and  C_19
REMARK   12  A    between atoms: C_19  and  C_20
REMARK   13  A    between atoms: C_20  and  C_21
REMARK   14  A    between atoms: C_21  and  C_22
REMARK   15  A    between atoms: C_22  and  C_23
REMARK                            x       y       z     vdW  Elec       q    Type
REMARK                         _______ _______ _______ _____ _____    ______ ____
ROOT
ATOM      1  C   LIG A   1      -8.902  -3.562 127.102  0.00  0.00    +0.000 C 
ENDROOT
BRANCH   1   2
ATOM      2  C   LIG A   1      -7.718  -2.943 128.096  0.00  0.00    +0.002 C 
BRANCH   2   3
ATOM      3  C   LIG A   1      -7.927  -2.658 129.619  0.00  0.00    +0.019 C 
BRANCH   3  10
ATOM      4  O   LIG A   1      -3.186  -4.029 132.154  0.00  0.00    -0.296 OA
ATOM      5  C   LIG A   1      -4.321  -3.740 131.799  0.00  0.00    +0.150 C 
ATOM      6  C   LIG A   1      -4.894  -2.321 131.935  0.00  0.00    +0.117 C 
ATOM      7  C   LIG A   1      -3.769  -1.346 131.603  0.00  0.00    +0.032 C 
ATOM      8  N   LIG A   1      -6.023  -2.000 131.048  0.00  0.00    -0.304 NA
ATOM      9  H   LIG A   1      -6.401  -1.070 131.197  0.00  0.00    +0.123 HD
ATOM     10  C   LIG A   1      -7.030  -3.017 130.831  0.00  0.00    +0.055 C 
ATOM     11  C   LIG A   1      -6.193  -4.238 130.346  0.00  0.00    +0.026 C 
ATOM     12  C   LIG A   1      -5.272  -4.826 131.394  0.00  0.00    +0.077 C 
ENDBRANCH   3  10
ENDBRANCH   2   3
ENDBRANCH   1   2
BRANCH   1  13
ATOM     13  C   LIG A   1      -9.599  -2.909 125.601  0.00  0.00    -0.000 C 
BRANCH  13  14
ATOM     14  C   LIG A   1      -9.202  -3.236 123.867  0.00  0.00    -0.000 C 
BRANCH  14  15
ATOM     15  C   LIG A   1      -8.726  -2.156 122.884  0.00  0.00    -0.000 C 
BRANCH  15  16
ATOM     16  C   LIG A   1      -7.175  -2.050 122.980  0.00  0.00    -0.000 C 
BRANCH  16  17
ATOM     17  C   LIG A   1      -6.765  -0.703 123.570  0.00  0.00    -0.000 C 
BRANCH  17  18
ATOM     18  C   LIG A   1      -6.510  -0.624 125.108  0.00  0.00    +0.000 C 
BRANCH  18  19
ATOM     19  C   LIG A   1      -7.142   0.526 125.967  0.00  0.00    +0.000 C 
BRANCH  19  20
ATOM     20  C   LIG A   1      -8.680   0.505 126.412  0.00  0.00    +0.007 C 
BRANCH  20  21
ATOM     21  C   LIG A   1      -9.760   0.800 125.392  0.00  0.00    +0.074 C 
BRANCH  21  22
ATOM     22  C   LIG A   1      -9.817   1.319 123.878  0.00  0.00    +0.130 C 
ATOM     23  C   LIG A   1      -8.790   2.514 123.054  0.00  0.00    +0.086 C 
ATOM     24  O   LIG A   1     -10.869   0.700 123.180  0.00  0.00    -0.298 OA
ENDBRANCH  21  22
ENDBRANCH  20  21
ENDBRANCH  19  20
ENDBRANCH  18  19
ENDBRANCH  17  18
ENDBRANCH  16  17
ENDBRANCH  15  16
ENDBRANCH  14  15
ENDBRANCH  13  14
ENDBRANCH   1  13
TORSDOF 13
ENDMDL
MODEL 2
REMARK VINA RESULT:      -6.4      5.617      8.615
REMARK  Name = NuBBE_175
REMARK  15 active torsions:
REMARK  status: ('A' for Active; 'I' for Inactive)
REMARK    1  A    between atoms: C_3  and  C_5
REMARK    2  A    between atoms: C_8  and  C_10
REMARK    3  A    between atoms: C_10  and  C_11
REMARK    4  A    between atoms: C_11  and  C_12
REMARK    5  A    between atoms: C_12  and  C_13
REMARK    6  A    between atoms: C_13  and  C_14
REMARK    7  A    between atoms: C_14  and  C_15
REMARK    8  A    between atoms: C_15  and  C_16
REMARK    9  A    between atoms: C_16  and  C_17
REMARK   10  A    between atoms: C_17  and  C_18
REMARK   11  A    between atoms: C_18  and  C_19
REMARK   12  A    between atoms: C_19  and  C_20
REMARK   13  A    between atoms: C_20  and  C_21
REMARK   14  A    between atoms: C_21  and  C_22
REMARK   15  A    between atoms: C_22  and  C_23
REMARK                            x       y       z     vdW  Elec       q    Type
REMARK                         _______ _______ _______ _____ _____    ______ ____
ROOT
ATOM      1  C   LIG A   1      -8.968   2.546 129.554  0.00  0.00    +0.000 C 
ENDROOT
BRANCH   1   2
ATOM      2  C   LIG A   1      -9.206   4.052 130.222  0.00  0.00    +0.002 C 
BRANCH   2   3
ATOM      3  C   LIG A   1     -10.583   4.547 130.776  0.00  0.00    +0.019 C 
BRANCH   3  10
ATOM      4  O   LIG A   1     -12.712   9.507 129.493  0.00  0.00    -0.296 OA
ATOM      5  C   LIG A   1     -12.423   8.331 129.673  0.00  0.00    +0.150 C 
ATOM      6  C   LIG A   1     -11.745   7.473 128.593  0.00  0.00    +0.117 C 
ATOM      7  C   LIG A   1     -10.730   8.361 127.881  0.00  0.00    +0.032 C 
ATOM      8  N   LIG A   1     -11.021   6.289 129.080  0.00  0.00    -0.304 NA
ATOM      9  H   LIG A   1     -10.623   5.724 128.336  0.00  0.00    +0.123 HD
ATOM     10  C   LIG A   1     -11.617   5.516 130.150  0.00  0.00    +0.055 C 
ATOM     11  C   LIG A   1     -11.863   6.586 131.256  0.00  0.00    +0.026 C 
ATOM     12  C   LIG A   1     -12.906   7.626 130.904  0.00  0.00    +0.077 C 
ENDBRANCH   3  10
ENDBRANCH   2   3
ENDBRANCH   1   2
BRANCH   1  13
ATOM     13  C   LIG A   1      -7.680   1.957 128.477  0.00  0.00    -0.000 C 
BRANCH  13  14
ATOM     14  C   LIG A   1      -7.757   1.217 126.828  0.00  0.00    -0.000 C 
BRANCH  14  15
ATOM     15  C   LIG A   1      -8.563  -0.049 126.500  0.00  0.00    -0.000 C 
BRANCH  15  16
ATOM     16  C   LIG A   1      -7.630  -1.286 126.668  0.00  0.00    -0.000 C 
BRANCH  16  17
ATOM     17  C   LIG A   1      -8.452  -2.551 126.899  0.00  0.00    -0.000 C 
BRANCH  17  18
ATOM     18  C   LIG A   1      -9.446  -2.993 125.779  0.00  0.00    +0.000 C 
BRANCH  18  19
ATOM     19  C   LIG A   1      -8.926  -3.362 124.346  0.00  0.00    +0.000 C 
BRANCH  19  20
ATOM     20  C   LIG A   1      -9.300  -2.491 123.056  0.00  0.00    +0.007 C 
BRANCH  20  21
ATOM     21  C   LIG A   1      -8.904  -1.031 122.996  0.00  0.00    +0.074 C 
BRANCH  21  22
ATOM     22  C   LIG A   1      -9.664   0.378 122.956  0.00  0.00    +0.130 C 
ATOM     23  C   LIG A   1      -9.060   2.001 123.359  0.00  0.00    +0.086 C 
ATOM     24  O   LIG A   1     -11.000   0.210 122.547  0.00  0.00    -0.298 OA
ENDBRANCH  21  22
ENDBRANCH  20  21
ENDBRANCH  19  20
ENDBRANCH  18  19
ENDBRANCH  17  18
ENDBRANCH  16  17
ENDBRANCH  15  16
ENDBRANCH  14  15
ENDBRANCH  13  14
ENDBRANCH   1  13
TORSDOF 13
ENDMDL
MODEL 3
REMARK VINA RESULT:      -6.2      3.679      6.887
REMARK  Name = NuBBE_175
REMARK  15 active torsions:
REMARK  status: ('A' for Active; 'I' for Inactive)
REMARK    1  A    between atoms: C_3  and  C_5
REMARK    2  A    between atoms: C_8  and  C_10
REMARK    3  A    between atoms: C_10  and  C_11
REMARK    4  A    between atoms: C_11  and  C_12
REMARK    5  A    between atoms: C_12  and  C_13
REMARK    6  A    between atoms: C_13  and  C_14
REMARK    7  A    between atoms: C_14  and  C_15
REMARK    8  A    between atoms: C_15  and  C_16
REMARK    9  A    between atoms: C_16  and  C_17
REMARK   10  A    between atoms: C_17  and  C_18
REMARK   11  A    between atoms: C_18  and  C_19
REMARK   12  A    between atoms: C_19  and  C_20
REMARK   13  A    between atoms: C_20  and  C_21
REMARK   14  A    between atoms: C_21  and  C_22
REMARK   15  A    between atoms: C_22  and  C_23
REMARK                            x       y       z     vdW  Elec       q    Type
REMARK                         _______ _______ _______ _____ _____    ______ ____
ROOT
ATOM      1  C   LIG A   1      -6.433  -0.138 128.042  0.00  0.00    +0.000 C 
ENDROOT
BRANCH   1   2
ATOM      2  C   LIG A   1      -7.853   0.702 127.813  0.00  0.00    +0.002 C 
BRANCH   2   3
ATOM      3  C   LIG A   1      -7.921   2.251 127.616  0.00  0.00    +0.019 C 
BRANCH   3  10
ATOM      4  O   LIG A   1      -6.462   3.132 122.336  0.00  0.00    -0.296 OA
ATOM      5  C   LIG A   1      -6.817   3.159 123.506  0.00  0.00    +0.150 C 
ATOM      6  C   LIG A   1      -8.297   3.193 123.921  0.00  0.00    +0.117 C 
ATOM      7  C   LIG A   1      -9.056   2.281 122.962  0.00  0.00    +0.032 C 
ATOM      8  N   LIG A   1      -8.589   2.726 125.285  0.00  0.00    -0.304 NA
ATOM      9  H   LIG A   1      -9.569   2.803 125.537  0.00  0.00    +0.123 HD
ATOM     10  C   LIG A   1      -7.678   3.105 126.345  0.00  0.00    +0.055 C 
ATOM     11  C   LIG A   1      -6.299   2.616 125.810  0.00  0.00    +0.026 C 
ATOM     12  C   LIG A   1      -5.800   3.360 124.588  0.00  0.00    +0.077 C 
ENDBRANCH   3  10
ENDBRANCH   2   3
ENDBRANCH   1   2
BRANCH   1  13
ATOM     13  C   LIG A   1      -5.688  -1.424 127.064  0.00  0.00    -0.000 C 
BRANCH  13  14
ATOM     14  C   LIG A   1      -5.511  -1.602 125.273  0.00  0.00    -0.000 C 
BRANCH  14  15
ATOM     15  C   LIG A   1      -5.303  -2.950 124.567  0.00  0.00    -0.000 C 
BRANCH  15  16
ATOM     16  C   LIG A   1      -5.359  -2.715 123.027  0.00  0.00    -0.000 C 
BRANCH  16  17
ATOM     17  C   LIG A   1      -6.404  -1.656 122.684  0.00  0.00    -0.000 C 
BRANCH  17  18
ATOM     18  C   LIG A   1      -7.862  -2.133 122.393  0.00  0.00    +0.000 C 
BRANCH  18  19
ATOM     19  C   LIG A   1      -9.081  -1.474 123.126  0.00  0.00    +0.000 C 
BRANCH  19  20
ATOM     20  C   LIG A   1      -8.984  -0.957 124.639  0.00  0.00    +0.007 C 
BRANCH  20  21
ATOM     21  C   LIG A   1      -9.365  -1.885 125.774  0.00  0.00    +0.074 C 
BRANCH  21  22
ATOM     22  C   LIG A   1      -8.819  -3.263 126.380  0.00  0.00    +0.130 C 
ATOM     23  C   LIG A   1      -8.717  -3.790 128.075  0.00  0.00    +0.086 C 
ATOM     24  O   LIG A   1      -8.362  -4.110 125.354  0.00  0.00    -0.298 OA
ENDBRANCH  21  22
ENDBRANCH  20  21
ENDBRANCH  19  20
ENDBRANCH  18  19
ENDBRANCH  17  18
ENDBRANCH  16  17
ENDBRANCH  15  16
ENDBRANCH  14  15
ENDBRANCH  13  14
ENDBRANCH   1  13
TORSDOF 13
ENDMDL
MODEL 4
REMARK VINA RESULT:      -6.2      5.725      8.830
REMARK  Name = NuBBE_175
REMARK  15 active torsions:
REMARK  status: ('A' for Active; 'I' for Inactive)
REMARK    1  A    between atoms: C_3  and  C_5
REMARK    2  A    between atoms: C_8  and  C_10
REMARK    3  A    between atoms: C_10  and  C_11
REMARK    4  A    between atoms: C_11  and  C_12
REMARK    5  A    between atoms: C_12  and  C_13
REMARK    6  A    between atoms: C_13  and  C_14
REMARK    7  A    between atoms: C_14  and  C_15
REMARK    8  A    between atoms: C_15  and  C_16
REMARK    9  A    between atoms: C_16  and  C_17
REMARK   10  A    between atoms: C_17  and  C_18
REMARK   11  A    between atoms: C_18  and  C_19
REMARK   12  A    between atoms: C_19  and  C_20
REMARK   13  A    between atoms: C_20  and  C_21
REMARK   14  A    between atoms: C_21  and  C_22
REMARK   15  A    between atoms: C_22  and  C_23
REMARK                            x       y       z     vdW  Elec       q    Type
REMARK                         _______ _______ _______ _____ _____    ______ ____
ROOT
ATOM      1  C   LIG A   1      -8.632   2.562 129.690  0.00  0.00    +0.000 C 
ENDROOT
BRANCH   1   2
ATOM      2  C   LIG A   1     -10.086   3.050 130.340  0.00  0.00    +0.002 C 
BRANCH   2   3
ATOM      3  C   LIG A   1     -10.409   4.531 130.725  0.00  0.00    +0.019 C 
BRANCH   3  10
ATOM      4  O   LIG A   1     -12.751   9.453 129.688  0.00  0.00    -0.296 OA
ATOM      5  C   LIG A   1     -12.419   8.283 129.822  0.00  0.00    +0.150 C 
ATOM      6  C   LIG A   1     -11.783   7.468 128.684  0.00  0.00    +0.117 C 
ATOM      7  C   LIG A   1     -10.838   8.401 127.935  0.00  0.00    +0.032 C 
ATOM      8  N   LIG A   1     -10.998   6.296 129.100  0.00  0.00    -0.304 NA
ATOM      9  H   LIG A   1     -10.630   5.760 128.320  0.00  0.00    +0.123 HD
ATOM     10  C   LIG A   1     -11.506   5.483 130.184  0.00  0.00    +0.055 C 
ATOM     11  C   LIG A   1     -11.716   6.520 131.328  0.00  0.00    +0.026 C 
ATOM     12  C   LIG A   1     -12.807   7.536 131.063  0.00  0.00    +0.077 C 
ENDBRANCH   3  10
ENDBRANCH   2   3
ENDBRANCH   1   2
BRANCH   1  13
ATOM     13  C   LIG A   1      -8.217   1.091 128.779  0.00  0.00    -0.000 C 
BRANCH  13  14
ATOM     14  C   LIG A   1      -7.914   0.834 127.014  0.00  0.00    -0.000 C 
BRANCH  14  15
ATOM     15  C   LIG A   1      -8.662   1.587 125.903  0.00  0.00    -0.000 C 
BRANCH  15  16
ATOM     16  C   LIG A   1      -9.639   0.593 125.205  0.00  0.00    -0.000 C 
BRANCH  16  17
ATOM     17  C   LIG A   1      -9.206   0.340 123.763  0.00  0.00    -0.000 C 
BRANCH  17  18
ATOM     18  C   LIG A   1      -8.019  -0.643 123.516  0.00  0.00    +0.000 C 
BRANCH  18  19
ATOM     19  C   LIG A   1      -8.284  -2.124 123.075  0.00  0.00    +0.000 C 
BRANCH  19  20
ATOM     20  C   LIG A   1      -9.267  -3.090 123.891  0.00  0.00    +0.007 C 
BRANCH  20  21
ATOM     21  C   LIG A   1      -9.375  -2.953 125.395  0.00  0.00    +0.074 C 
BRANCH  21  22
ATOM     22  C   LIG A   1      -8.391  -3.111 126.649  0.00  0.00    +0.130 C 
ATOM     23  C   LIG A   1      -8.723  -3.759 128.271  0.00  0.00    +0.086 C 
ATOM     24  O   LIG A   1      -7.107  -2.628 126.336  0.00  0.00    -0.298 OA
ENDBRANCH  21  22
ENDBRANCH  20  21
ENDBRANCH  19  20
ENDBRANCH  18  19
ENDBRANCH  17  18
ENDBRANCH  16  17
ENDBRANCH  15  16
ENDBRANCH  14  15
ENDBRANCH  13  14
ENDBRANCH   1  13
TORSDOF 13
ENDMDL
MODEL 5
REMARK VINA RESULT:      -6.1      3.334      5.911
REMARK  Name = NuBBE_175
REMARK  15 active torsions:
REMARK  status: ('A' for Active; 'I' for Inactive)
REMARK    1  A    between atoms: C_3  and  C_5
REMARK    2  A    between atoms: C_8  and  C_10
REMARK    3  A    between atoms: C_10  and  C_11
REMARK    4  A    between atoms: C_11  and  C_12
REMARK    5  A    between atoms: C_12  and  C_13
REMARK    6  A    between atoms: C_13  and  C_14
REMARK    7  A    between atoms: C_14  and  C_15
REMARK    8  A    between atoms: C_15  and  C_16
REMARK    9  A    between atoms: C_16  and  C_17
REMARK   10  A    between atoms: C_17  and  C_18
REMARK   11  A    between atoms: C_18  and  C_19
REMARK   12  A    between atoms: C_19  and  C_20
REMARK   13  A    between atoms: C_20  and  C_21
REMARK   14  A    between atoms: C_21  and  C_22
REMARK   15  A    between atoms: C_22  and  C_23
REMARK                            x       y       z     vdW  Elec       q    Type
REMARK                         _______ _______ _______ _____ _____    ______ ____
ROOT
ATOM      1  C   LIG A   1      -7.186  -1.770 129.264  0.00  0.00    +0.000 C 
ENDROOT
BRANCH   1   2
ATOM      2  C   LIG A   1      -7.936  -3.200 128.860  0.00  0.00    +0.002 C 
BRANCH   2   3
ATOM      3  C   LIG A   1      -8.821  -3.385 127.584  0.00  0.00    +0.019 C 
BRANCH   3  10
ATOM      4  O   LIG A   1      -7.690  -1.990 122.334  0.00  0.00    -0.296 OA
ATOM      5  C   LIG A   1      -7.896  -2.506 123.424  0.00  0.00    +0.150 C 
ATOM      6  C   LIG A   1      -6.761  -2.870 124.394  0.00  0.00    +0.117 C 
ATOM      7  C   LIG A   1      -5.723  -1.756 124.313  0.00  0.00    +0.032 C 
ATOM      8  N   LIG A   1      -7.147  -3.002 125.808  0.00  0.00    -0.304 NA
ATOM      9  H   LIG A   1      -6.381  -3.285 126.411  0.00  0.00    +0.123 HD
ATOM     10  C   LIG A   1      -8.405  -3.649 126.114  0.00  0.00    +0.055 C 
ATOM     11  C   LIG A   1      -9.430  -2.834 125.270  0.00  0.00    +0.026 C 
ATOM     12  C   LIG A   1      -9.273  -2.987 123.772  0.00  0.00    +0.077 C 
ENDBRANCH   3  10
ENDBRANCH   2   3
ENDBRANCH   1   2
BRANCH   1  13
ATOM     13  C   LIG A   1      -7.764  -0.092 129.136  0.00  0.00    -0.000 C 
BRANCH  13  14
ATOM     14  C   LIG A   1      -8.126   0.930 127.688  0.00  0.00    -0.000 C 
BRANCH  14  15
ATOM     15  C   LIG A   1      -7.923   0.459 126.240  0.00  0.00    -0.000 C 
BRANCH  15  16
ATOM     16  C   LIG A   1      -9.199   0.820 125.421  0.00  0.00    -0.000 C 
BRANCH  16  17
ATOM     17  C   LIG A   1      -8.827   1.205 123.991  0.00  0.00    -0.000 C 
BRANCH  17  18
ATOM     18  C   LIG A   1      -7.325   1.496 123.678  0.00  0.00    +0.000 C 
BRANCH  18  19
ATOM     19  C   LIG A   1      -6.924   2.520 122.560  0.00  0.00    +0.000 C 
BRANCH  19  20
ATOM     20  C   LIG A   1      -5.943   3.752 122.849  0.00  0.00    +0.007 C 
BRANCH  20  21
ATOM     21  C   LIG A   1      -5.934   4.398 124.219  0.00  0.00    +0.074 C 
BRANCH  21  22
ATOM     22  C   LIG A   1      -5.555   3.952 125.709  0.00  0.00    +0.130 C 
ATOM     23  C   LIG A   1      -4.741   2.476 126.276  0.00  0.00    +0.086 C 
ATOM     24  O   LIG A   1      -5.978   4.919 126.639  0.00  0.00    -0.298 OA
ENDBRANCH  21  22
ENDBRANCH  20  21
ENDBRANCH  19  20
ENDBRANCH  18  19
ENDBRANCH  17  18
ENDBRANCH  16  17
ENDBRANCH  15  16
ENDBRANCH  14  15
ENDBRANCH  13  14
ENDBRANCH   1  13
TORSDOF 13
ENDMDL
MODEL 6
REMARK VINA RESULT:      -6.1      5.771      9.151
REMARK  Name = NuBBE_175
REMARK  15 active torsions:
REMARK  status: ('A' for Active; 'I' for Inactive)
REMARK    1  A    between atoms: C_3  and  C_5
REMARK    2  A    between atoms: C_8  and  C_10
REMARK    3  A    between atoms: C_10  and  C_11
REMARK    4  A    between atoms: C_11  and  C_12
REMARK    5  A    between atoms: C_12  and  C_13
REMARK    6  A    between atoms: C_13  and  C_14
REMARK    7  A    between atoms: C_14  and  C_15
REMARK    8  A    between atoms: C_15  and  C_16
REMARK    9  A    between atoms: C_16  and  C_17
REMARK   10  A    between atoms: C_17  and  C_18
REMARK   11  A    between atoms: C_18  and  C_19
REMARK   12  A    between atoms: C_19  and  C_20
REMARK   13  A    between atoms: C_20  and  C_21
REMARK   14  A    between atoms: C_21  and  C_22
REMARK   15  A    between atoms: C_22  and  C_23
REMARK                            x       y       z     vdW  Elec       q    Type
REMARK                         _______ _______ _______ _____ _____    ______ ____
ROOT
ATOM      1  C   LIG A   1      -9.095   2.164 131.378  0.00  0.00    +0.000 C 
ENDROOT
BRANCH   1   2
ATOM      2  C   LIG A   1     -10.252   3.055 130.577  0.00  0.00    +0.002 C 
BRANCH   2   3
ATOM      3  C   LIG A   1     -10.478   4.586 130.803  0.00  0.00    +0.019 C 
BRANCH   3  10
ATOM      4  O   LIG A   1     -12.730   9.508 129.587  0.00  0.00    -0.296 OA
ATOM      5  C   LIG A   1     -12.412   8.338 129.751  0.00  0.00    +0.150 C 
ATOM      6  C   LIG A   1     -11.712   7.512 128.660  0.00  0.00    +0.117 C 
ATOM      7  C   LIG A   1     -10.719   8.434 127.961  0.00  0.00    +0.032 C 
ATOM      8  N   LIG A   1     -10.959   6.339 129.132  0.00  0.00    -0.304 NA
ATOM      9  H   LIG A   1     -10.547   5.795 128.380  0.00  0.00    +0.123 HD
ATOM     10  C   LIG A   1     -11.536   5.538 130.190  0.00  0.00    +0.055 C 
ATOM     11  C   LIG A   1     -11.809   6.585 131.310  0.00  0.00    +0.026 C 
ATOM     12  C   LIG A   1     -12.877   7.604 130.972  0.00  0.00    +0.077 C 
ENDBRANCH   3  10
ENDBRANCH   2   3
ENDBRANCH   1   2
BRANCH   1  13
ATOM     13  C   LIG A   1      -8.963   0.407 131.622  0.00  0.00    -0.000 C 
BRANCH  13  14
ATOM     14  C   LIG A   1      -7.537  -0.631 132.022  0.00  0.00    -0.000 C 
BRANCH  14  15
ATOM     15  C   LIG A   1      -6.691  -1.360 130.967  0.00  0.00    -0.000 C 
BRANCH  15  16
ATOM     16  C   LIG A   1      -6.836  -2.895 131.193  0.00  0.00    -0.000 C 
BRANCH  16  17
ATOM     17  C   LIG A   1      -7.147  -3.604 129.876  0.00  0.00    -0.000 C 
BRANCH  17  18
ATOM     18  C   LIG A   1      -8.462  -3.218 129.129  0.00  0.00    +0.000 C 
BRANCH  18  19
ATOM     19  C   LIG A   1      -8.852  -3.919 127.781  0.00  0.00    +0.000 C 
BRANCH  19  20
ATOM     20  C   LIG A   1      -8.879  -3.126 126.390  0.00  0.00    +0.007 C 
BRANCH  20  21
ATOM     21  C   LIG A   1      -8.550  -1.648 126.362  0.00  0.00    +0.074 C 
BRANCH  21  22
ATOM     22  C   LIG A   1      -8.804  -0.421 125.365  0.00  0.00    +0.130 C 
ATOM     23  C   LIG A   1      -7.706   0.313 124.173  0.00  0.00    +0.086 C 
ATOM     24  O   LIG A   1     -10.100   0.098 125.536  0.00  0.00    -0.298 OA
ENDBRANCH  21  22
ENDBRANCH  20  21
ENDBRANCH  19  20
ENDBRANCH  18  19
ENDBRANCH  17  18
ENDBRANCH  16  17
ENDBRANCH  15  16
ENDBRANCH  14  15
ENDBRANCH  13  14
ENDBRANCH   1  13
TORSDOF 13
ENDMDL
MODEL 7
REMARK VINA RESULT:      -6.1      1.416      1.987
REMARK  Name = NuBBE_175
REMARK  15 active torsions:
REMARK  status: ('A' for Active; 'I' for Inactive)
REMARK    1  A    between atoms: C_3  and  C_5
REMARK    2  A    between atoms: C_8  and  C_10
REMARK    3  A    between atoms: C_10  and  C_11
REMARK    4  A    between atoms: C_11  and  C_12
REMARK    5  A    between atoms: C_12  and  C_13
REMARK    6  A    between atoms: C_13  and  C_14
REMARK    7  A    between atoms: C_14  and  C_15
REMARK    8  A    between atoms: C_15  and  C_16
REMARK    9  A    between atoms: C_16  and  C_17
REMARK   10  A    between atoms: C_17  and  C_18
REMARK   11  A    between atoms: C_18  and  C_19
REMARK   12  A    between atoms: C_19  and  C_20
REMARK   13  A    between atoms: C_20  and  C_21
REMARK   14  A    between atoms: C_21  and  C_22
REMARK   15  A    between atoms: C_22  and  C_23
REMARK                            x       y       z     vdW  Elec       q    Type
REMARK                         _______ _______ _______ _____ _____    ______ ____
ROOT
ATOM      1  C   LIG A   1      -9.148  -3.179 126.630  0.00  0.00    +0.000 C 
ENDROOT
BRANCH   1   2
ATOM      2  C   LIG A   1      -8.663  -3.761 128.113  0.00  0.00    +0.002 C 
BRANCH   2   3
ATOM      3  C   LIG A   1      -8.252  -2.844 129.311  0.00  0.00    +0.019 C 
BRANCH   3  10
ATOM      4  O   LIG A   1      -3.320  -3.684 131.710  0.00  0.00    -0.296 OA
ATOM      5  C   LIG A   1      -4.490  -3.530 131.386  0.00  0.00    +0.150 C 
ATOM      6  C   LIG A   1      -5.232  -2.198 131.578  0.00  0.00    +0.117 C 
ATOM      7  C   LIG A   1      -4.245  -1.080 131.255  0.00  0.00    +0.032 C 
ATOM      8  N   LIG A   1      -6.412  -1.995 130.724  0.00  0.00    -0.304 NA
ATOM      9  H   LIG A   1      -6.900  -1.124 130.909  0.00  0.00    +0.123 HD
ATOM     10  C   LIG A   1      -7.290  -3.123 130.494  0.00  0.00    +0.055 C 
ATOM     11  C   LIG A   1      -6.319  -4.215 129.954  0.00  0.00    +0.026 C 
ATOM     12  C   LIG A   1      -5.308  -4.713 130.965  0.00  0.00    +0.077 C 
ENDBRANCH   3  10
ENDBRANCH   2   3
ENDBRANCH   1   2
BRANCH   1  13
ATOM     13  C   LIG A   1      -8.618  -3.624 124.991  0.00  0.00    -0.000 C 
BRANCH  13  14
ATOM     14  C   LIG A   1      -7.539  -2.766 123.819  0.00  0.00    -0.000 C 
BRANCH  14  15
ATOM     15  C   LIG A   1      -6.007  -2.873 123.837  0.00  0.00    -0.000 C 
BRANCH  15  16
ATOM     16  C   LIG A   1      -5.451  -1.824 124.847  0.00  0.00    -0.000 C 
BRANCH  16  17
ATOM     17  C   LIG A   1      -5.597  -2.329 126.281  0.00  0.00    -0.000 C 
BRANCH  17  18
ATOM     18  C   LIG A   1      -5.346  -1.317 127.443  0.00  0.00    +0.000 C 
BRANCH  18  19
ATOM     19  C   LIG A   1      -6.244  -0.042 127.601  0.00  0.00    +0.000 C 
BRANCH  19  20
ATOM     20  C   LIG A   1      -5.950   1.310 126.795  0.00  0.00    +0.007 C 
BRANCH  20  21
ATOM     21  C   LIG A   1      -6.631   1.553 125.464  0.00  0.00    +0.074 C 
BRANCH  21  22
ATOM     22  C   LIG A   1      -7.886   0.946 124.675  0.00  0.00    +0.130 C 
ATOM     23  C   LIG A   1      -9.428   0.326 125.308  0.00  0.00    +0.086 C 
ATOM     24  O   LIG A   1      -7.638   0.925 123.290  0.00  0.00    -0.298 OA
ENDBRANCH  21  22
ENDBRANCH  20  21
ENDBRANCH  19  20
ENDBRANCH  18  19
ENDBRANCH  17  18
ENDBRANCH  16  17
ENDBRANCH  15  16
ENDBRANCH  14  15
ENDBRANCH  13  14
ENDBRANCH   1  13
TORSDOF 13
ENDMDL
MODEL 8
REMARK VINA RESULT:      -6.1      1.644      2.143
REMARK  Name = NuBBE_175
REMARK  15 active torsions:
REMARK  status: ('A' for Active; 'I' for Inactive)
REMARK    1  A    between atoms: C_3  and  C_5
REMARK    2  A    between atoms: C_8  and  C_10
REMARK    3  A    between atoms: C_10  and  C_11
REMARK    4  A    between atoms: C_11  and  C_12
REMARK    5  A    between atoms: C_12  and  C_13
REMARK    6  A    between atoms: C_13  and  C_14
REMARK    7  A    between atoms: C_14  and  C_15
REMARK    8  A    between atoms: C_15  and  C_16
REMARK    9  A    between atoms: C_16  and  C_17
REMARK   10  A    between atoms: C_17  and  C_18
REMARK   11  A    between atoms: C_18  and  C_19
REMARK   12  A    between atoms: C_19  and  C_20
REMARK   13  A    between atoms: C_20  and  C_21
REMARK   14  A    between atoms: C_21  and  C_22
REMARK   15  A    between atoms: C_22  and  C_23
REMARK                            x       y       z     vdW  Elec       q    Type
REMARK                         _______ _______ _______ _____ _____    ______ ____
ROOT
ATOM      1  C   LIG A   1      -9.468  -2.759 125.740  0.00  0.00    +0.000 C 
ENDROOT
BRANCH   1   2
ATOM      2  C   LIG A   1      -8.762  -3.632 126.970  0.00  0.00    +0.002 C 
BRANCH   2   3
ATOM      3  C   LIG A   1      -8.215  -2.988 128.286  0.00  0.00    +0.019 C 
BRANCH   3  10
ATOM      4  O   LIG A   1      -4.264  -2.776 132.176  0.00  0.00    -0.296 OA
ATOM      5  C   LIG A   1      -5.135  -3.042 131.358  0.00  0.00    +0.150 C 
ATOM      6  C   LIG A   1      -6.606  -3.245 131.754  0.00  0.00    +0.117 C 
ATOM      7  C   LIG A   1      -6.928  -2.220 132.836  0.00  0.00    +0.032 C 
ATOM      8  N   LIG A   1      -7.589  -3.061 130.674  0.00  0.00    -0.304 NA
ATOM      9  H   LIG A   1      -8.544  -3.244 130.963  0.00  0.00    +0.123 HD
ATOM     10  C   LIG A   1      -7.263  -3.573 129.360  0.00  0.00    +0.055 C 
ATOM     11  C   LIG A   1      -5.886  -2.907 129.059  0.00  0.00    +0.026 C 
ATOM     12  C   LIG A   1      -4.753  -3.378 129.948  0.00  0.00    +0.077 C 
ENDBRANCH   3  10
ENDBRANCH   2   3
ENDBRANCH   1   2
BRANCH   1  13
ATOM     13  C   LIG A   1      -9.375  -2.977 123.977  0.00  0.00    -0.000 C 
BRANCH  13  14
ATOM     14  C   LIG A   1      -8.149  -2.409 122.774  0.00  0.00    -0.000 C 
BRANCH  14  15
ATOM     15  C   LIG A   1      -6.700  -2.054 123.138  0.00  0.00    -0.000 C 
BRANCH  15  16
ATOM     16  C   LIG A   1      -6.122  -3.193 124.032  0.00  0.00    -0.000 C 
BRANCH  16  17
ATOM     17  C   LIG A   1      -5.541  -2.619 125.322  0.00  0.00    -0.000 C 
BRANCH  17  18
ATOM     18  C   LIG A   1      -5.525  -1.068 125.492  0.00  0.00    +0.000 C 
BRANCH  18  19
ATOM     19  C   LIG A   1      -6.656  -0.339 126.297  0.00  0.00    +0.000 C 
BRANCH  19  20
ATOM     20  C   LIG A   1      -7.742   0.595 125.579  0.00  0.00    +0.007 C 
BRANCH  20  21
ATOM     21  C   LIG A   1      -7.380   1.316 124.297  0.00  0.00    +0.074 C 
BRANCH  21  22
ATOM     22  C   LIG A   1      -7.329   2.835 123.795  0.00  0.00    +0.130 C 
ATOM     23  C   LIG A   1      -5.927   3.907 123.576  0.00  0.00    +0.086 C 
ATOM     24  O   LIG A   1      -8.624   3.314 123.527  0.00  0.00    -0.298 OA
ENDBRANCH  21  22
ENDBRANCH  20  21
ENDBRANCH  19  20
ENDBRANCH  18  19
ENDBRANCH  17  18
ENDBRANCH  16  17
ENDBRANCH  15  16
ENDBRANCH  14  15
ENDBRANCH  13  14
ENDBRANCH   1  13
TORSDOF 13
ENDMDL
MODEL 9
REMARK VINA RESULT:      -6.1      7.888     10.974
REMARK  Name = NuBBE_175
REMARK  15 active torsions:
REMARK  status: ('A' for Active; 'I' for Inactive)
REMARK    1  A    between atoms: C_3  and  C_5
REMARK    2  A    between atoms: C_8  and  C_10
REMARK    3  A    between atoms: C_10  and  C_11
REMARK    4  A    between atoms: C_11  and  C_12
REMARK    5  A    between atoms: C_12  and  C_13
REMARK    6  A    between atoms: C_13  and  C_14
REMARK    7  A    between atoms: C_14  and  C_15
REMARK    8  A    between atoms: C_15  and  C_16
REMARK    9  A    between atoms: C_16  and  C_17
REMARK   10  A    between atoms: C_17  and  C_18
REMARK   11  A    between atoms: C_18  and  C_19
REMARK   12  A    between atoms: C_19  and  C_20
REMARK   13  A    between atoms: C_20  and  C_21
REMARK   14  A    between atoms: C_21  and  C_22
REMARK   15  A    between atoms: C_22  and  C_23
REMARK                            x       y       z     vdW  Elec       q    Type
REMARK                         _______ _______ _______ _____ _____    ______ ____
ROOT
ATOM      1  C   LIG A   1      -8.129   4.754 131.432  0.00  0.00    +0.000 C 
ENDROOT
BRANCH   1   2
ATOM      2  C   LIG A   1      -9.738   4.404 131.674  0.00  0.00    +0.002 C 
BRANCH   2   3
ATOM      3  C   LIG A   1     -10.796   4.348 130.523  0.00  0.00    +0.019 C 
BRANCH   3  10
ATOM      4  O   LIG A   1     -12.666   9.519 129.782  0.00  0.00    -0.296 OA
ATOM      5  C   LIG A   1     -12.443   8.317 129.844  0.00  0.00    +0.150 C 
ATOM      6  C   LIG A   1     -11.866   7.521 128.662  0.00  0.00    +0.117 C 
ATOM      7  C   LIG A   1     -10.829   8.409 127.983  0.00  0.00    +0.032 C 
ATOM      8  N   LIG A   1     -11.197   6.258 129.009  0.00  0.00    -0.304 NA
ATOM      9  H   LIG A   1     -10.867   5.741 128.201  0.00  0.00    +0.123 HD
ATOM     10  C   LIG A   1     -11.793   5.428 130.035  0.00  0.00    +0.055 C 
ATOM     11  C   LIG A   1     -11.925   6.407 131.240  0.00  0.00    +0.026 C 
ATOM     12  C   LIG A   1     -12.916   7.533 131.031  0.00  0.00    +0.077 C 
ENDBRANCH   3  10
ENDBRANCH   2   3
ENDBRANCH   1   2
BRANCH   1  13
ATOM     13  C   LIG A   1      -7.226   6.262 131.711  0.00  0.00    -0.000 C 
BRANCH  13  14
ATOM     14  C   LIG A   1      -5.674   6.864 131.004  0.00  0.00    -0.000 C 
BRANCH  14  15
ATOM     15  C   LIG A   1      -4.368   6.992 131.802  0.00  0.00    -0.000 C 
BRANCH  15  16
ATOM     16  C   LIG A   1      -3.390   7.906 131.005  0.00  0.00    -0.000 C 
BRANCH  16  17
ATOM     17  C   LIG A   1      -3.864   8.071 129.563  0.00  0.00    -0.000 C 
BRANCH  17  18
ATOM     18  C   LIG A   1      -2.908   7.607 128.419  0.00  0.00    +0.000 C 
BRANCH  18  19
ATOM     19  C   LIG A   1      -2.246   6.186 128.457  0.00  0.00    +0.000 C 
BRANCH  19  20
ATOM     20  C   LIG A   1      -2.916   4.918 127.743  0.00  0.00    +0.007 C 
BRANCH  20  21
ATOM     21  C   LIG A   1      -4.425   4.814 127.661  0.00  0.00    +0.074 C 
BRANCH  21  22
ATOM     22  C   LIG A   1      -5.589   4.128 128.519  0.00  0.00    +0.130 C 
ATOM     23  C   LIG A   1      -5.478   2.883 129.784  0.00  0.00    +0.086 C 
ATOM     24  O   LIG A   1      -6.848   4.629 128.140  0.00  0.00    -0.298 OA
ENDBRANCH  21  22
ENDBRANCH  20  21
ENDBRANCH  19  20
ENDBRANCH  18  19
ENDBRANCH  17  18
ENDBRANCH  16  17
ENDBRANCH  15  16
ENDBRANCH  14  15
ENDBRANCH  13  14
ENDBRANCH   1  13
TORSDOF 13
ENDMDL
