MODEL 1
REMARK VINA RESULT:      -8.2      0.000      0.000
REMARK  Name = NuBBE_127
REMARK  12 active torsions:
REMARK  status: ('A' for Active; 'I' for Inactive)
REMARK    1  A    between atoms: O_1  and  C_2
REMARK    2  A    between atoms: C_5  and  C_6
REMARK    3  A    between atoms: C_10  and  O_11
REMARK    4  A    between atoms: C_12  and  O_13
REMARK    5  A    between atoms: O_13  and  C_14
REMARK    6  A    between atoms: C_17  and  C_25
REMARK    7  A    between atoms: C_19  and  O_24
REMARK    8  A    between atoms: C_21  and  O_23
REMARK    9  A    between atoms: C_25  and  O_26
REMARK   10  A    between atoms: C_27  and  O_29
REMARK   11  A    between atoms: C_30  and  O_31
REMARK   12  A    between atoms: O_31  and  C_32
REMARK                            x       y       z     vdW  Elec       q    Type
REMARK                         _______ _______ _______ _____ _____    ______ ____
ROOT
ATOM      1  C   LIG A   1      -7.217   2.898 122.492  0.00  0.00    +0.139 A 
ATOM      2  O   LIG A   1      -6.741   1.602 122.497  0.00  0.00    -0.454 OA
ATOM      3  C   LIG A   1      -7.113   0.761 123.508  0.00  0.00    +0.146 A 
ATOM      4  C   LIG A   1      -7.864   1.161 124.607  0.00  0.00    +0.109 A 
ATOM      5  C   LIG A   1      -8.146   0.237 125.626  0.00  0.00    +0.177 A 
ATOM      6  C   LIG A   1      -7.687  -1.092 125.531  0.00  0.00    +0.207 A 
ATOM      7  C   LIG A   1      -7.032  -1.499 124.347  0.00  0.00    +0.169 A 
ATOM      8  C   LIG A   1      -6.718  -0.562 123.365  0.00  0.00    +0.096 A 
ATOM      9  C   LIG A   1      -7.983   3.406 123.470  0.00  0.00    +0.098 A 
ATOM     10  C   LIG A   1      -8.339   2.552 124.622  0.00  0.00    +0.197 A 
ATOM     11  O   LIG A   1      -9.025   2.978 125.552  0.00  0.00    -0.287 OA
ENDROOT
BRANCH   1  15
ATOM     12  C   LIG A   1      -6.090   5.176 119.038  0.00  0.00    +0.117 A 
ATOM     13  C   LIG A   1      -7.352   4.603 119.106  0.00  0.00    +0.046 A 
ATOM     14  C   LIG A   1      -7.700   3.848 120.231  0.00  0.00    +0.015 A 
ATOM     15  C   LIG A   1      -6.794   3.658 121.294  0.00  0.00    +0.018 A 
ATOM     16  C   LIG A   1      -5.531   4.261 121.202  0.00  0.00    +0.015 A 
ATOM     17  C   LIG A   1      -5.181   5.013 120.075  0.00  0.00    +0.046 A 
BRANCH  12  18
ATOM     18  O   LIG A   1      -5.703   5.917 117.961  0.00  0.00    -0.507 OA
ATOM     19  H   LIG A   1      -5.494   5.317 117.228  0.00  0.00    +0.292 HD
ENDBRANCH  12  18
ENDBRANCH   1  15
BRANCH   5  20
ATOM     20  O   LIG A   1      -8.864   0.606 126.739  0.00  0.00    -0.503 OA
ATOM     21  H   LIG A   1      -9.783   0.826 126.468  0.00  0.00    +0.292 HD
ENDBRANCH   5  20
BRANCH   7  22
ATOM     22  O   LIG A   1      -6.801  -2.832 124.145  0.00  0.00    -0.491 OA
ATOM     23  C   LIG A   1      -5.447  -3.236 123.977  0.00  0.00    +0.277 C 
ENDBRANCH   7  22
BRANCH   6  24
ATOM     24  O   LIG A   1      -7.880  -1.894 126.642  0.00  0.00    -0.454 OA
BRANCH  24  25
ATOM     25  C   LIG A   1      -6.735  -2.146 127.482  0.00  0.00    +0.340 C 
ATOM     26  O   LIG A   1      -7.121  -3.032 128.573  0.00  0.00    -0.331 OA
ATOM     27  C   LIG A   1      -6.077  -3.074 129.553  0.00  0.00    +0.179 C 
ATOM     28  C   LIG A   1      -6.146  -1.787 130.396  0.00  0.00    +0.177 C 
ATOM     29  C   LIG A   1      -6.513  -0.586 129.504  0.00  0.00    +0.180 C 
ATOM     30  C   LIG A   1      -6.099  -0.823 128.040  0.00  0.00    +0.214 C 
BRANCH  29  31
ATOM     31  O   LIG A   1      -7.913  -0.299 129.588  0.00  0.00    -0.386 OA
ATOM     32  H   LIG A   1      -8.318  -0.488 128.718  0.00  0.00    +0.210 HD
ENDBRANCH  29  31
BRANCH  28  33
ATOM     33  O   LIG A   1      -4.890  -1.550 131.044  0.00  0.00    -0.387 OA
ATOM     34  H   LIG A   1      -4.484  -2.433 131.167  0.00  0.00    +0.210 HD
ENDBRANCH  28  33
BRANCH  30  35
ATOM     35  O   LIG A   1      -4.661  -0.904 127.948  0.00  0.00    -0.383 OA
ATOM     36  H   LIG A   1      -4.295  -0.077 128.312  0.00  0.00    +0.210 HD
ENDBRANCH  30  35
BRANCH  27  37
ATOM     37  C   LIG A   1      -6.183  -4.318 130.437  0.00  0.00    +0.190 C 
BRANCH  37  38
ATOM     38  O   LIG A   1      -4.972  -4.515 131.170  0.00  0.00    -0.392 OA
ATOM     39  H   LIG A   1      -4.236  -4.271 130.578  0.00  0.00    +0.209 HD
ENDBRANCH  37  38
ENDBRANCH  27  37
ENDBRANCH  24  25
ENDBRANCH   6  24
TORSDOF 11
ENDMDL
MODEL 2
REMARK VINA RESULT:      -8.0      3.830      5.843
REMARK  Name = NuBBE_127
REMARK  12 active torsions:
REMARK  status: ('A' for Active; 'I' for Inactive)
REMARK    1  A    between atoms: O_1  and  C_2
REMARK    2  A    between atoms: C_5  and  C_6
REMARK    3  A    between atoms: C_10  and  O_11
REMARK    4  A    between atoms: C_12  and  O_13
REMARK    5  A    between atoms: O_13  and  C_14
REMARK    6  A    between atoms: C_17  and  C_25
REMARK    7  A    between atoms: C_19  and  O_24
REMARK    8  A    between atoms: C_21  and  O_23
REMARK    9  A    between atoms: C_25  and  O_26
REMARK   10  A    between atoms: C_27  and  O_29
REMARK   11  A    between atoms: C_30  and  O_31
REMARK   12  A    between atoms: O_31  and  C_32
REMARK                            x       y       z     vdW  Elec       q    Type
REMARK                         _______ _______ _______ _____ _____    ______ ____
ROOT
ATOM      1  C   LIG A   1      -7.390   3.330 122.754  0.00  0.00    +0.139 A 
ATOM      2  O   LIG A   1      -6.755   3.918 123.831  0.00  0.00    -0.454 OA
ATOM      3  C   LIG A   1      -7.033   3.468 125.092  0.00  0.00    +0.146 A 
ATOM      4  C   LIG A   1      -8.005   2.516 125.375  0.00  0.00    +0.109 A 
ATOM      5  C   LIG A   1      -8.257   2.161 126.709  0.00  0.00    +0.177 A 
ATOM      6  C   LIG A   1      -7.521   2.752 127.757  0.00  0.00    +0.207 A 
ATOM      7  C   LIG A   1      -6.459   3.623 127.430  0.00  0.00    +0.169 A 
ATOM      8  C   LIG A   1      -6.249   4.003 126.105  0.00  0.00    +0.096 A 
ATOM      9  C   LIG A   1      -8.322   2.373 122.880  0.00  0.00    +0.098 A 
ATOM     10  C   LIG A   1      -8.707   1.918 124.231  0.00  0.00    +0.197 A 
ATOM     11  O   LIG A   1      -9.570   1.054 124.399  0.00  0.00    -0.287 OA
ENDROOT
BRANCH   1  15
ATOM     12  C   LIG A   1      -6.144   4.975 118.994  0.00  0.00    +0.117 A 
ATOM     13  C   LIG A   1      -7.438   4.494 119.144  0.00  0.00    +0.046 A 
ATOM     14  C   LIG A   1      -7.825   3.945 120.371  0.00  0.00    +0.015 A 
ATOM     15  C   LIG A   1      -6.927   3.869 121.456  0.00  0.00    +0.018 A 
ATOM     16  C   LIG A   1      -5.632   4.375 121.277  0.00  0.00    +0.015 A 
ATOM     17  C   LIG A   1      -5.242   4.921 120.049  0.00  0.00    +0.046 A 
BRANCH  12  18
ATOM     18  O   LIG A   1      -5.719   5.516 117.818  0.00  0.00    -0.507 OA
ATOM     19  H   LIG A   1      -6.471   5.565 117.207  0.00  0.00    +0.292 HD
ENDBRANCH  12  18
ENDBRANCH   1  15
BRANCH   5  20
ATOM     20  O   LIG A   1      -9.230   1.242 127.027  0.00  0.00    -0.503 OA
ATOM     21  H   LIG A   1      -8.938   0.352 126.728  0.00  0.00    +0.292 HD
ENDBRANCH   5  20
BRANCH   7  22
ATOM     22  O   LIG A   1      -5.592   4.007 128.416  0.00  0.00    -0.491 OA
ATOM     23  C   LIG A   1      -4.597   4.963 128.066  0.00  0.00    +0.277 C 
ENDBRANCH   7  22
BRANCH   6  24
ATOM     24  O   LIG A   1      -7.934   2.458 129.045  0.00  0.00    -0.454 OA
BRANCH  24  25
ATOM     25  C   LIG A   1      -8.928   3.321 129.633  0.00  0.00    +0.340 C 
ATOM     26  O   LIG A   1      -8.929   4.602 128.938  0.00  0.00    -0.331 OA
ATOM     27  C   LIG A   1      -9.712   5.550 129.674  0.00  0.00    +0.179 C 
ATOM     28  C   LIG A   1      -8.877   6.049 130.869  0.00  0.00    +0.177 C 
ATOM     29  C   LIG A   1      -8.051   4.891 131.460  0.00  0.00    +0.180 C 
ATOM     30  C   LIG A   1      -8.705   3.527 131.174  0.00  0.00    +0.214 C 
BRANCH  29  31
ATOM     31  O   LIG A   1      -6.710   4.918 130.962  0.00  0.00    -0.386 OA
ATOM     32  H   LIG A   1      -6.163   4.329 131.519  0.00  0.00    +0.210 HD
ENDBRANCH  29  31
BRANCH  28  33
ATOM     33  O   LIG A   1      -9.734   6.604 131.874  0.00  0.00    -0.387 OA
ATOM     34  H   LIG A   1      -9.138   6.945 132.572  0.00  0.00    +0.210 HD
ENDBRANCH  28  33
BRANCH  30  35
ATOM     35  O   LIG A   1      -9.972   3.442 131.860  0.00  0.00    -0.383 OA
ATOM     36  H   LIG A   1     -10.650   3.831 131.277  0.00  0.00    +0.210 HD
ENDBRANCH  30  35
BRANCH  27  37
ATOM     37  C   LIG A   1     -10.162   6.716 128.791  0.00  0.00    +0.190 C 
BRANCH  37  38
ATOM     38  O   LIG A   1      -9.560   7.936 129.229  0.00  0.00    -0.392 OA
ATOM     39  H   LIG A   1      -8.974   8.240 128.511  0.00  0.00    +0.209 HD
ENDBRANCH  37  38
ENDBRANCH  27  37
ENDBRANCH  24  25
ENDBRANCH   6  24
TORSDOF 11
ENDMDL
MODEL 3
REMARK VINA RESULT:      -8.0      3.643      5.054
REMARK  Name = NuBBE_127
REMARK  12 active torsions:
REMARK  status: ('A' for Active; 'I' for Inactive)
REMARK    1  A    between atoms: O_1  and  C_2
REMARK    2  A    between atoms: C_5  and  C_6
REMARK    3  A    between atoms: C_10  and  O_11
REMARK    4  A    between atoms: C_12  and  O_13
REMARK    5  A    between atoms: O_13  and  C_14
REMARK    6  A    between atoms: C_17  and  C_25
REMARK    7  A    between atoms: C_19  and  O_24
REMARK    8  A    between atoms: C_21  and  O_23
REMARK    9  A    between atoms: C_25  and  O_26
REMARK   10  A    between atoms: C_27  and  O_29
REMARK   11  A    between atoms: C_30  and  O_31
REMARK   12  A    between atoms: O_31  and  C_32
REMARK                            x       y       z     vdW  Elec       q    Type
REMARK                         _______ _______ _______ _____ _____    ______ ____
ROOT
ATOM      1  C   LIG A   1      -7.205   3.379 123.083  0.00  0.00    +0.139 A 
ATOM      2  O   LIG A   1      -6.251   3.568 124.064  0.00  0.00    -0.454 OA
ATOM      3  C   LIG A   1      -6.496   3.100 125.325  0.00  0.00    +0.146 A 
ATOM      4  C   LIG A   1      -7.703   2.534 125.718  0.00  0.00    +0.109 A 
ATOM      5  C   LIG A   1      -7.879   2.137 127.053  0.00  0.00    +0.177 A 
ATOM      6  C   LIG A   1      -6.835   2.294 127.988  0.00  0.00    +0.207 A 
ATOM      7  C   LIG A   1      -5.582   2.759 127.532  0.00  0.00    +0.169 A 
ATOM      8  C   LIG A   1      -5.435   3.193 126.215  0.00  0.00    +0.096 A 
ATOM      9  C   LIG A   1      -8.399   2.813 123.313  0.00  0.00    +0.098 A 
ATOM     10  C   LIG A   1      -8.732   2.369 124.682  0.00  0.00    +0.197 A 
ATOM     11  O   LIG A   1      -9.822   1.859 124.947  0.00  0.00    -0.287 OA
ENDROOT
BRANCH   1  15
ATOM     12  C   LIG A   1      -6.021   4.874 119.240  0.00  0.00    +0.117 A 
ATOM     13  C   LIG A   1      -7.303   4.371 119.423  0.00  0.00    +0.046 A 
ATOM     14  C   LIG A   1      -7.669   3.872 120.677  0.00  0.00    +0.015 A 
ATOM     15  C   LIG A   1      -6.762   3.867 121.757  0.00  0.00    +0.018 A 
ATOM     16  C   LIG A   1      -5.480   4.393 121.545  0.00  0.00    +0.015 A 
ATOM     17  C   LIG A   1      -5.111   4.890 120.290  0.00  0.00    +0.046 A 
BRANCH  12  18
ATOM     18  O   LIG A   1      -5.616   5.368 118.037  0.00  0.00    -0.507 OA
ATOM     19  H   LIG A   1      -5.523   6.332 118.111  0.00  0.00    +0.292 HD
ENDBRANCH  12  18
ENDBRANCH   1  15
BRANCH   5  20
ATOM     20  O   LIG A   1      -9.069   1.597 127.482  0.00  0.00    -0.503 OA
ATOM     21  H   LIG A   1      -9.578   1.286 126.700  0.00  0.00    +0.292 HD
ENDBRANCH   5  20
BRANCH   7  22
ATOM     22  O   LIG A   1      -4.504   2.685 128.371  0.00  0.00    -0.491 OA
ATOM     23  C   LIG A   1      -3.852   3.908 128.694  0.00  0.00    +0.277 C 
ENDBRANCH   7  22
BRANCH   6  24
ATOM     24  O   LIG A   1      -7.141   2.016 129.309  0.00  0.00    -0.454 OA
BRANCH  24  25
ATOM     25  C   LIG A   1      -7.221   3.133 130.217  0.00  0.00    +0.340 C 
ATOM     26  O   LIG A   1      -7.925   2.725 131.426  0.00  0.00    -0.331 OA
ATOM     27  C   LIG A   1      -8.244   3.879 132.213  0.00  0.00    +0.179 C 
ATOM     28  C   LIG A   1      -9.462   4.578 131.581  0.00  0.00    +0.177 C 
ATOM     29  C   LIG A   1      -9.372   4.516 130.044  0.00  0.00    +0.180 C 
ATOM     30  C   LIG A   1      -7.914   4.385 129.569  0.00  0.00    +0.214 C 
BRANCH  29  31
ATOM     31  O   LIG A   1     -10.165   3.441 129.532  0.00  0.00    -0.386 OA
ATOM     32  H   LIG A   1      -9.763   2.598 129.820  0.00  0.00    +0.210 HD
ENDBRANCH  29  31
BRANCH  28  33
ATOM     33  O   LIG A   1      -9.529   5.942 132.013  0.00  0.00    -0.387 OA
ATOM     34  H   LIG A   1     -10.295   5.991 132.622  0.00  0.00    +0.210 HD
ENDBRANCH  28  33
BRANCH  30  35
ATOM     35  O   LIG A   1      -7.179   5.577 129.917  0.00  0.00    -0.383 OA
ATOM     36  H   LIG A   1      -6.831   5.456 130.819  0.00  0.00    +0.210 HD
ENDBRANCH  30  35
BRANCH  27  37
ATOM     37  C   LIG A   1      -8.517   3.509 133.672  0.00  0.00    +0.190 C 
BRANCH  37  38
ATOM     38  O   LIG A   1      -9.850   3.871 134.038  0.00  0.00    -0.392 OA
ATOM     39  H   LIG A   1      -9.785   4.455 134.817  0.00  0.00    +0.209 HD
ENDBRANCH  37  38
ENDBRANCH  27  37
ENDBRANCH  24  25
ENDBRANCH   6  24
TORSDOF 11
ENDMDL
MODEL 4
REMARK VINA RESULT:      -7.6      6.314     11.516
REMARK  Name = NuBBE_127
REMARK  12 active torsions:
REMARK  status: ('A' for Active; 'I' for Inactive)
REMARK    1  A    between atoms: O_1  and  C_2
REMARK    2  A    between atoms: C_5  and  C_6
REMARK    3  A    between atoms: C_10  and  O_11
REMARK    4  A    between atoms: C_12  and  O_13
REMARK    5  A    between atoms: O_13  and  C_14
REMARK    6  A    between atoms: C_17  and  C_25
REMARK    7  A    between atoms: C_19  and  O_24
REMARK    8  A    between atoms: C_21  and  O_23
REMARK    9  A    between atoms: C_25  and  O_26
REMARK   10  A    between atoms: C_27  and  O_29
REMARK   11  A    between atoms: C_30  and  O_31
REMARK   12  A    between atoms: O_31  and  C_32
REMARK                            x       y       z     vdW  Elec       q    Type
REMARK                         _______ _______ _______ _____ _____    ______ ____
ROOT
ATOM      1  C   LIG A   1      -7.574  -1.425 132.153  0.00  0.00    +0.139 A 
ATOM      2  O   LIG A   1      -7.652  -0.268 132.904  0.00  0.00    -0.454 OA
ATOM      3  C   LIG A   1      -7.861   0.923 132.269  0.00  0.00    +0.146 A 
ATOM      4  C   LIG A   1      -7.894   1.066 130.887  0.00  0.00    +0.109 A 
ATOM      5  C   LIG A   1      -8.056   2.343 130.326  0.00  0.00    +0.177 A 
ATOM      6  C   LIG A   1      -8.201   3.473 131.156  0.00  0.00    +0.207 A 
ATOM      7  C   LIG A   1      -8.286   3.282 132.553  0.00  0.00    +0.169 A 
ATOM      8  C   LIG A   1      -8.077   2.016 133.098  0.00  0.00    +0.096 A 
ATOM      9  C   LIG A   1      -7.629  -1.438 130.812  0.00  0.00    +0.098 A 
ATOM     10  C   LIG A   1      -7.772  -0.160 130.085  0.00  0.00    +0.197 A 
ATOM     11  O   LIG A   1      -7.810  -0.119 128.855  0.00  0.00    -0.287 OA
ENDROOT
BRANCH   1  15
ATOM     12  C   LIG A   1      -7.032  -4.903 134.604  0.00  0.00    +0.117 A 
ATOM     13  C   LIG A   1      -6.117  -4.614 133.600  0.00  0.00    +0.046 A 
ATOM     14  C   LIG A   1      -6.316  -3.485 132.798  0.00  0.00    +0.015 A 
ATOM     15  C   LIG A   1      -7.427  -2.639 132.987  0.00  0.00    +0.018 A 
ATOM     16  C   LIG A   1      -8.326  -2.950 134.017  0.00  0.00    +0.015 A 
ATOM     17  C   LIG A   1      -8.131  -4.080 134.818  0.00  0.00    +0.046 A 
BRANCH  12  18
ATOM     18  O   LIG A   1      -6.884  -5.991 135.409  0.00  0.00    -0.507 OA
ATOM     19  H   LIG A   1      -7.760  -6.364 135.595  0.00  0.00    +0.292 HD
ENDBRANCH  12  18
ENDBRANCH   1  15
BRANCH   5  20
ATOM     20  O   LIG A   1      -8.066   2.523 128.963  0.00  0.00    -0.503 OA
ATOM     21  H   LIG A   1      -8.687   3.254 128.742  0.00  0.00    +0.292 HD
ENDBRANCH   5  20
BRANCH   7  22
ATOM     22  O   LIG A   1      -8.666   4.332 133.342  0.00  0.00    -0.491 OA
ATOM     23  C   LIG A   1      -8.104   4.396 134.648  0.00  0.00    +0.277 C 
ENDBRANCH   7  22
BRANCH   6  24
ATOM     24  O   LIG A   1      -8.205   4.706 130.527  0.00  0.00    -0.454 OA
BRANCH  24  25
ATOM     25  C   LIG A   1      -9.417   5.096 129.849  0.00  0.00    +0.340 C 
ATOM     26  O   LIG A   1      -9.338   6.507 129.491  0.00  0.00    -0.331 OA
ATOM     27  C   LIG A   1     -10.625   6.969 129.064  0.00  0.00    +0.179 C 
ATOM     28  C   LIG A   1     -11.500   7.199 130.311  0.00  0.00    +0.177 C 
ATOM     29  C   LIG A   1     -11.224   6.106 131.361  0.00  0.00    +0.180 C 
ATOM     30  C   LIG A   1     -10.701   4.814 130.708  0.00  0.00    +0.214 C 
BRANCH  29  31
ATOM     31  O   LIG A   1     -10.303   6.575 132.352  0.00  0.00    -0.386 OA
ATOM     32  H   LIG A   1      -9.680   5.850 132.559  0.00  0.00    +0.210 HD
ENDBRANCH  29  31
BRANCH  28  33
ATOM     33  O   LIG A   1     -12.886   7.194 129.951  0.00  0.00    -0.387 OA
ATOM     34  H   LIG A   1     -13.354   7.638 130.689  0.00  0.00    +0.210 HD
ENDBRANCH  28  33
BRANCH  30  35
ATOM     35  O   LIG A   1     -11.727   4.245 129.868  0.00  0.00    -0.383 OA
ATOM     36  H   LIG A   1     -12.475   4.870 129.850  0.00  0.00    +0.210 HD
ENDBRANCH  30  35
BRANCH  27  37
ATOM     37  C   LIG A   1     -10.517   8.245 128.225  0.00  0.00    +0.190 C 
BRANCH  37  38
ATOM     38  O   LIG A   1     -11.664   9.073 128.425  0.00  0.00    -0.392 OA
ATOM     39  H   LIG A   1     -12.123   8.741 129.219  0.00  0.00    +0.209 HD
ENDBRANCH  37  38
ENDBRANCH  27  37
ENDBRANCH  24  25
ENDBRANCH   6  24
TORSDOF 11
ENDMDL
MODEL 5
REMARK VINA RESULT:      -7.6      9.381     11.498
REMARK  Name = NuBBE_127
REMARK  12 active torsions:
REMARK  status: ('A' for Active; 'I' for Inactive)
REMARK    1  A    between atoms: O_1  and  C_2
REMARK    2  A    between atoms: C_5  and  C_6
REMARK    3  A    between atoms: C_10  and  O_11
REMARK    4  A    between atoms: C_12  and  O_13
REMARK    5  A    between atoms: O_13  and  C_14
REMARK    6  A    between atoms: C_17  and  C_25
REMARK    7  A    between atoms: C_19  and  O_24
REMARK    8  A    between atoms: C_21  and  O_23
REMARK    9  A    between atoms: C_25  and  O_26
REMARK   10  A    between atoms: C_27  and  O_29
REMARK   11  A    between atoms: C_30  and  O_31
REMARK   12  A    between atoms: O_31  and  C_32
REMARK                            x       y       z     vdW  Elec       q    Type
REMARK                         _______ _______ _______ _____ _____    ______ ____
ROOT
ATOM      1  C   LIG A   1      -9.201   6.828 131.040  0.00  0.00    +0.139 A 
ATOM      2  O   LIG A   1      -8.008   7.256 130.492  0.00  0.00    -0.454 OA
ATOM      3  C   LIG A   1      -6.834   6.892 131.089  0.00  0.00    +0.146 A 
ATOM      4  C   LIG A   1      -6.762   6.198 132.291  0.00  0.00    +0.109 A 
ATOM      5  C   LIG A   1      -5.507   5.921 132.856  0.00  0.00    +0.177 A 
ATOM      6  C   LIG A   1      -4.325   6.328 132.204  0.00  0.00    +0.207 A 
ATOM      7  C   LIG A   1      -4.426   6.922 130.927  0.00  0.00    +0.169 A 
ATOM      8  C   LIG A   1      -5.678   7.233 130.399  0.00  0.00    +0.096 A 
ATOM      9  C   LIG A   1      -9.277   6.118 132.177  0.00  0.00    +0.098 A 
ATOM     10  C   LIG A   1      -8.033   5.775 132.895  0.00  0.00    +0.197 A 
ATOM     11  O   LIG A   1      -8.052   5.140 133.951  0.00  0.00    -0.287 OA
ENDROOT
BRANCH   1  15
ATOM     12  C   LIG A   1     -12.652   8.067 128.817  0.00  0.00    +0.117 A 
ATOM     13  C   LIG A   1     -12.810   7.371 130.008  0.00  0.00    +0.046 A 
ATOM     14  C   LIG A   1     -11.675   6.959 130.714  0.00  0.00    +0.015 A 
ATOM     15  C   LIG A   1     -10.376   7.234 130.238  0.00  0.00    +0.018 A 
ATOM     16  C   LIG A   1     -10.250   7.950 129.039  0.00  0.00    +0.015 A 
ATOM     17  C   LIG A   1     -11.385   8.360 128.330  0.00  0.00    +0.046 A 
BRANCH  12  18
ATOM     18  O   LIG A   1     -13.727   8.488 128.092  0.00  0.00    -0.507 OA
ATOM     19  H   LIG A   1     -14.427   7.819 128.154  0.00  0.00    +0.292 HD
ENDBRANCH  12  18
ENDBRANCH   1  15
BRANCH   5  20
ATOM     20  O   LIG A   1      -5.400   5.259 134.057  0.00  0.00    -0.503 OA
ATOM     21  H   LIG A   1      -4.656   5.647 134.570  0.00  0.00    +0.292 HD
ENDBRANCH   5  20
BRANCH   7  22
ATOM     22  O   LIG A   1      -3.290   7.097 130.187  0.00  0.00    -0.491 OA
ATOM     23  C   LIG A   1      -3.453   7.542 128.845  0.00  0.00    +0.277 C 
ENDBRANCH   7  22
BRANCH   6  24
ATOM     24  O   LIG A   1      -3.142   6.147 132.899  0.00  0.00    -0.454 OA
BRANCH  24  25
ATOM     25  C   LIG A   1      -2.676   7.248 133.707  0.00  0.00    +0.340 C 
ATOM     26  O   LIG A   1      -2.564   8.442 132.879  0.00  0.00    -0.331 OA
ATOM     27  C   LIG A   1      -1.855   9.461 133.595  0.00  0.00    +0.179 C 
ATOM     28  C   LIG A   1      -0.351   9.130 133.553  0.00  0.00    +0.177 C 
ATOM     29  C   LIG A   1      -0.138   7.610 133.678  0.00  0.00    +0.180 C 
ATOM     30  C   LIG A   1      -1.309   6.934 134.414  0.00  0.00    +0.214 C 
BRANCH  29  31
ATOM     31  O   LIG A   1       0.053   7.016 132.390  0.00  0.00    -0.386 OA
ATOM     32  H   LIG A   1       0.752   7.515 131.922  0.00  0.00    +0.210 HD
ENDBRANCH  29  31
BRANCH  28  33
ATOM     33  O   LIG A   1       0.335   9.810 134.611  0.00  0.00    -0.387 OA
ATOM     34  H   LIG A   1       1.212   9.380 134.679  0.00  0.00    +0.210 HD
ENDBRANCH  28  33
BRANCH  30  35
ATOM     35  O   LIG A   1      -1.356   7.397 135.780  0.00  0.00    -0.383 OA
ATOM     36  H   LIG A   1      -2.182   7.064 136.177  0.00  0.00    +0.210 HD
ENDBRANCH  30  35
BRANCH  27  37
ATOM     37  C   LIG A   1      -2.129  10.851 133.017  0.00  0.00    +0.190 C 
BRANCH  37  38
ATOM     38  O   LIG A   1      -0.910  11.469 132.601  0.00  0.00    -0.392 OA
ATOM     39  H   LIG A   1      -0.300  11.441 133.363  0.00  0.00    +0.209 HD
ENDBRANCH  37  38
ENDBRANCH  27  37
ENDBRANCH  24  25
ENDBRANCH   6  24
TORSDOF 11
ENDMDL
MODEL 6
REMARK VINA RESULT:      -7.6      4.636      8.166
REMARK  Name = NuBBE_127
REMARK  12 active torsions:
REMARK  status: ('A' for Active; 'I' for Inactive)
REMARK    1  A    between atoms: O_1  and  C_2
REMARK    2  A    between atoms: C_5  and  C_6
REMARK    3  A    between atoms: C_10  and  O_11
REMARK    4  A    between atoms: C_12  and  O_13
REMARK    5  A    between atoms: O_13  and  C_14
REMARK    6  A    between atoms: C_17  and  C_25
REMARK    7  A    between atoms: C_19  and  O_24
REMARK    8  A    between atoms: C_21  and  O_23
REMARK    9  A    between atoms: C_25  and  O_26
REMARK   10  A    between atoms: C_27  and  O_29
REMARK   11  A    between atoms: C_30  and  O_31
REMARK   12  A    between atoms: O_31  and  C_32
REMARK                            x       y       z     vdW  Elec       q    Type
REMARK                         _______ _______ _______ _____ _____    ______ ____
ROOT
ATOM      1  C   LIG A   1      -6.815   0.493 124.940  0.00  0.00    +0.139 A 
ATOM      2  O   LIG A   1      -6.636   0.733 126.288  0.00  0.00    -0.454 OA
ATOM      3  C   LIG A   1      -7.159   1.871 126.835  0.00  0.00    +0.146 A 
ATOM      4  C   LIG A   1      -7.776   2.871 126.093  0.00  0.00    +0.109 A 
ATOM      5  C   LIG A   1      -8.229   4.032 126.739  0.00  0.00    +0.177 A 
ATOM      6  C   LIG A   1      -8.076   4.179 128.133  0.00  0.00    +0.207 A 
ATOM      7  C   LIG A   1      -7.556   3.096 128.875  0.00  0.00    +0.169 A 
ATOM      8  C   LIG A   1      -7.068   1.969 128.217  0.00  0.00    +0.096 A 
ATOM      9  C   LIG A   1      -7.426   1.355 124.112  0.00  0.00    +0.098 A 
ATOM     10  C   LIG A   1      -7.932   2.633 124.651  0.00  0.00    +0.197 A 
ATOM     11  O   LIG A   1      -8.485   3.464 123.929  0.00  0.00    -0.287 OA
ENDROOT
BRANCH   1  15
ATOM     12  C   LIG A   1      -5.150  -3.232 123.617  0.00  0.00    +0.117 A 
ATOM     13  C   LIG A   1      -5.812  -2.410 122.714  0.00  0.00    +0.046 A 
ATOM     14  C   LIG A   1      -6.364  -1.207 123.164  0.00  0.00    +0.015 A 
ATOM     15  C   LIG A   1      -6.264  -0.813 124.514  0.00  0.00    +0.018 A 
ATOM     16  C   LIG A   1      -5.578  -1.657 125.398  0.00  0.00    +0.015 A 
ATOM     17  C   LIG A   1      -5.027  -2.864 124.951  0.00  0.00    +0.046 A 
BRANCH  12  18
ATOM     18  O   LIG A   1      -4.597  -4.415 123.229  0.00  0.00    -0.507 OA
ATOM     19  H   LIG A   1      -5.027  -5.136 123.716  0.00  0.00    +0.292 HD
ENDBRANCH  12  18
ENDBRANCH   1  15
BRANCH   5  20
ATOM     20  O   LIG A   1      -8.821   5.053 126.032  0.00  0.00    -0.503 OA
ATOM     21  H   LIG A   1      -8.245   5.848 126.078  0.00  0.00    +0.292 HD
ENDBRANCH   5  20
BRANCH   7  22
ATOM     22  O   LIG A   1      -7.629   3.135 130.240  0.00  0.00    -0.491 OA
ATOM     23  C   LIG A   1      -6.449   3.513 130.941  0.00  0.00    +0.277 C 
ENDBRANCH   7  22
BRANCH   6  24
ATOM     24  O   LIG A   1      -8.414   5.412 128.665  0.00  0.00    -0.454 OA
BRANCH  24  25
ATOM     25  C   LIG A   1      -9.813   5.666 128.906  0.00  0.00    +0.340 C 
ATOM     26  O   LIG A   1     -10.056   7.103 128.873  0.00  0.00    -0.331 OA
ATOM     27  C   LIG A   1     -11.370   7.381 129.371  0.00  0.00    +0.179 C 
ATOM     28  C   LIG A   1     -11.339   7.288 130.908  0.00  0.00    +0.177 C 
ATOM     29  C   LIG A   1     -10.420   6.135 131.352  0.00  0.00    +0.180 C 
ATOM     30  C   LIG A   1     -10.307   5.052 130.265  0.00  0.00    +0.214 C 
BRANCH  29  31
ATOM     31  O   LIG A   1      -9.123   6.626 131.706  0.00  0.00    -0.386 OA
ATOM     32  H   LIG A   1      -9.178   7.598 131.800  0.00  0.00    +0.210 HD
ENDBRANCH  29  31
BRANCH  28  33
ATOM     33  O   LIG A   1     -12.662   7.085 131.419  0.00  0.00    -0.387 OA
ATOM     34  H   LIG A   1     -13.100   7.960 131.381  0.00  0.00    +0.210 HD
ENDBRANCH  28  33
BRANCH  30  35
ATOM     35  O   LIG A   1     -11.592   4.423 130.069  0.00  0.00    -0.383 OA
ATOM     36  H   LIG A   1     -12.244   5.129 129.908  0.00  0.00    +0.210 HD
ENDBRANCH  30  35
BRANCH  27  37
ATOM     37  C   LIG A   1     -11.868   8.753 128.913  0.00  0.00    +0.190 C 
BRANCH  37  38
ATOM     38  O   LIG A   1     -12.729   9.327 129.898  0.00  0.00    -0.392 OA
ATOM     39  H   LIG A   1     -12.158   9.718 130.585  0.00  0.00    +0.209 HD
ENDBRANCH  37  38
ENDBRANCH  27  37
ENDBRANCH  24  25
ENDBRANCH   6  24
TORSDOF 11
ENDMDL
MODEL 7
REMARK VINA RESULT:      -7.6      1.278      2.167
REMARK  Name = NuBBE_127
REMARK  12 active torsions:
REMARK  status: ('A' for Active; 'I' for Inactive)
REMARK    1  A    between atoms: O_1  and  C_2
REMARK    2  A    between atoms: C_5  and  C_6
REMARK    3  A    between atoms: C_10  and  O_11
REMARK    4  A    between atoms: C_12  and  O_13
REMARK    5  A    between atoms: O_13  and  C_14
REMARK    6  A    between atoms: C_17  and  C_25
REMARK    7  A    between atoms: C_19  and  O_24
REMARK    8  A    between atoms: C_21  and  O_23
REMARK    9  A    between atoms: C_25  and  O_26
REMARK   10  A    between atoms: C_27  and  O_29
REMARK   11  A    between atoms: C_30  and  O_31
REMARK   12  A    between atoms: O_31  and  C_32
REMARK                            x       y       z     vdW  Elec       q    Type
REMARK                         _______ _______ _______ _____ _____    ______ ____
ROOT
ATOM      1  C   LIG A   1      -7.654   2.617 122.267  0.00  0.00    +0.139 A 
ATOM      2  O   LIG A   1      -6.750   1.681 122.733  0.00  0.00    -0.454 OA
ATOM      3  C   LIG A   1      -7.155   0.781 123.678  0.00  0.00    +0.146 A 
ATOM      4  C   LIG A   1      -8.403   0.812 124.289  0.00  0.00    +0.109 A 
ATOM      5  C   LIG A   1      -8.705  -0.121 125.293  0.00  0.00    +0.177 A 
ATOM      6  C   LIG A   1      -7.758  -1.096 125.670  0.00  0.00    +0.207 A 
ATOM      7  C   LIG A   1      -6.548  -1.179 124.948  0.00  0.00    +0.169 A 
ATOM      8  C   LIG A   1      -6.241  -0.218 123.985  0.00  0.00    +0.096 A 
ATOM      9  C   LIG A   1      -8.903   2.735 122.740  0.00  0.00    +0.098 A 
ATOM     10  C   LIG A   1      -9.352   1.832 123.820  0.00  0.00    +0.197 A 
ATOM     11  O   LIG A   1     -10.484   1.913 124.300  0.00  0.00    -0.287 OA
ENDROOT
BRANCH   1  15
ATOM     12  C   LIG A   1      -6.124   5.160 119.170  0.00  0.00    +0.117 A 
ATOM     13  C   LIG A   1      -7.424   4.678 119.091  0.00  0.00    +0.046 A 
ATOM     14  C   LIG A   1      -7.903   3.837 120.100  0.00  0.00    +0.015 A 
ATOM     15  C   LIG A   1      -7.093   3.466 121.192  0.00  0.00    +0.018 A 
ATOM     16  C   LIG A   1      -5.789   3.979 121.250  0.00  0.00    +0.015 A 
ATOM     17  C   LIG A   1      -5.307   4.819 120.241  0.00  0.00    +0.046 A 
BRANCH  12  18
ATOM     18  O   LIG A   1      -5.610   5.980 118.211  0.00  0.00    -0.507 OA
ATOM     19  H   LIG A   1      -6.150   5.899 117.409  0.00  0.00    +0.292 HD
ENDBRANCH  12  18
ENDBRANCH   1  15
BRANCH   5  20
ATOM     20  O   LIG A   1      -9.921  -0.103 125.937  0.00  0.00    -0.503 OA
ATOM     21  H   LIG A   1     -10.373  -0.964 125.790  0.00  0.00    +0.292 HD
ENDBRANCH   5  20
BRANCH   7  22
ATOM     22  O   LIG A   1      -5.735  -2.262 125.141  0.00  0.00    -0.491 OA
ATOM     23  C   LIG A   1      -5.633  -3.193 124.070  0.00  0.00    +0.277 C 
ENDBRANCH   7  22
BRANCH   6  24
ATOM     24  O   LIG A   1      -8.080  -1.879 126.765  0.00  0.00    -0.454 OA
BRANCH  24  25
ATOM     25  C   LIG A   1      -7.659  -1.406 128.061  0.00  0.00    +0.340 C 
ATOM     26  O   LIG A   1      -6.670  -0.348 127.893  0.00  0.00    -0.331 OA
ATOM     27  C   LIG A   1      -6.053  -0.060 129.153  0.00  0.00    +0.179 C 
ATOM     28  C   LIG A   1      -5.018  -1.161 129.453  0.00  0.00    +0.177 C 
ATOM     29  C   LIG A   1      -5.550  -2.530 128.989  0.00  0.00    +0.180 C 
ATOM     30  C   LIG A   1      -7.088  -2.559 128.962  0.00  0.00    +0.214 C 
BRANCH  29  31
ATOM     31  O   LIG A   1      -5.020  -2.871 127.703  0.00  0.00    -0.386 OA
ATOM     32  H   LIG A   1      -4.653  -3.776 127.752  0.00  0.00    +0.210 HD
ENDBRANCH  29  31
BRANCH  28  33
ATOM     33  O   LIG A   1      -4.727  -1.198 130.855  0.00  0.00    -0.387 OA
ATOM     34  H   LIG A   1      -5.550  -1.500 131.290  0.00  0.00    +0.210 HD
ENDBRANCH  28  33
BRANCH  30  35
ATOM     35  O   LIG A   1      -7.600  -2.418 130.305  0.00  0.00    -0.383 OA
ATOM     36  H   LIG A   1      -7.085  -1.719 130.746  0.00  0.00    +0.210 HD
ENDBRANCH  30  35
BRANCH  27  37
ATOM     37  C   LIG A   1      -5.401   1.325 129.158  0.00  0.00    +0.190 C 
BRANCH  37  38
ATOM     38  O   LIG A   1      -3.980   1.208 129.259  0.00  0.00    -0.392 OA
ATOM     39  H   LIG A   1      -3.718   0.432 128.728  0.00  0.00    +0.209 HD
ENDBRANCH  37  38
ENDBRANCH  27  37
ENDBRANCH  24  25
ENDBRANCH   6  24
TORSDOF 11
ENDMDL
MODEL 8
REMARK VINA RESULT:      -7.5      4.030      5.800
REMARK  Name = NuBBE_127
REMARK  12 active torsions:
REMARK  status: ('A' for Active; 'I' for Inactive)
REMARK    1  A    between atoms: O_1  and  C_2
REMARK    2  A    between atoms: C_5  and  C_6
REMARK    3  A    between atoms: C_10  and  O_11
REMARK    4  A    between atoms: C_12  and  O_13
REMARK    5  A    between atoms: O_13  and  C_14
REMARK    6  A    between atoms: C_17  and  C_25
REMARK    7  A    between atoms: C_19  and  O_24
REMARK    8  A    between atoms: C_21  and  O_23
REMARK    9  A    between atoms: C_25  and  O_26
REMARK   10  A    between atoms: C_27  and  O_29
REMARK   11  A    between atoms: C_30  and  O_31
REMARK   12  A    between atoms: O_31  and  C_32
REMARK                            x       y       z     vdW  Elec       q    Type
REMARK                         _______ _______ _______ _____ _____    ______ ____
ROOT
ATOM      1  C   LIG A   1      -6.387   3.138 123.884  0.00  0.00    +0.139 A 
ATOM      2  O   LIG A   1      -6.011   3.956 124.932  0.00  0.00    -0.454 OA
ATOM      3  C   LIG A   1      -6.123   3.489 126.212  0.00  0.00    +0.146 A 
ATOM      4  C   LIG A   1      -6.700   2.267 126.540  0.00  0.00    +0.109 A 
ATOM      5  C   LIG A   1      -6.823   1.900 127.889  0.00  0.00    +0.177 A 
ATOM      6  C   LIG A   1      -6.353   2.755 128.907  0.00  0.00    +0.207 A 
ATOM      7  C   LIG A   1      -5.664   3.932 128.538  0.00  0.00    +0.169 A 
ATOM      8  C   LIG A   1      -5.589   4.306 127.198  0.00  0.00    +0.096 A 
ATOM      9  C   LIG A   1      -6.922   1.920 124.054  0.00  0.00    +0.098 A 
ATOM     10  C   LIG A   1      -7.135   1.413 125.426  0.00  0.00    +0.197 A 
ATOM     11  O   LIG A   1      -7.638   0.308 125.634  0.00  0.00    -0.287 OA
ENDROOT
BRANCH   1  15
ATOM     12  C   LIG A   1      -5.533   4.861 120.050  0.00  0.00    +0.117 A 
ATOM     13  C   LIG A   1      -4.674   5.088 121.118  0.00  0.00    +0.046 A 
ATOM     14  C   LIG A   1      -4.975   4.534 122.366  0.00  0.00    +0.015 A 
ATOM     15  C   LIG A   1      -6.132   3.752 122.562  0.00  0.00    +0.018 A 
ATOM     16  C   LIG A   1      -6.971   3.529 121.461  0.00  0.00    +0.015 A 
ATOM     17  C   LIG A   1      -6.674   4.085 120.212  0.00  0.00    +0.046 A 
BRANCH  12  18
ATOM     18  O   LIG A   1      -5.285   5.381 118.816  0.00  0.00    -0.507 OA
ATOM     19  H   LIG A   1      -4.591   6.054 118.894  0.00  0.00    +0.292 HD
ENDBRANCH  12  18
ENDBRANCH   1  15
BRANCH   5  20
ATOM     20  O   LIG A   1      -7.412   0.711 128.250  0.00  0.00    -0.503 OA
ATOM     21  H   LIG A   1      -7.754   0.266 127.443  0.00  0.00    +0.292 HD
ENDBRANCH   5  20
BRANCH   7  22
ATOM     22  O   LIG A   1      -4.998   4.637 129.502  0.00  0.00    -0.491 OA
ATOM     23  C   LIG A   1      -3.659   4.242 129.784  0.00  0.00    +0.277 C 
ENDBRANCH   7  22
BRANCH   6  24
ATOM     24  O   LIG A   1      -6.647   2.387 130.208  0.00  0.00    -0.454 OA
BRANCH  24  25
ATOM     25  C   LIG A   1      -7.900   2.845 130.757  0.00  0.00    +0.340 C 
ATOM     26  O   LIG A   1      -7.745   4.210 131.244  0.00  0.00    -0.331 OA
ATOM     27  C   LIG A   1      -8.888   4.578 132.024  0.00  0.00    +0.179 C 
ATOM     28  C   LIG A   1      -8.760   3.927 133.414  0.00  0.00    +0.177 C 
ATOM     29  C   LIG A   1      -8.156   2.516 133.286  0.00  0.00    +0.180 C 
ATOM     30  C   LIG A   1      -8.431   1.907 131.900  0.00  0.00    +0.214 C 
BRANCH  29  31
ATOM     31  O   LIG A   1      -6.750   2.538 133.553  0.00  0.00    -0.386 OA
ATOM     32  H   LIG A   1      -6.313   1.904 132.951  0.00  0.00    +0.210 HD
ENDBRANCH  29  31
BRANCH  28  33
ATOM     33  O   LIG A   1     -10.042   3.856 134.049  0.00  0.00    -0.387 OA
ATOM     34  H   LIG A   1      -9.938   3.224 134.790  0.00  0.00    +0.210 HD
ENDBRANCH  28  33
BRANCH  30  35
ATOM     35  O   LIG A   1      -9.850   1.701 131.732  0.00  0.00    -0.383 OA
ATOM     36  H   LIG A   1     -10.183   2.401 131.142  0.00  0.00    +0.210 HD
ENDBRANCH  30  35
BRANCH  27  37
ATOM     37  C   LIG A   1      -9.029   6.097 132.138  0.00  0.00    +0.190 C 
BRANCH  37  38
ATOM     38  O   LIG A   1     -10.034   6.435 133.096  0.00  0.00    -0.392 OA
ATOM     39  H   LIG A   1     -10.862   6.587 132.602  0.00  0.00    +0.209 HD
ENDBRANCH  37  38
ENDBRANCH  27  37
ENDBRANCH  24  25
ENDBRANCH   6  24
TORSDOF 11
ENDMDL
MODEL 9
REMARK VINA RESULT:      -7.5      2.365      3.737
REMARK  Name = NuBBE_127
REMARK  12 active torsions:
REMARK  status: ('A' for Active; 'I' for Inactive)
REMARK    1  A    between atoms: O_1  and  C_2
REMARK    2  A    between atoms: C_5  and  C_6
REMARK    3  A    between atoms: C_10  and  O_11
REMARK    4  A    between atoms: C_12  and  O_13
REMARK    5  A    between atoms: O_13  and  C_14
REMARK    6  A    between atoms: C_17  and  C_25
REMARK    7  A    between atoms: C_19  and  O_24
REMARK    8  A    between atoms: C_21  and  O_23
REMARK    9  A    between atoms: C_25  and  O_26
REMARK   10  A    between atoms: C_27  and  O_29
REMARK   11  A    between atoms: C_30  and  O_31
REMARK   12  A    between atoms: O_31  and  C_32
REMARK                            x       y       z     vdW  Elec       q    Type
REMARK                         _______ _______ _______ _____ _____    ______ ____
ROOT
ATOM      1  C   LIG A   1      -7.134   2.962 122.852  0.00  0.00    +0.139 A 
ATOM      2  O   LIG A   1      -7.205   3.808 123.942  0.00  0.00    -0.454 OA
ATOM      3  C   LIG A   1      -7.509   3.288 125.168  0.00  0.00    +0.146 A 
ATOM      4  C   LIG A   1      -7.862   1.960 125.377  0.00  0.00    +0.109 A 
ATOM      5  C   LIG A   1      -8.216   1.533 126.667  0.00  0.00    +0.177 A 
ATOM      6  C   LIG A   1      -8.198   2.437 127.748  0.00  0.00    +0.207 A 
ATOM      7  C   LIG A   1      -7.718   3.747 127.528  0.00  0.00    +0.169 A 
ATOM      8  C   LIG A   1      -7.414   4.171 126.235  0.00  0.00    +0.096 A 
ATOM      9  C   LIG A   1      -7.413   1.651 122.917  0.00  0.00    +0.098 A 
ATOM     10  C   LIG A   1      -7.825   1.067 124.210  0.00  0.00    +0.197 A 
ATOM     11  O   LIG A   1      -8.106  -0.128 124.317  0.00  0.00    -0.287 OA
ENDROOT
BRANCH   1  15
ATOM     12  C   LIG A   1      -6.029   5.055 119.276  0.00  0.00    +0.117 A 
ATOM     13  C   LIG A   1      -7.277   4.453 119.367  0.00  0.00    +0.046 A 
ATOM     14  C   LIG A   1      -7.616   3.760 120.533  0.00  0.00    +0.015 A 
ATOM     15  C   LIG A   1      -6.717   3.659 121.614  0.00  0.00    +0.018 A 
ATOM     16  C   LIG A   1      -5.470   4.288 121.497  0.00  0.00    +0.015 A 
ATOM     17  C   LIG A   1      -5.127   4.980 120.330  0.00  0.00    +0.046 A 
BRANCH  12  18
ATOM     18  O   LIG A   1      -5.649   5.739 118.160  0.00  0.00    -0.507 OA
ATOM     19  H   LIG A   1      -6.378   6.319 117.886  0.00  0.00    +0.292 HD
ENDBRANCH  12  18
ENDBRANCH   1  15
BRANCH   5  20
ATOM     20  O   LIG A   1      -8.595   0.232 126.904  0.00  0.00    -0.503 OA
ATOM     21  H   LIG A   1      -8.720  -0.226 126.044  0.00  0.00    +0.292 HD
ENDBRANCH   5  20
BRANCH   7  22
ATOM     22  O   LIG A   1      -7.469   4.550 128.606  0.00  0.00    -0.491 OA
ATOM     23  C   LIG A   1      -6.131   4.586 129.091  0.00  0.00    +0.277 C 
ENDBRANCH   7  22
BRANCH   6  24
ATOM     24  O   LIG A   1      -8.701   1.972 128.951  0.00  0.00    -0.454 OA
BRANCH  24  25
ATOM     25  C   LIG A   1      -7.768   1.357 129.863  0.00  0.00    +0.340 C 
ATOM     26  O   LIG A   1      -7.988  -0.083 129.882  0.00  0.00    -0.331 OA
ATOM     27  C   LIG A   1      -7.262  -0.668 130.970  0.00  0.00    +0.179 C 
ATOM     28  C   LIG A   1      -8.035  -0.400 132.274  0.00  0.00    +0.177 C 
ATOM     29  C   LIG A   1      -8.655   1.010 132.243  0.00  0.00    +0.180 C 
ATOM     30  C   LIG A   1      -7.870   1.952 131.314  0.00  0.00    +0.214 C 
BRANCH  29  31
ATOM     31  O   LIG A   1     -10.030   0.952 131.852  0.00  0.00    -0.386 OA
ATOM     32  H   LIG A   1     -10.384   0.075 132.101  0.00  0.00    +0.210 HD
ENDBRANCH  29  31
BRANCH  28  33
ATOM     33  O   LIG A   1      -7.163  -0.528 133.403  0.00  0.00    -0.387 OA
ATOM     34  H   LIG A   1      -7.266  -1.450 133.716  0.00  0.00    +0.210 HD
ENDBRANCH  28  33
BRANCH  30  35
ATOM     35  O   LIG A   1      -6.543   2.161 131.842  0.00  0.00    -0.383 OA
ATOM     36  H   LIG A   1      -6.622   2.750 132.615  0.00  0.00    +0.210 HD
ENDBRANCH  30  35
BRANCH  27  37
ATOM     37  C   LIG A   1      -7.042  -2.168 130.759  0.00  0.00    +0.190 C 
BRANCH  37  38
ATOM     38  O   LIG A   1      -7.508  -2.906 131.890  0.00  0.00    -0.392 OA
ATOM     39  H   LIG A   1      -8.220  -3.493 131.576  0.00  0.00    +0.209 HD
ENDBRANCH  37  38
ENDBRANCH  27  37
ENDBRANCH  24  25
ENDBRANCH   6  24
TORSDOF 11
ENDMDL
