MODEL 1
REMARK VINA RESULT:      -7.5      0.000      0.000
REMARK  Name = NuBBE_2340
REMARK  8 active torsions:
REMARK  status: ('A' for Active; 'I' for Inactive)
REMARK    1  A    between atoms: C_1  and  O_2
REMARK    2  A    between atoms: O_2  and  C_3
REMARK    3  A    between atoms: C_10  and  C_11
REMARK    4  A    between atoms: C_15  and  C_16
REMARK    5  A    between atoms: C_16  and  C_17
REMARK    6  A    between atoms: C_19  and  C_21
REMARK    7  A    between atoms: C_24  and  O_25
REMARK    8  A    between atoms: O_25  and  C_26
REMARK                            x       y       z     vdW  Elec       q    Type
REMARK                         _______ _______ _______ _____ _____    ______ ____
ROOT
ATOM      1  C   LIG A   1      -8.740   1.315 125.702  0.00  0.00    +0.207 C 
ATOM      2  O   LIG A   1      -9.618   0.719 124.715  0.00  0.00    -0.487 OA
ATOM      3  C   LIG A   1      -9.013  -0.491 124.407  0.00  0.00    +0.113 C 
ATOM      4  C   LIG A   1      -8.224  -1.091 125.552  0.00  0.00    +0.059 C 
ATOM      5  C   LIG A   1      -8.198   0.120 126.517  0.00  0.00    +0.049 C 
ATOM      6  C   LIG A   1      -6.935   0.343 127.338  0.00  0.00    +0.013 C 
ATOM      7  C   LIG A   1      -8.897  -0.875 123.132  0.00  0.00    +0.096 C 
ATOM      8  C   LIG A   1      -7.856  -1.871 122.775  0.00  0.00    +0.223 C 
ATOM      9  C   LIG A   1      -6.715  -2.025 123.760  0.00  0.00    +0.164 C 
ATOM     10  C   LIG A   1      -6.905  -1.626 125.031  0.00  0.00    +0.038 C 
ATOM     11  O   LIG A   1      -7.916  -2.447 121.706  0.00  0.00    -0.284 OA
ENDROOT
BRANCH   1  19
ATOM     12  C   LIG A   1      -6.356   4.303 125.158  0.00  0.00    +0.166 A 
ATOM     13  C   LIG A   1      -6.046   4.127 123.822  0.00  0.00    +0.207 A 
ATOM     14  O   LIG A   1      -5.244   4.904 123.043  0.00  0.00    -0.449 OA
ATOM     15  C   LIG A   1      -5.312   4.230 121.780  0.00  0.00    +0.467 C 
ATOM     16  O   LIG A   1      -6.178   3.082 121.800  0.00  0.00    -0.453 OA
ATOM     17  C   LIG A   1      -6.575   3.086 123.103  0.00  0.00    +0.170 A 
ATOM     18  C   LIG A   1      -7.422   2.159 123.669  0.00  0.00    +0.057 A 
ATOM     19  C   LIG A   1      -7.775   2.282 125.022  0.00  0.00    +0.000 A 
ATOM     20  C   LIG A   1      -7.244   3.383 125.746  0.00  0.00    +0.057 A 
BRANCH  12  22
ATOM     21  C   LIG A   1      -4.806   4.978 126.804  0.00  0.00    +0.277 C 
ATOM     22  O   LIG A   1      -5.906   5.316 125.958  0.00  0.00    -0.491 OA
ENDBRANCH  12  22
ENDBRANCH   1  19
BRANCH   9  23
ATOM     23  O   LIG A   1      -5.500  -2.601 123.422  0.00  0.00    -0.492 OA
ATOM     24  C   LIG A   1      -5.219  -3.858 124.031  0.00  0.00    +0.277 C 
ENDBRANCH   9  23
BRANCH   4  25
ATOM     25  C   LIG A   1      -9.029  -2.284 126.169  0.00  0.00    +0.045 C 
BRANCH  25  26
ATOM     26  C   LIG A   1      -8.304  -3.057 127.248  0.00  0.00    -0.033 C 
ATOM     27  C   LIG A   1      -8.868  -4.021 127.987  0.00  0.00    +0.004 C 
ENDBRANCH  25  26
ENDBRANCH   4  25
TORSDOF 5
ENDMDL
MODEL 2
REMARK VINA RESULT:      -7.4      2.178      3.957
REMARK  Name = NuBBE_2340
REMARK  8 active torsions:
REMARK  status: ('A' for Active; 'I' for Inactive)
REMARK    1  A    between atoms: C_1  and  O_2
REMARK    2  A    between atoms: O_2  and  C_3
REMARK    3  A    between atoms: C_10  and  C_11
REMARK    4  A    between atoms: C_15  and  C_16
REMARK    5  A    between atoms: C_16  and  C_17
REMARK    6  A    between atoms: C_19  and  C_21
REMARK    7  A    between atoms: C_24  and  O_25
REMARK    8  A    between atoms: O_25  and  C_26
REMARK                            x       y       z     vdW  Elec       q    Type
REMARK                         _______ _______ _______ _____ _____    ______ ____
ROOT
ATOM      1  C   LIG A   1      -7.514   0.201 124.277  0.00  0.00    +0.207 C 
ATOM      2  O   LIG A   1      -6.567  -0.892 124.181  0.00  0.00    -0.487 OA
ATOM      3  C   LIG A   1      -6.698  -1.563 125.389  0.00  0.00    +0.113 C 
ATOM      4  C   LIG A   1      -8.085  -1.477 125.991  0.00  0.00    +0.059 C 
ATOM      5  C   LIG A   1      -8.694  -0.373 125.091  0.00  0.00    +0.049 C 
ATOM      6  C   LIG A   1      -9.651   0.619 125.738  0.00  0.00    +0.013 C 
ATOM      7  C   LIG A   1      -5.610  -1.947 126.063  0.00  0.00    +0.096 C 
ATOM      8  C   LIG A   1      -5.721  -2.200 127.521  0.00  0.00    +0.223 C 
ATOM      9  C   LIG A   1      -6.907  -1.567 128.219  0.00  0.00    +0.164 C 
ATOM     10  C   LIG A   1      -7.975  -1.214 127.480  0.00  0.00    +0.038 C 
ATOM     11  O   LIG A   1      -4.843  -2.817 128.093  0.00  0.00    -0.284 OA
ENDROOT
BRANCH   1  19
ATOM     12  C   LIG A   1      -5.899   3.708 124.218  0.00  0.00    +0.166 A 
ATOM     13  C   LIG A   1      -5.447   3.790 125.522  0.00  0.00    +0.207 A 
ATOM     14  O   LIG A   1      -4.762   4.812 126.103  0.00  0.00    -0.449 OA
ATOM     15  C   LIG A   1      -4.576   4.324 127.439  0.00  0.00    +0.467 C 
ATOM     16  O   LIG A   1      -5.116   3.007 127.637  0.00  0.00    -0.453 OA
ATOM     17  C   LIG A   1      -5.647   2.762 126.408  0.00  0.00    +0.170 A 
ATOM     18  C   LIG A   1      -6.316   1.610 126.056  0.00  0.00    +0.057 A 
ATOM     19  C   LIG A   1      -6.800   1.466 124.746  0.00  0.00    +0.000 A 
ATOM     20  C   LIG A   1      -6.558   2.526 123.831  0.00  0.00    +0.057 A 
BRANCH  12  22
ATOM     21  C   LIG A   1      -5.443   4.154 121.947  0.00  0.00    +0.277 C 
ATOM     22  O   LIG A   1      -5.733   4.660 123.250  0.00  0.00    -0.491 OA
ENDBRANCH  12  22
ENDBRANCH   1  19
BRANCH   9  23
ATOM     23  O   LIG A   1      -6.961  -1.376 129.592  0.00  0.00    -0.492 OA
ATOM     24  C   LIG A   1      -7.622  -2.397 130.333  0.00  0.00    +0.277 C 
ENDBRANCH   9  23
BRANCH   4  25
ATOM     25  C   LIG A   1      -8.827  -2.841 125.787  0.00  0.00    +0.045 C 
BRANCH  25  26
ATOM     26  C   LIG A   1      -8.649  -3.471 124.425  0.00  0.00    -0.033 C 
ATOM     27  C   LIG A   1      -9.554  -3.397 123.441  0.00  0.00    +0.004 C 
ENDBRANCH  25  26
ENDBRANCH   4  25
TORSDOF 5
ENDMDL
MODEL 3
REMARK VINA RESULT:      -7.3      2.309      4.595
REMARK  Name = NuBBE_2340
REMARK  8 active torsions:
REMARK  status: ('A' for Active; 'I' for Inactive)
REMARK    1  A    between atoms: C_1  and  O_2
REMARK    2  A    between atoms: O_2  and  C_3
REMARK    3  A    between atoms: C_10  and  C_11
REMARK    4  A    between atoms: C_15  and  C_16
REMARK    5  A    between atoms: C_16  and  C_17
REMARK    6  A    between atoms: C_19  and  C_21
REMARK    7  A    between atoms: C_24  and  O_25
REMARK    8  A    between atoms: O_25  and  C_26
REMARK                            x       y       z     vdW  Elec       q    Type
REMARK                         _______ _______ _______ _____ _____    ______ ____
ROOT
ATOM      1  C   LIG A   1      -8.522   0.465 126.506  0.00  0.00    +0.207 C 
ATOM      2  O   LIG A   1      -9.629   0.667 125.593  0.00  0.00    -0.487 OA
ATOM      3  C   LIG A   1      -9.021   0.950 124.378  0.00  0.00    +0.113 C 
ATOM      4  C   LIG A   1      -7.671   0.288 124.199  0.00  0.00    +0.059 C 
ATOM      5  C   LIG A   1      -7.422  -0.198 125.648  0.00  0.00    +0.049 C 
ATOM      6  C   LIG A   1      -5.995  -0.152 126.175  0.00  0.00    +0.013 C 
ATOM      7  C   LIG A   1      -9.467   1.960 123.625  0.00  0.00    +0.096 C 
ATOM      8  C   LIG A   1      -8.556   2.562 122.620  0.00  0.00    +0.223 C 
ATOM      9  C   LIG A   1      -7.076   2.322 122.833  0.00  0.00    +0.164 C 
ATOM     10  C   LIG A   1      -6.697   1.280 123.595  0.00  0.00    +0.038 C 
ATOM     11  O   LIG A   1      -9.013   3.267 121.740  0.00  0.00    -0.284 OA
ENDROOT
BRANCH   1  19
ATOM     12  C   LIG A   1      -7.179   3.997 127.301  0.00  0.00    +0.166 A 
ATOM     13  C   LIG A   1      -7.609   4.132 128.608  0.00  0.00    +0.207 A 
ATOM     14  O   LIG A   1      -7.410   5.187 129.446  0.00  0.00    -0.449 OA
ATOM     15  C   LIG A   1      -8.075   4.749 130.638  0.00  0.00    +0.467 C 
ATOM     16  O   LIG A   1      -8.633   3.430 130.520  0.00  0.00    -0.453 OA
ATOM     17  C   LIG A   1      -8.312   3.132 129.231  0.00  0.00    +0.170 A 
ATOM     18  C   LIG A   1      -8.639   1.957 128.591  0.00  0.00    +0.057 A 
ATOM     19  C   LIG A   1      -8.231   1.759 127.262  0.00  0.00    +0.000 A 
ATOM     20  C   LIG A   1      -7.477   2.790 126.640  0.00  0.00    +0.057 A 
BRANCH  12  22
ATOM     21  C   LIG A   1      -5.037   4.760 126.673  0.00  0.00    +0.277 C 
ATOM     22  O   LIG A   1      -6.454   4.917 126.596  0.00  0.00    -0.491 OA
ENDBRANCH  12  22
ENDBRANCH   1  19
BRANCH   9  23
ATOM     23  O   LIG A   1      -6.092   3.101 122.241  0.00  0.00    -0.492 OA
ATOM     24  C   LIG A   1      -5.638   4.212 123.008  0.00  0.00    +0.277 C 
ENDBRANCH   9  23
BRANCH   4  25
ATOM     25  C   LIG A   1      -7.811  -0.923 123.216  0.00  0.00    +0.045 C 
BRANCH  25  26
ATOM     26  C   LIG A   1      -8.197  -2.234 123.863  0.00  0.00    -0.033 C 
ATOM     27  C   LIG A   1      -9.315  -2.912 123.577  0.00  0.00    +0.004 C 
ENDBRANCH  25  26
ENDBRANCH   4  25
TORSDOF 5
ENDMDL
MODEL 4
REMARK VINA RESULT:      -7.2      3.033      5.891
REMARK  Name = NuBBE_2340
REMARK  8 active torsions:
REMARK  status: ('A' for Active; 'I' for Inactive)
REMARK    1  A    between atoms: C_1  and  O_2
REMARK    2  A    between atoms: O_2  and  C_3
REMARK    3  A    between atoms: C_10  and  C_11
REMARK    4  A    between atoms: C_15  and  C_16
REMARK    5  A    between atoms: C_16  and  C_17
REMARK    6  A    between atoms: C_19  and  C_21
REMARK    7  A    between atoms: C_24  and  O_25
REMARK    8  A    between atoms: O_25  and  C_26
REMARK                            x       y       z     vdW  Elec       q    Type
REMARK                         _______ _______ _______ _____ _____    ______ ____
ROOT
ATOM      1  C   LIG A   1      -7.252  -2.316 126.418  0.00  0.00    +0.207 C 
ATOM      2  O   LIG A   1      -8.581  -1.742 126.496  0.00  0.00    -0.487 OA
ATOM      3  C   LIG A   1      -8.554  -0.696 125.585  0.00  0.00    +0.113 C 
ATOM      4  C   LIG A   1      -7.619  -0.925 124.416  0.00  0.00    +0.059 C 
ATOM      5  C   LIG A   1      -6.845  -2.161 124.936  0.00  0.00    +0.049 C 
ATOM      6  C   LIG A   1      -5.364  -2.262 124.600  0.00  0.00    +0.013 C 
ATOM      7  C   LIG A   1      -9.064   0.495 125.917  0.00  0.00    +0.096 C 
ATOM      8  C   LIG A   1      -8.610   1.700 125.179  0.00  0.00    +0.223 C 
ATOM      9  C   LIG A   1      -7.290   1.575 124.445  0.00  0.00    +0.164 C 
ATOM     10  C   LIG A   1      -6.842   0.346 124.133  0.00  0.00    +0.038 C 
ATOM     11  O   LIG A   1      -9.253   2.729 125.255  0.00  0.00    -0.284 OA
ENDROOT
BRANCH   1  19
ATOM     12  C   LIG A   1      -5.012  -2.099 129.556  0.00  0.00    +0.166 A 
ATOM     13  C   LIG A   1      -4.795  -0.734 129.606  0.00  0.00    +0.207 A 
ATOM     14  O   LIG A   1      -4.077  -0.038 130.529  0.00  0.00    -0.449 OA
ATOM     15  C   LIG A   1      -4.215   1.309 130.060  0.00  0.00    +0.467 C 
ATOM     16  O   LIG A   1      -5.039   1.415 128.887  0.00  0.00    -0.453 OA
ATOM     17  C   LIG A   1      -5.340   0.106 128.669  0.00  0.00    +0.170 A 
ATOM     18  C   LIG A   1      -6.113  -0.360 127.628  0.00  0.00    +0.057 A 
ATOM     19  C   LIG A   1      -6.371  -1.736 127.522  0.00  0.00    +0.000 A 
ATOM     20  C   LIG A   1      -5.826  -2.590 128.517  0.00  0.00    +0.057 A 
BRANCH  12  22
ATOM     21  C   LIG A   1      -5.230  -4.269 130.455  0.00  0.00    +0.277 C 
ATOM     22  O   LIG A   1      -4.539  -3.019 130.449  0.00  0.00    -0.491 OA
ENDBRANCH  12  22
ENDBRANCH   1  19
BRANCH   9  23
ATOM     23  O   LIG A   1      -6.546   2.673 124.041  0.00  0.00    -0.492 OA
ATOM     24  C   LIG A   1      -6.677   3.039 122.671  0.00  0.00    +0.277 C 
ENDBRANCH   9  23
BRANCH   4  25
ATOM     25  C   LIG A   1      -8.457  -1.281 123.141  0.00  0.00    +0.045 C 
BRANCH  25  26
ATOM     26  C   LIG A   1      -8.703  -2.757 122.928  0.00  0.00    -0.033 C 
ATOM     27  C   LIG A   1      -9.746  -3.425 123.437  0.00  0.00    +0.004 C 
ENDBRANCH  25  26
ENDBRANCH   4  25
TORSDOF 5
ENDMDL
MODEL 5
REMARK VINA RESULT:      -7.1      3.067      5.418
REMARK  Name = NuBBE_2340
REMARK  8 active torsions:
REMARK  status: ('A' for Active; 'I' for Inactive)
REMARK    1  A    between atoms: C_1  and  O_2
REMARK    2  A    between atoms: O_2  and  C_3
REMARK    3  A    between atoms: C_10  and  C_11
REMARK    4  A    between atoms: C_15  and  C_16
REMARK    5  A    between atoms: C_16  and  C_17
REMARK    6  A    between atoms: C_19  and  C_21
REMARK    7  A    between atoms: C_24  and  O_25
REMARK    8  A    between atoms: O_25  and  C_26
REMARK                            x       y       z     vdW  Elec       q    Type
REMARK                         _______ _______ _______ _____ _____    ______ ____
ROOT
ATOM      1  C   LIG A   1      -7.501  -2.427 127.790  0.00  0.00    +0.207 C 
ATOM      2  O   LIG A   1      -8.654  -2.782 126.986  0.00  0.00    -0.487 OA
ATOM      3  C   LIG A   1      -8.373  -2.253 125.734  0.00  0.00    +0.113 C 
ATOM      4  C   LIG A   1      -6.895  -2.195 125.411  0.00  0.00    +0.059 C 
ATOM      5  C   LIG A   1      -6.307  -2.494 126.812  0.00  0.00    +0.049 C 
ATOM      6  C   LIG A   1      -5.029  -1.770 127.212  0.00  0.00    +0.013 C 
ATOM      7  C   LIG A   1      -9.316  -1.582 125.065  0.00  0.00    +0.096 C 
ATOM      8  C   LIG A   1      -8.901  -0.627 124.008  0.00  0.00    +0.223 C 
ATOM      9  C   LIG A   1      -7.470  -0.133 124.079  0.00  0.00    +0.164 C 
ATOM     10  C   LIG A   1      -6.571  -0.864 124.762  0.00  0.00    +0.038 C 
ATOM     11  O   LIG A   1      -9.720  -0.230 123.201  0.00  0.00    -0.284 OA
ENDROOT
BRANCH   1  19
ATOM     12  C   LIG A   1      -8.197  -0.032 130.738  0.00  0.00    +0.166 A 
ATOM     13  C   LIG A   1      -8.365   1.156 130.052  0.00  0.00    +0.207 A 
ATOM     14  O   LIG A   1      -8.661   2.380 130.567  0.00  0.00    -0.449 OA
ATOM     15  C   LIG A   1      -8.710   3.196 129.389  0.00  0.00    +0.467 C 
ATOM     16  O   LIG A   1      -8.479   2.452 128.180  0.00  0.00    -0.453 OA
ATOM     17  C   LIG A   1      -8.261   1.206 128.685  0.00  0.00    +0.170 A 
ATOM     18  C   LIG A   1      -7.969   0.092 127.930  0.00  0.00    +0.057 A 
ATOM     19  C   LIG A   1      -7.786  -1.145 128.568  0.00  0.00    +0.000 A 
ATOM     20  C   LIG A   1      -7.928  -1.189 129.981  0.00  0.00    +0.057 A 
BRANCH  12  22
ATOM     21  C   LIG A   1      -7.651  -1.358 132.612  0.00  0.00    +0.277 C 
ATOM     22  O   LIG A   1      -8.303  -0.199 132.091  0.00  0.00    -0.491 OA
ENDBRANCH  12  22
ENDBRANCH   1  19
BRANCH   9  23
ATOM     23  O   LIG A   1      -7.036   1.015 123.434  0.00  0.00    -0.492 OA
ATOM     24  C   LIG A   1      -6.772   2.135 124.274  0.00  0.00    +0.277 C 
ENDBRANCH   9  23
BRANCH   4  25
ATOM     25  C   LIG A   1      -6.539  -3.335 124.397  0.00  0.00    +0.045 C 
BRANCH  25  26
ATOM     26  C   LIG A   1      -5.179  -3.215 123.749  0.00  0.00    -0.033 C 
ATOM     27  C   LIG A   1      -4.306  -4.225 123.644  0.00  0.00    +0.004 C 
ENDBRANCH  25  26
ENDBRANCH   4  25
TORSDOF 5
ENDMDL
MODEL 6
REMARK VINA RESULT:      -7.0      3.068      5.477
REMARK  Name = NuBBE_2340
REMARK  8 active torsions:
REMARK  status: ('A' for Active; 'I' for Inactive)
REMARK    1  A    between atoms: C_1  and  O_2
REMARK    2  A    between atoms: O_2  and  C_3
REMARK    3  A    between atoms: C_10  and  C_11
REMARK    4  A    between atoms: C_15  and  C_16
REMARK    5  A    between atoms: C_16  and  C_17
REMARK    6  A    between atoms: C_19  and  C_21
REMARK    7  A    between atoms: C_24  and  O_25
REMARK    8  A    between atoms: O_25  and  C_26
REMARK                            x       y       z     vdW  Elec       q    Type
REMARK                         _______ _______ _______ _____ _____    ______ ____
ROOT
ATOM      1  C   LIG A   1      -7.012  -0.385 127.457  0.00  0.00    +0.207 C 
ATOM      2  O   LIG A   1      -8.104  -1.113 126.841  0.00  0.00    -0.487 OA
ATOM      3  C   LIG A   1      -8.293  -0.477 125.622  0.00  0.00    +0.113 C 
ATOM      4  C   LIG A   1      -7.032   0.131 125.046  0.00  0.00    +0.059 C 
ATOM      5  C   LIG A   1      -6.100   0.024 126.278  0.00  0.00    +0.049 C 
ATOM      6  C   LIG A   1      -5.108   1.153 126.516  0.00  0.00    +0.013 C 
ATOM      7  C   LIG A   1      -9.528  -0.178 125.209  0.00  0.00    +0.096 C 
ATOM      8  C   LIG A   1      -9.706   0.897 124.201  0.00  0.00    +0.223 C 
ATOM      9  C   LIG A   1      -8.561   1.880 124.065  0.00  0.00    +0.164 C 
ATOM     10  C   LIG A   1      -7.341   1.509 124.494  0.00  0.00    +0.038 C 
ATOM     11  O   LIG A   1     -10.760   0.991 123.601  0.00  0.00    -0.284 OA
ENDROOT
BRANCH   1  19
ATOM     12  C   LIG A   1      -8.369   1.286 130.662  0.00  0.00    +0.166 A 
ATOM     13  C   LIG A   1      -8.633   2.555 130.182  0.00  0.00    +0.207 A 
ATOM     14  O   LIG A   1      -9.159   3.610 130.862  0.00  0.00    -0.449 OA
ATOM     15  C   LIG A   1      -9.195   4.627 129.852  0.00  0.00    +0.467 C 
ATOM     16  O   LIG A   1      -8.727   4.167 128.573  0.00  0.00    -0.453 OA
ATOM     17  C   LIG A   1      -8.387   2.883 128.873  0.00  0.00    +0.170 A 
ATOM     18  C   LIG A   1      -7.854   1.982 127.979  0.00  0.00    +0.057 A 
ATOM     19  C   LIG A   1      -7.564   0.676 128.404  0.00  0.00    +0.000 A 
ATOM     20  C   LIG A   1      -7.853   0.341 129.755  0.00  0.00    +0.057 A 
BRANCH  12  22
ATOM     21  C   LIG A   1      -8.125  -0.471 132.218  0.00  0.00    +0.277 C 
ATOM     22  O   LIG A   1      -8.598   0.847 131.937  0.00  0.00    -0.491 OA
ENDBRANCH  12  22
ENDBRANCH   1  19
BRANCH   9  23
ATOM     23  O   LIG A   1      -8.704   3.128 123.478  0.00  0.00    -0.492 OA
ATOM     24  C   LIG A   1      -8.387   3.200 122.091  0.00  0.00    +0.277 C 
ENDBRANCH   9  23
BRANCH   4  25
ATOM     25  C   LIG A   1      -6.513  -0.764 123.869  0.00  0.00    +0.045 C 
BRANCH  25  26
ATOM     26  C   LIG A   1      -5.721  -1.980 124.290  0.00  0.00    -0.033 C 
ATOM     27  C   LIG A   1      -5.250  -2.900 123.438  0.00  0.00    +0.004 C 
ENDBRANCH  25  26
ENDBRANCH   4  25
TORSDOF 5
ENDMDL
MODEL 7
REMARK VINA RESULT:      -7.0      3.206      6.184
REMARK  Name = NuBBE_2340
REMARK  8 active torsions:
REMARK  status: ('A' for Active; 'I' for Inactive)
REMARK    1  A    between atoms: C_1  and  O_2
REMARK    2  A    between atoms: O_2  and  C_3
REMARK    3  A    between atoms: C_10  and  C_11
REMARK    4  A    between atoms: C_15  and  C_16
REMARK    5  A    between atoms: C_16  and  C_17
REMARK    6  A    between atoms: C_19  and  C_21
REMARK    7  A    between atoms: C_24  and  O_25
REMARK    8  A    between atoms: O_25  and  C_26
REMARK                            x       y       z     vdW  Elec       q    Type
REMARK                         _______ _______ _______ _____ _____    ______ ____
ROOT
ATOM      1  C   LIG A   1      -8.161  -2.445 126.708  0.00  0.00    +0.207 C 
ATOM      2  O   LIG A   1      -9.364  -1.791 126.231  0.00  0.00    -0.487 OA
ATOM      3  C   LIG A   1      -8.897  -0.711 125.496  0.00  0.00    +0.113 C 
ATOM      4  C   LIG A   1      -7.550  -0.949 124.845  0.00  0.00    +0.059 C 
ATOM      5  C   LIG A   1      -7.135  -2.253 125.570  0.00  0.00    +0.049 C 
ATOM      6  C   LIG A   1      -5.663  -2.434 125.913  0.00  0.00    +0.013 C 
ATOM      7  C   LIG A   1      -9.454   0.494 125.648  0.00  0.00    +0.096 C 
ATOM      8  C   LIG A   1      -8.676   1.698 125.267  0.00  0.00    +0.223 C 
ATOM      9  C   LIG A   1      -7.173   1.521 125.182  0.00  0.00    +0.164 C 
ATOM     10  C   LIG A   1      -6.680   0.280 125.018  0.00  0.00    +0.038 C 
ATOM     11  O   LIG A   1      -9.246   2.762 125.120  0.00  0.00    -0.284 OA
ENDROOT
BRANCH   1  19
ATOM     12  C   LIG A   1      -7.172  -0.132 129.637  0.00  0.00    +0.166 A 
ATOM     13  C   LIG A   1      -7.177  -1.042 130.678  0.00  0.00    +0.207 A 
ATOM     14  O   LIG A   1      -6.879  -0.812 131.986  0.00  0.00    -0.449 OA
ATOM     15  C   LIG A   1      -7.056  -2.112 132.564  0.00  0.00    +0.467 C 
ATOM     16  O   LIG A   1      -7.422  -3.113 131.599  0.00  0.00    -0.453 OA
ATOM     17  C   LIG A   1      -7.489  -2.361 130.466  0.00  0.00    +0.170 A 
ATOM     18  C   LIG A   1      -7.826  -2.843 129.220  0.00  0.00    +0.057 A 
ATOM     19  C   LIG A   1      -7.838  -1.970 128.122  0.00  0.00    +0.000 A 
ATOM     20  C   LIG A   1      -7.483  -0.613 128.351  0.00  0.00    +0.057 A 
BRANCH  12  22
ATOM     21  C   LIG A   1      -7.598   2.060 128.874  0.00  0.00    +0.277 C 
ATOM     22  O   LIG A   1      -6.854   1.195 129.733  0.00  0.00    -0.491 OA
ENDBRANCH  12  22
ENDBRANCH   1  19
BRANCH   9  23
ATOM     23  O   LIG A   1      -6.285   2.586 125.220  0.00  0.00    -0.492 OA
ATOM     24  C   LIG A   1      -5.124   2.395 126.022  0.00  0.00    +0.277 C 
ENDBRANCH   9  23
BRANCH   4  25
ATOM     25  C   LIG A   1      -7.750  -1.198 123.312  0.00  0.00    +0.045 C 
BRANCH  25  26
ATOM     26  C   LIG A   1      -8.183  -2.597 122.939  0.00  0.00    -0.033 C 
ATOM     27  C   LIG A   1      -9.447  -3.035 123.011  0.00  0.00    +0.004 C 
ENDBRANCH  25  26
ENDBRANCH   4  25
TORSDOF 5
ENDMDL
MODEL 8
REMARK VINA RESULT:      -6.9      3.247      5.560
REMARK  Name = NuBBE_2340
REMARK  8 active torsions:
REMARK  status: ('A' for Active; 'I' for Inactive)
REMARK    1  A    between atoms: C_1  and  O_2
REMARK    2  A    between atoms: O_2  and  C_3
REMARK    3  A    between atoms: C_10  and  C_11
REMARK    4  A    between atoms: C_15  and  C_16
REMARK    5  A    between atoms: C_16  and  C_17
REMARK    6  A    between atoms: C_19  and  C_21
REMARK    7  A    between atoms: C_24  and  O_25
REMARK    8  A    between atoms: O_25  and  C_26
REMARK                            x       y       z     vdW  Elec       q    Type
REMARK                         _______ _______ _______ _____ _____    ______ ____
ROOT
ATOM      1  C   LIG A   1      -5.510  -0.620 127.672  0.00  0.00    +0.207 C 
ATOM      2  O   LIG A   1      -5.997  -1.982 127.590  0.00  0.00    -0.487 OA
ATOM      3  C   LIG A   1      -6.825  -1.982 126.475  0.00  0.00    +0.113 C 
ATOM      4  C   LIG A   1      -6.416  -0.989 125.408  0.00  0.00    +0.059 C 
ATOM      5  C   LIG A   1      -5.373  -0.164 126.202  0.00  0.00    +0.049 C 
ATOM      6  C   LIG A   1      -5.302   1.333 125.933  0.00  0.00    +0.013 C 
ATOM      7  C   LIG A   1      -8.022  -2.574 126.531  0.00  0.00    +0.096 C 
ATOM      8  C   LIG A   1      -9.070  -2.165 125.563  0.00  0.00    +0.223 C 
ATOM      9  C   LIG A   1      -8.881  -0.812 124.908  0.00  0.00    +0.164 C 
ATOM     10  C   LIG A   1      -7.646  -0.279 124.879  0.00  0.00    +0.038 C 
ATOM     11  O   LIG A   1     -10.046  -2.871 125.399  0.00  0.00    -0.284 OA
ENDROOT
BRANCH   1  19
ATOM     12  C   LIG A   1      -6.951   0.747 130.983  0.00  0.00    +0.166 A 
ATOM     13  C   LIG A   1      -7.946   1.573 130.493  0.00  0.00    +0.207 A 
ATOM     14  O   LIG A   1      -8.829   2.326 131.205  0.00  0.00    -0.449 OA
ATOM     15  C   LIG A   1      -9.596   2.947 130.165  0.00  0.00    +0.467 C 
ATOM     16  O   LIG A   1      -9.194   2.537 128.847  0.00  0.00    -0.453 OA
ATOM     17  C   LIG A   1      -8.161   1.701 129.145  0.00  0.00    +0.170 A 
ATOM     18  C   LIG A   1      -7.396   1.035 128.213  0.00  0.00    +0.057 A 
ATOM     19  C   LIG A   1      -6.369   0.181 128.647  0.00  0.00    +0.000 A 
ATOM     20  C   LIG A   1      -6.178   0.033 130.047  0.00  0.00    +0.057 A 
BRANCH  12  22
ATOM     21  C   LIG A   1      -5.522   1.219 132.800  0.00  0.00    +0.277 C 
ATOM     22  O   LIG A   1      -6.668   0.528 132.303  0.00  0.00    -0.491 OA
ENDBRANCH  12  22
ENDBRANCH   1  19
BRANCH   9  23
ATOM     23  O   LIG A   1      -9.915  -0.119 124.297  0.00  0.00    -0.492 OA
ATOM     24  C   LIG A   1      -9.804   1.301 124.315  0.00  0.00    +0.277 C 
ENDBRANCH   9  23
BRANCH   4  25
ATOM     25  C   LIG A   1      -5.741  -1.752 124.218  0.00  0.00    +0.045 C 
BRANCH  25  26
ATOM     26  C   LIG A   1      -5.298  -3.164 124.530  0.00  0.00    -0.033 C 
ATOM     27  C   LIG A   1      -4.589  -3.930 123.692  0.00  0.00    +0.004 C 
ENDBRANCH  25  26
ENDBRANCH   4  25
TORSDOF 5
ENDMDL
MODEL 9
REMARK VINA RESULT:      -6.9      3.590      6.218
REMARK  Name = NuBBE_2340
REMARK  8 active torsions:
REMARK  status: ('A' for Active; 'I' for Inactive)
REMARK    1  A    between atoms: C_1  and  O_2
REMARK    2  A    between atoms: O_2  and  C_3
REMARK    3  A    between atoms: C_10  and  C_11
REMARK    4  A    between atoms: C_15  and  C_16
REMARK    5  A    between atoms: C_16  and  C_17
REMARK    6  A    between atoms: C_19  and  C_21
REMARK    7  A    between atoms: C_24  and  O_25
REMARK    8  A    between atoms: O_25  and  C_26
REMARK                            x       y       z     vdW  Elec       q    Type
REMARK                         _______ _______ _______ _____ _____    ______ ____
ROOT
ATOM      1  C   LIG A   1      -6.653  -2.046 127.690  0.00  0.00    +0.207 C 
ATOM      2  O   LIG A   1      -5.474  -1.428 128.262  0.00  0.00    -0.487 OA
ATOM      3  C   LIG A   1      -5.818  -1.199 129.587  0.00  0.00    +0.113 C 
ATOM      4  C   LIG A   1      -6.806  -2.202 130.146  0.00  0.00    +0.059 C 
ATOM      5  C   LIG A   1      -7.243  -2.900 128.834  0.00  0.00    +0.049 C 
ATOM      6  C   LIG A   1      -8.698  -3.332 128.712  0.00  0.00    +0.013 C 
ATOM      7  C   LIG A   1      -5.537  -0.024 130.159  0.00  0.00    +0.096 C 
ATOM      8  C   LIG A   1      -6.310   0.396 131.353  0.00  0.00    +0.223 C 
ATOM      9  C   LIG A   1      -7.647  -0.288 131.557  0.00  0.00    +0.164 C 
ATOM     10  C   LIG A   1      -7.859  -1.475 130.960  0.00  0.00    +0.038 C 
ATOM     11  O   LIG A   1      -5.893   1.298 132.053  0.00  0.00    -0.284 OA
ENDROOT
BRANCH   1  19
ATOM     12  C   LIG A   1      -8.652   1.204 127.097  0.00  0.00    +0.166 A 
ATOM     13  C   LIG A   1      -9.127   0.968 125.820  0.00  0.00    +0.207 A 
ATOM     14  O   LIG A   1      -9.931   1.770 125.069  0.00  0.00    -0.449 OA
ATOM     15  C   LIG A   1     -10.078   1.002 123.868  0.00  0.00    +0.467 C 
ATOM     16  O   LIG A   1      -9.396  -0.262 123.920  0.00  0.00    -0.453 OA
ATOM     17  C   LIG A   1      -8.825  -0.192 125.154  0.00  0.00    +0.170 A 
ATOM     18  C   LIG A   1      -8.025  -1.168 125.707  0.00  0.00    +0.057 A 
ATOM     19  C   LIG A   1      -7.511  -0.988 127.001  0.00  0.00    +0.000 A 
ATOM     20  C   LIG A   1      -7.859   0.204 127.691  0.00  0.00    +0.057 A 
BRANCH  12  22
ATOM     21  C   LIG A   1      -7.845   2.722 128.712  0.00  0.00    +0.277 C 
ATOM     22  O   LIG A   1      -8.912   2.310 127.858  0.00  0.00    -0.491 OA
ENDBRANCH  12  22
ENDBRANCH   1  19
BRANCH   9  23
ATOM     23  O   LIG A   1      -8.644   0.232 132.368  0.00  0.00    -0.492 OA
ATOM     24  C   LIG A   1      -9.444   1.256 131.785  0.00  0.00    +0.277 C 
ENDBRANCH   9  23
BRANCH   4  25
ATOM     25  C   LIG A   1      -6.057  -3.200 131.092  0.00  0.00    +0.045 C 
BRANCH  25  26
ATOM     26  C   LIG A   1      -5.646  -4.505 130.451  0.00  0.00    -0.033 C 
ATOM     27  C   LIG A   1      -5.417  -5.636 131.131  0.00  0.00    +0.004 C 
ENDBRANCH  25  26
ENDBRANCH   4  25
TORSDOF 5
ENDMDL
