MODEL 1
REMARK VINA RESULT:      -8.5      0.000      0.000
REMARK  Name = NuBBE_1199
REMARK  15 active torsions:
REMARK  status: ('A' for Active; 'I' for Inactive)
REMARK    1  A    between atoms: C_1  and  C_2
REMARK    2  A    between atoms: C_2  and  C_12
REMARK    3  A    between atoms: C_4  and  C_6
REMARK    4  A    between atoms: C_6  and  C_7
REMARK    5  A    between atoms: C_6  and  O_8
REMARK    6  A    between atoms: C_6  and  C_9
REMARK    7  A    between atoms: C_16  and  C_17
REMARK    8  A    between atoms: C_18  and  C_23
REMARK    9  A    between atoms: C_26  and  C_34
REMARK   10  A    between atoms: C_27  and  C_28
REMARK   11  A    between atoms: C_27  and  C_29
REMARK   12  A    between atoms: C_29  and  C_30
REMARK   13  A    between atoms: C_30  and  C_31
REMARK   14  A    between atoms: C_31  and  O_32
REMARK   15  A    between atoms: C_34  and  C_35
REMARK                            x       y       z     vdW  Elec       q    Type
REMARK                         _______ _______ _______ _____ _____    ______ ____
ROOT
ATOM      1  C   LIG A   1     -10.051   4.263 131.401  0.00  0.00    +0.024 C 
ATOM      2  C   LIG A   1     -10.130   3.172 130.305  0.00  0.00    +0.007 C 
ATOM      3  C   LIG A   1      -8.876   2.274 130.375  0.00  0.00    +0.008 C 
ATOM      4  C   LIG A   1      -7.868   2.899 131.375  0.00  0.00    -0.023 C 
ATOM      5  C   LIG A   1      -7.307   1.747 132.256  0.00  0.00    +0.012 C 
ATOM      6  C   LIG A   1      -6.635   3.737 130.714  0.00  0.00    -0.023 C 
ATOM      7  C   LIG A   1      -6.069   4.774 131.756  0.00  0.00    +0.002 C 
ATOM      8  C   LIG A   1      -7.163   5.573 132.466  0.00  0.00    +0.005 C 
ATOM      9  C   LIG A   1      -8.157   4.701 133.194  0.00  0.00    +0.005 C 
ATOM     10  C   LIG A   1      -8.852   3.750 132.256  0.00  0.00    +0.001 C 
ATOM     11  C   LIG A   1      -7.063   4.305 129.349  0.00  0.00    +0.012 C 
ATOM     12  C   LIG A   1      -5.367   2.880 130.395  0.00  0.00    +0.008 C 
ATOM     13  C   LIG A   1      -4.300   3.681 129.630  0.00  0.00    +0.009 C 
ATOM     14  C   LIG A   1      -3.858   5.028 130.256  0.00  0.00    +0.020 C 
ATOM     15  C   LIG A   1      -4.850   5.706 131.310  0.00  0.00    -0.022 C 
ATOM     16  C   LIG A   1      -5.383   7.088 130.807  0.00  0.00    +0.012 C 
ENDROOT
BRANCH   1  18
ATOM     17  C   LIG A   1      -9.018   6.640 130.941  0.00  0.00    +0.042 C 
ATOM     18  C   LIG A   1     -10.280   5.749 130.896  0.00  0.00    +0.070 C 
ATOM     19  O   LIG A   1     -10.778   5.818 129.547  0.00  0.00    -0.367 OA
ATOM     20  C   LIG A   1     -11.975   6.635 129.495  0.00  0.00    +0.150 C 
ATOM     21  C   LIG A   1     -11.983   7.444 130.776  0.00  0.00    +0.037 C 
ATOM     22  C   LIG A   1     -11.350   6.473 131.749  0.00  0.00    +0.037 C 
BRANCH  20  23
ATOM     23  C   LIG A   1     -12.021   7.437 128.169  0.00  0.00    +0.086 C 
ATOM     24  C   LIG A   1     -10.831   8.387 127.996  0.00  0.00    +0.043 C 
ATOM     25  C   LIG A   1     -13.339   8.189 128.010  0.00  0.00    +0.043 C 
BRANCH  23  26
ATOM     26  O   LIG A   1     -11.957   6.498 127.085  0.00  0.00    -0.387 OA
ATOM     27  H   LIG A   1     -11.133   6.000 127.235  0.00  0.00    +0.210 HD
ENDBRANCH  23  26
ENDBRANCH  20  23
ENDBRANCH   1  18
BRANCH  14  28
ATOM     28  C   LIG A   1      -3.217   5.945 129.187  0.00  0.00    -0.076 C 
ATOM     29  C   LIG A   1      -1.904   6.604 129.534  0.00  0.00    +0.038 C 
ATOM     30  C   LIG A   1      -3.707   6.128 127.946  0.00  0.00    +0.007 C 
ENDBRANCH  14  28
BRANCH  15  31
ATOM     31  C   LIG A   1      -4.014   6.087 132.615  0.00  0.00    +0.018 C 
BRANCH  31  32
ATOM     32  C   LIG A   1      -2.731   5.279 132.858  0.00  0.00    +0.121 C 
BRANCH  32  33
ATOM     33  C   LIG A   1      -3.028   4.054 133.679  0.00  0.00    +0.305 C 
ATOM     34  O   LIG A   1      -3.146   2.894 133.207  0.00  0.00    -0.251 OA
BRANCH  33  35
ATOM     35  O   LIG A   1      -3.190   4.269 134.989  0.00  0.00    -0.481 OA
ATOM     36  H   LIG A   1      -2.473   3.779 135.413  0.00  0.00    +0.295 HD
ENDBRANCH  33  35
ENDBRANCH  32  33
ENDBRANCH  31  32
ENDBRANCH  15  31
TORSDOF 8
ENDMDL
MODEL 2
REMARK VINA RESULT:      -8.5      2.717      7.230
REMARK  Name = NuBBE_1199
REMARK  15 active torsions:
REMARK  status: ('A' for Active; 'I' for Inactive)
REMARK    1  A    between atoms: C_1  and  C_2
REMARK    2  A    between atoms: C_2  and  C_12
REMARK    3  A    between atoms: C_4  and  C_6
REMARK    4  A    between atoms: C_6  and  C_7
REMARK    5  A    between atoms: C_6  and  O_8
REMARK    6  A    between atoms: C_6  and  C_9
REMARK    7  A    between atoms: C_16  and  C_17
REMARK    8  A    between atoms: C_18  and  C_23
REMARK    9  A    between atoms: C_26  and  C_34
REMARK   10  A    between atoms: C_27  and  C_28
REMARK   11  A    between atoms: C_27  and  C_29
REMARK   12  A    between atoms: C_29  and  C_30
REMARK   13  A    between atoms: C_30  and  C_31
REMARK   14  A    between atoms: C_31  and  O_32
REMARK   15  A    between atoms: C_34  and  C_35
REMARK                            x       y       z     vdW  Elec       q    Type
REMARK                         _______ _______ _______ _____ _____    ______ ____
ROOT
ATOM      1  C   LIG A   1      -5.482   2.241 126.053  0.00  0.00    +0.024 C 
ATOM      2  C   LIG A   1      -4.752   0.919 126.392  0.00  0.00    +0.007 C 
ATOM      3  C   LIG A   1      -5.735  -0.058 127.073  0.00  0.00    +0.008 C 
ATOM      4  C   LIG A   1      -7.056   0.695 127.379  0.00  0.00    -0.023 C 
ATOM      5  C   LIG A   1      -8.232  -0.242 126.982  0.00  0.00    +0.012 C 
ATOM      6  C   LIG A   1      -7.250   1.199 128.918  0.00  0.00    -0.023 C 
ATOM      7  C   LIG A   1      -8.262   2.405 128.966  0.00  0.00    +0.002 C 
ATOM      8  C   LIG A   1      -7.981   3.471 127.906  0.00  0.00    +0.005 C 
ATOM      9  C   LIG A   1      -7.997   2.926 126.498  0.00  0.00    +0.005 C 
ATOM     10  C   LIG A   1      -6.968   1.844 126.310  0.00  0.00    +0.001 C 
ATOM     11  C   LIG A   1      -5.874   1.436 129.566  0.00  0.00    +0.012 C 
ATOM     12  C   LIG A   1      -7.945   0.160 129.857  0.00  0.00    +0.008 C 
ATOM     13  C   LIG A   1      -7.958   0.619 131.325  0.00  0.00    +0.009 C 
ATOM     14  C   LIG A   1      -8.537   2.028 131.609  0.00  0.00    +0.020 C 
ATOM     15  C   LIG A   1      -8.596   3.057 130.387  0.00  0.00    -0.022 C 
ATOM     16  C   LIG A   1      -7.691   4.309 130.632  0.00  0.00    +0.012 C 
ENDROOT
BRANCH   1  18
ATOM     17  C   LIG A   1      -5.242   4.855 125.861  0.00  0.00    +0.042 C 
ATOM     18  C   LIG A   1      -4.759   3.561 126.554  0.00  0.00    +0.070 C 
ATOM     19  O   LIG A   1      -4.901   3.782 127.969  0.00  0.00    -0.367 OA
ATOM     20  C   LIG A   1      -3.601   3.987 128.578  0.00  0.00    +0.150 C 
ATOM     21  C   LIG A   1      -2.657   4.323 127.441  0.00  0.00    +0.037 C 
ATOM     22  C   LIG A   1      -3.231   3.489 126.317  0.00  0.00    +0.037 C 
BRANCH  20  23
ATOM     23  C   LIG A   1      -3.702   5.024 129.725  0.00  0.00    +0.086 C 
ATOM     24  C   LIG A   1      -2.467   5.925 129.837  0.00  0.00    +0.043 C 
ATOM     25  C   LIG A   1      -4.006   4.358 131.064  0.00  0.00    +0.043 C 
BRANCH  23  26
ATOM     26  O   LIG A   1      -4.814   5.887 129.440  0.00  0.00    -0.387 OA
ATOM     27  H   LIG A   1      -4.803   5.995 128.472  0.00  0.00    +0.210 HD
ENDBRANCH  23  26
ENDBRANCH  20  23
ENDBRANCH   1  18
BRANCH  14  28
ATOM     28  C   LIG A   1      -8.031   2.564 132.969  0.00  0.00    -0.076 C 
ATOM     29  C   LIG A   1      -8.980   3.412 133.780  0.00  0.00    +0.038 C 
ATOM     30  C   LIG A   1      -6.837   2.259 133.513  0.00  0.00    +0.007 C 
ENDBRANCH  14  28
BRANCH  15  31
ATOM     31  C   LIG A   1     -10.067   3.672 130.318  0.00  0.00    +0.018 C 
BRANCH  31  32
ATOM     32  C   LIG A   1     -10.205   5.146 130.722  0.00  0.00    +0.121 C 
BRANCH  32  33
ATOM     33  C   LIG A   1     -11.614   5.624 130.495  0.00  0.00    +0.305 C 
ATOM     34  O   LIG A   1     -12.193   5.622 129.378  0.00  0.00    -0.251 OA
BRANCH  33  35
ATOM     35  O   LIG A   1     -12.241   6.092 131.579  0.00  0.00    -0.481 OA
ATOM     36  H   LIG A   1     -12.655   6.916 131.292  0.00  0.00    +0.295 HD
ENDBRANCH  33  35
ENDBRANCH  32  33
ENDBRANCH  31  32
ENDBRANCH  15  31
TORSDOF 8
ENDMDL
MODEL 3
REMARK VINA RESULT:      -8.4      6.040      8.788
REMARK  Name = NuBBE_1199
REMARK  15 active torsions:
REMARK  status: ('A' for Active; 'I' for Inactive)
REMARK    1  A    between atoms: C_1  and  C_2
REMARK    2  A    between atoms: C_2  and  C_12
REMARK    3  A    between atoms: C_4  and  C_6
REMARK    4  A    between atoms: C_6  and  C_7
REMARK    5  A    between atoms: C_6  and  O_8
REMARK    6  A    between atoms: C_6  and  C_9
REMARK    7  A    between atoms: C_16  and  C_17
REMARK    8  A    between atoms: C_18  and  C_23
REMARK    9  A    between atoms: C_26  and  C_34
REMARK   10  A    between atoms: C_27  and  C_28
REMARK   11  A    between atoms: C_27  and  C_29
REMARK   12  A    between atoms: C_29  and  C_30
REMARK   13  A    between atoms: C_30  and  C_31
REMARK   14  A    between atoms: C_31  and  O_32
REMARK   15  A    between atoms: C_34  and  C_35
REMARK                            x       y       z     vdW  Elec       q    Type
REMARK                         _______ _______ _______ _____ _____    ______ ____
ROOT
ATOM      1  C   LIG A   1      -5.536  -1.074 131.618  0.00  0.00    +0.024 C 
ATOM      2  C   LIG A   1      -6.805  -1.608 132.325  0.00  0.00    +0.007 C 
ATOM      3  C   LIG A   1      -7.248  -2.932 131.666  0.00  0.00    +0.008 C 
ATOM      4  C   LIG A   1      -6.400  -3.163 130.389  0.00  0.00    -0.023 C 
ATOM      5  C   LIG A   1      -5.972  -4.659 130.374  0.00  0.00    +0.012 C 
ATOM      6  C   LIG A   1      -7.120  -2.784 128.976  0.00  0.00    -0.023 C 
ATOM      7  C   LIG A   1      -6.030  -2.490 127.878  0.00  0.00    +0.002 C 
ATOM      8  C   LIG A   1      -4.914  -1.568 128.368  0.00  0.00    +0.005 C 
ATOM      9  C   LIG A   1      -4.194  -2.101 129.584  0.00  0.00    +0.005 C 
ATOM     10  C   LIG A   1      -5.135  -2.300 130.742  0.00  0.00    +0.001 C 
ATOM     11  C   LIG A   1      -8.172  -1.684 129.206  0.00  0.00    +0.012 C 
ATOM     12  C   LIG A   1      -7.924  -3.956 128.323  0.00  0.00    +0.008 C 
ATOM     13  C   LIG A   1      -8.711  -3.502 127.083  0.00  0.00    +0.009 C 
ATOM     14  C   LIG A   1      -7.911  -2.759 125.982  0.00  0.00    +0.020 C 
ATOM     15  C   LIG A   1      -6.522  -2.093 126.410  0.00  0.00    -0.022 C 
ATOM     16  C   LIG A   1      -6.547  -0.538 126.251  0.00  0.00    +0.012 C 
ENDROOT
BRANCH   1  18
ATOM     17  C   LIG A   1      -4.244   1.059 130.774  0.00  0.00    +0.042 C 
ATOM     18  C   LIG A   1      -5.610   0.439 131.144  0.00  0.00    +0.070 C 
ATOM     19  O   LIG A   1      -6.466   0.634 130.004  0.00  0.00    -0.367 OA
ATOM     20  C   LIG A   1      -7.439   1.674 130.278  0.00  0.00    +0.150 C 
ATOM     21  C   LIG A   1      -6.902   2.441 131.470  0.00  0.00    +0.037 C 
ATOM     22  C   LIG A   1      -6.210   1.344 132.248  0.00  0.00    +0.037 C 
BRANCH  20  23
ATOM     23  C   LIG A   1      -7.722   2.496 128.996  0.00  0.00    +0.086 C 
ATOM     24  C   LIG A   1      -6.478   2.713 128.129  0.00  0.00    +0.043 C 
ATOM     25  C   LIG A   1      -8.395   3.828 129.316  0.00  0.00    +0.043 C 
BRANCH  23  26
ATOM     26  O   LIG A   1      -8.655   1.753 128.195  0.00  0.00    -0.387 OA
ATOM     27  H   LIG A   1      -9.183   2.432 127.736  0.00  0.00    +0.210 HD
ENDBRANCH  23  26
ENDBRANCH  20  23
ENDBRANCH   1  18
BRANCH  14  28
ATOM     28  C   LIG A   1      -8.857  -1.926 125.085  0.00  0.00    -0.076 C 
ATOM     29  C   LIG A   1      -9.106  -2.427 123.684  0.00  0.00    +0.038 C 
ATOM     30  C   LIG A   1      -9.532  -0.836 125.495  0.00  0.00    +0.007 C 
ENDBRANCH  14  28
BRANCH  15  31
ATOM     31  C   LIG A   1      -5.403  -2.553 125.369  0.00  0.00    +0.018 C 
BRANCH  31  32
ATOM     32  C   LIG A   1      -5.760  -3.746 124.471  0.00  0.00    +0.121 C 
BRANCH  32  33
ATOM     33  C   LIG A   1      -4.562  -4.179 123.670  0.00  0.00    +0.305 C 
ATOM     34  O   LIG A   1      -3.692  -3.395 123.213  0.00  0.00    -0.251 OA
BRANCH  33  35
ATOM     35  O   LIG A   1      -4.474  -5.494 123.440  0.00  0.00    -0.481 OA
ATOM     36  H   LIG A   1      -3.554  -5.641 123.183  0.00  0.00    +0.295 HD
ENDBRANCH  33  35
ENDBRANCH  32  33
ENDBRANCH  31  32
ENDBRANCH  15  31
TORSDOF 8
ENDMDL
MODEL 4
REMARK VINA RESULT:      -8.4      4.951      7.193
REMARK  Name = NuBBE_1199
REMARK  15 active torsions:
REMARK  status: ('A' for Active; 'I' for Inactive)
REMARK    1  A    between atoms: C_1  and  C_2
REMARK    2  A    between atoms: C_2  and  C_12
REMARK    3  A    between atoms: C_4  and  C_6
REMARK    4  A    between atoms: C_6  and  C_7
REMARK    5  A    between atoms: C_6  and  O_8
REMARK    6  A    between atoms: C_6  and  C_9
REMARK    7  A    between atoms: C_16  and  C_17
REMARK    8  A    between atoms: C_18  and  C_23
REMARK    9  A    between atoms: C_26  and  C_34
REMARK   10  A    between atoms: C_27  and  C_28
REMARK   11  A    between atoms: C_27  and  C_29
REMARK   12  A    between atoms: C_29  and  C_30
REMARK   13  A    between atoms: C_30  and  C_31
REMARK   14  A    between atoms: C_31  and  O_32
REMARK   15  A    between atoms: C_34  and  C_35
REMARK                            x       y       z     vdW  Elec       q    Type
REMARK                         _______ _______ _______ _____ _____    ______ ____
ROOT
ATOM      1  C   LIG A   1      -7.894   0.074 123.694  0.00  0.00    +0.024 C 
ATOM      2  C   LIG A   1      -6.571  -0.623 123.293  0.00  0.00    +0.007 C 
ATOM      3  C   LIG A   1      -6.149  -1.614 124.399  0.00  0.00    +0.008 C 
ATOM      4  C   LIG A   1      -7.077  -1.417 125.627  0.00  0.00    -0.023 C 
ATOM      5  C   LIG A   1      -7.477  -2.829 126.142  0.00  0.00    +0.012 C 
ATOM      6  C   LIG A   1      -6.459  -0.539 126.854  0.00  0.00    -0.023 C 
ATOM      7  C   LIG A   1      -7.625   0.077 127.715  0.00  0.00    +0.002 C 
ATOM      8  C   LIG A   1      -8.723   0.724 126.869  0.00  0.00    +0.005 C 
ATOM      9  C   LIG A   1      -9.350  -0.230 125.881  0.00  0.00    +0.005 C 
ATOM     10  C   LIG A   1      -8.330  -0.784 124.921  0.00  0.00    +0.001 C 
ATOM     11  C   LIG A   1      -5.414   0.452 126.311  0.00  0.00    +0.012 C 
ATOM     12  C   LIG A   1      -5.681  -1.375 127.921  0.00  0.00    +0.008 C 
ATOM     13  C   LIG A   1      -4.986  -0.485 128.965  0.00  0.00    +0.009 C 
ATOM     14  C   LIG A   1      -5.871   0.564 129.687  0.00  0.00    +0.020 C 
ATOM     15  C   LIG A   1      -7.239   0.982 128.975  0.00  0.00    -0.022 C 
ATOM     16  C   LIG A   1      -7.253   2.494 128.578  0.00  0.00    +0.012 C 
ENDROOT
BRANCH   1  18
ATOM     17  C   LIG A   1      -9.260   2.295 123.343  0.00  0.00    +0.042 C 
ATOM     18  C   LIG A   1      -7.878   1.658 123.609  0.00  0.00    +0.070 C 
ATOM     19  O   LIG A   1      -7.364   2.284 124.799  0.00  0.00    -0.367 OA
ATOM     20  C   LIG A   1      -6.303   3.212 124.460  0.00  0.00    +0.150 C 
ATOM     21  C   LIG A   1      -6.447   3.484 122.976  0.00  0.00    +0.037 C 
ATOM     22  C   LIG A   1      -6.950   2.149 122.472  0.00  0.00    +0.037 C 
BRANCH  20  23
ATOM     23  C   LIG A   1      -6.347   4.444 125.398  0.00  0.00    +0.086 C 
ATOM     24  C   LIG A   1      -5.258   4.423 126.476  0.00  0.00    +0.043 C 
ATOM     25  C   LIG A   1      -7.725   4.625 126.028  0.00  0.00    +0.043 C 
BRANCH  23  26
ATOM     26  O   LIG A   1      -6.110   5.614 124.599  0.00  0.00    -0.387 OA
ATOM     27  H   LIG A   1      -6.593   6.327 125.054  0.00  0.00    +0.210 HD
ENDBRANCH  23  26
ENDBRANCH  20  23
ENDBRANCH   1  18
BRANCH  14  28
ATOM     28  C   LIG A   1      -5.002   1.695 130.285  0.00  0.00    -0.076 C 
ATOM     29  C   LIG A   1      -3.957   2.317 129.391  0.00  0.00    +0.038 C 
ATOM     30  C   LIG A   1      -5.168   2.214 131.517  0.00  0.00    +0.007 C 
ENDBRANCH  14  28
BRANCH  15  31
ATOM     31  C   LIG A   1      -8.418   0.870 130.046  0.00  0.00    +0.018 C 
BRANCH  31  32
ATOM     32  C   LIG A   1      -8.826   2.176 130.743  0.00  0.00    +0.121 C 
BRANCH  32  33
ATOM     33  C   LIG A   1      -8.958   1.961 132.227  0.00  0.00    +0.305 C 
ATOM     34  O   LIG A   1      -8.177   1.254 132.914  0.00  0.00    -0.251 OA
BRANCH  33  35
ATOM     35  O   LIG A   1     -10.004   2.565 132.801  0.00  0.00    -0.481 OA
ATOM     36  H   LIG A   1     -10.263   3.258 132.179  0.00  0.00    +0.295 HD
ENDBRANCH  33  35
ENDBRANCH  32  33
ENDBRANCH  31  32
ENDBRANCH  15  31
TORSDOF 8
ENDMDL
MODEL 5
REMARK VINA RESULT:      -8.3      2.818      6.777
REMARK  Name = NuBBE_1199
REMARK  15 active torsions:
REMARK  status: ('A' for Active; 'I' for Inactive)
REMARK    1  A    between atoms: C_1  and  C_2
REMARK    2  A    between atoms: C_2  and  C_12
REMARK    3  A    between atoms: C_4  and  C_6
REMARK    4  A    between atoms: C_6  and  C_7
REMARK    5  A    between atoms: C_6  and  O_8
REMARK    6  A    between atoms: C_6  and  C_9
REMARK    7  A    between atoms: C_16  and  C_17
REMARK    8  A    between atoms: C_18  and  C_23
REMARK    9  A    between atoms: C_26  and  C_34
REMARK   10  A    between atoms: C_27  and  C_28
REMARK   11  A    between atoms: C_27  and  C_29
REMARK   12  A    between atoms: C_29  and  C_30
REMARK   13  A    between atoms: C_30  and  C_31
REMARK   14  A    between atoms: C_31  and  O_32
REMARK   15  A    between atoms: C_34  and  C_35
REMARK                            x       y       z     vdW  Elec       q    Type
REMARK                         _______ _______ _______ _____ _____    ______ ____
ROOT
ATOM      1  C   LIG A   1      -2.688   5.376 131.052  0.00  0.00    +0.024 C 
ATOM      2  C   LIG A   1      -2.685   6.734 131.795  0.00  0.00    +0.007 C 
ATOM      3  C   LIG A   1      -3.663   6.675 132.989  0.00  0.00    +0.008 C 
ATOM      4  C   LIG A   1      -4.472   5.354 132.908  0.00  0.00    -0.023 C 
ATOM      5  C   LIG A   1      -4.528   4.751 134.340  0.00  0.00    +0.012 C 
ATOM      6  C   LIG A   1      -5.981   5.476 132.303  0.00  0.00    -0.023 C 
ATOM      7  C   LIG A   1      -6.445   4.085 131.728  0.00  0.00    +0.002 C 
ATOM      8  C   LIG A   1      -5.388   3.412 130.852  0.00  0.00    +0.005 C 
ATOM      9  C   LIG A   1      -4.078   3.187 131.569  0.00  0.00    +0.005 C 
ATOM     10  C   LIG A   1      -3.482   4.482 132.052  0.00  0.00    +0.001 C 
ATOM     11  C   LIG A   1      -6.061   6.674 131.339  0.00  0.00    +0.012 C 
ATOM     12  C   LIG A   1      -7.085   5.766 133.371  0.00  0.00    +0.008 C 
ATOM     13  C   LIG A   1      -8.459   6.031 132.732  0.00  0.00    +0.009 C 
ATOM     14  C   LIG A   1      -8.981   4.963 131.737  0.00  0.00    +0.020 C 
ATOM     15  C   LIG A   1      -7.903   3.982 131.081  0.00  0.00    -0.022 C 
ATOM     16  C   LIG A   1      -7.818   4.159 129.529  0.00  0.00    +0.012 C 
ENDROOT
BRANCH   1  18
ATOM     17  C   LIG A   1      -2.015   6.498 128.768  0.00  0.00    +0.042 C 
ATOM     18  C   LIG A   1      -2.911   5.463 129.484  0.00  0.00    +0.070 C 
ATOM     19  O   LIG A   1      -2.699   4.208 128.811  0.00  0.00    -0.367 OA
ATOM     20  C   LIG A   1      -3.847   3.877 127.990  0.00  0.00    +0.150 C 
ATOM     21  C   LIG A   1      -4.621   5.169 127.817  0.00  0.00    +0.037 C 
ATOM     22  C   LIG A   1      -4.372   5.849 129.146  0.00  0.00    +0.037 C 
BRANCH  20  23
ATOM     23  C   LIG A   1      -3.393   3.163 126.693  0.00  0.00    +0.086 C 
ATOM     24  C   LIG A   1      -1.871   3.141 126.516  0.00  0.00    +0.043 C 
ATOM     25  C   LIG A   1      -4.070   3.750 125.458  0.00  0.00    +0.043 C 
BRANCH  23  26
ATOM     26  O   LIG A   1      -3.815   1.793 126.774  0.00  0.00    -0.387 OA
ATOM     27  H   LIG A   1      -3.283   1.411 127.495  0.00  0.00    +0.210 HD
ENDBRANCH  23  26
ENDBRANCH  20  23
ENDBRANCH   1  18
BRANCH  14  28
ATOM     28  C   LIG A   1     -10.059   5.565 130.805  0.00  0.00    -0.076 C 
ATOM     29  C   LIG A   1     -11.221   4.681 130.423  0.00  0.00    +0.038 C 
ATOM     30  C   LIG A   1     -10.073   6.843 130.379  0.00  0.00    +0.007 C 
ENDBRANCH  14  28
BRANCH  15  31
ATOM     31  C   LIG A   1      -8.418   2.482 131.254  0.00  0.00    +0.018 C 
BRANCH  31  32
ATOM     32  C   LIG A   1      -8.190   1.840 132.630  0.00  0.00    +0.121 C 
BRANCH  32  33
ATOM     33  C   LIG A   1      -7.478   0.522 132.484  0.00  0.00    +0.305 C 
ATOM     34  O   LIG A   1      -7.372  -0.333 133.400  0.00  0.00    -0.251 OA
BRANCH  33  35
ATOM     35  O   LIG A   1      -6.921   0.303 131.289  0.00  0.00    -0.481 OA
ATOM     36  H   LIG A   1      -7.568  -0.227 130.805  0.00  0.00    +0.295 HD
ENDBRANCH  33  35
ENDBRANCH  32  33
ENDBRANCH  31  32
ENDBRANCH  15  31
TORSDOF 8
ENDMDL
MODEL 6
REMARK VINA RESULT:      -8.3      2.157      3.004
REMARK  Name = NuBBE_1199
REMARK  15 active torsions:
REMARK  status: ('A' for Active; 'I' for Inactive)
REMARK    1  A    between atoms: C_1  and  C_2
REMARK    2  A    between atoms: C_2  and  C_12
REMARK    3  A    between atoms: C_4  and  C_6
REMARK    4  A    between atoms: C_6  and  C_7
REMARK    5  A    between atoms: C_6  and  O_8
REMARK    6  A    between atoms: C_6  and  C_9
REMARK    7  A    between atoms: C_16  and  C_17
REMARK    8  A    between atoms: C_18  and  C_23
REMARK    9  A    between atoms: C_26  and  C_34
REMARK   10  A    between atoms: C_27  and  C_28
REMARK   11  A    between atoms: C_27  and  C_29
REMARK   12  A    between atoms: C_29  and  C_30
REMARK   13  A    between atoms: C_30  and  C_31
REMARK   14  A    between atoms: C_31  and  O_32
REMARK   15  A    between atoms: C_34  and  C_35
REMARK                            x       y       z     vdW  Elec       q    Type
REMARK                         _______ _______ _______ _____ _____    ______ ____
ROOT
ATOM      1  C   LIG A   1      -8.657   4.437 132.064  0.00  0.00    +0.024 C 
ATOM      2  C   LIG A   1      -9.096   2.953 132.105  0.00  0.00    +0.007 C 
ATOM      3  C   LIG A   1      -7.865   2.054 132.353  0.00  0.00    +0.008 C 
ATOM      4  C   LIG A   1      -6.584   2.924 132.262  0.00  0.00    -0.023 C 
ATOM      5  C   LIG A   1      -5.657   2.516 133.442  0.00  0.00    +0.012 C 
ATOM      6  C   LIG A   1      -5.760   2.835 130.859  0.00  0.00    -0.023 C 
ATOM      7  C   LIG A   1      -4.892   4.134 130.661  0.00  0.00    +0.002 C 
ATOM      8  C   LIG A   1      -5.664   5.423 130.943  0.00  0.00    +0.005 C 
ATOM      9  C   LIG A   1      -6.241   5.476 132.338  0.00  0.00    +0.005 C 
ATOM     10  C   LIG A   1      -7.192   4.336 132.587  0.00  0.00    +0.001 C 
ATOM     11  C   LIG A   1      -6.720   2.474 129.711  0.00  0.00    +0.012 C 
ATOM     12  C   LIG A   1      -4.671   1.713 130.817  0.00  0.00    +0.008 C 
ATOM     13  C   LIG A   1      -4.037   1.568 129.423  0.00  0.00    +0.009 C 
ATOM     14  C   LIG A   1      -3.464   2.857 128.781  0.00  0.00    +0.020 C 
ATOM     15  C   LIG A   1      -4.001   4.256 129.340  0.00  0.00    -0.022 C 
ATOM     16  C   LIG A   1      -4.767   5.067 128.244  0.00  0.00    +0.012 C 
ENDROOT
BRANCH   1  18
ATOM     17  C   LIG A   1      -8.829   4.588 129.442  0.00  0.00    +0.042 C 
ATOM     18  C   LIG A   1      -9.152   5.255 130.798  0.00  0.00    +0.070 C 
ATOM     19  O   LIG A   1     -10.569   5.503 130.802  0.00  0.00    -0.367 OA
ATOM     20  C   LIG A   1     -10.833   6.917 130.623  0.00  0.00    +0.150 C 
ATOM     21  C   LIG A   1      -9.554   7.511 130.068  0.00  0.00    +0.037 C 
ATOM     22  C   LIG A   1      -8.505   6.662 130.752  0.00  0.00    +0.037 C 
BRANCH  20  23
ATOM     23  C   LIG A   1     -12.115   7.122 129.777  0.00  0.00    +0.086 C 
ATOM     24  C   LIG A   1     -11.972   8.217 128.716  0.00  0.00    +0.043 C 
ATOM     25  C   LIG A   1     -13.336   7.380 130.656  0.00  0.00    +0.043 C 
BRANCH  23  26
ATOM     26  O   LIG A   1     -12.376   5.899 129.071  0.00  0.00    -0.387 OA
ATOM     27  H   LIG A   1     -13.030   5.429 129.621  0.00  0.00    +0.210 HD
ENDBRANCH  23  26
ENDBRANCH  20  23
ENDBRANCH   1  18
BRANCH  14  28
ATOM     28  C   LIG A   1      -3.347   2.699 127.246  0.00  0.00    -0.076 C 
ATOM     29  C   LIG A   1      -2.052   3.126 126.600  0.00  0.00    +0.038 C 
ATOM     30  C   LIG A   1      -4.286   2.133 126.464  0.00  0.00    +0.007 C 
ENDBRANCH  14  28
BRANCH  15  31
ATOM     31  C   LIG A   1      -2.743   5.180 129.672  0.00  0.00    +0.018 C 
BRANCH  31  32
ATOM     32  C   LIG A   1      -2.675   6.524 128.933  0.00  0.00    +0.121 C 
BRANCH  32  33
ATOM     33  C   LIG A   1      -3.280   7.617 129.771  0.00  0.00    +0.305 C 
ATOM     34  O   LIG A   1      -3.039   7.791 130.993  0.00  0.00    -0.251 OA
BRANCH  33  35
ATOM     35  O   LIG A   1      -4.141   8.417 129.132  0.00  0.00    -0.481 OA
ATOM     36  H   LIG A   1      -4.519   7.868 128.432  0.00  0.00    +0.295 HD
ENDBRANCH  33  35
ENDBRANCH  32  33
ENDBRANCH  31  32
ENDBRANCH  15  31
TORSDOF 8
ENDMDL
MODEL 7
REMARK VINA RESULT:      -8.2      4.377      7.664
REMARK  Name = NuBBE_1199
REMARK  15 active torsions:
REMARK  status: ('A' for Active; 'I' for Inactive)
REMARK    1  A    between atoms: C_1  and  C_2
REMARK    2  A    between atoms: C_2  and  C_12
REMARK    3  A    between atoms: C_4  and  C_6
REMARK    4  A    between atoms: C_6  and  C_7
REMARK    5  A    between atoms: C_6  and  O_8
REMARK    6  A    between atoms: C_6  and  C_9
REMARK    7  A    between atoms: C_16  and  C_17
REMARK    8  A    between atoms: C_18  and  C_23
REMARK    9  A    between atoms: C_26  and  C_34
REMARK   10  A    between atoms: C_27  and  C_28
REMARK   11  A    between atoms: C_27  and  C_29
REMARK   12  A    between atoms: C_29  and  C_30
REMARK   13  A    between atoms: C_30  and  C_31
REMARK   14  A    between atoms: C_31  and  O_32
REMARK   15  A    between atoms: C_34  and  C_35
REMARK                            x       y       z     vdW  Elec       q    Type
REMARK                         _______ _______ _______ _____ _____    ______ ____
ROOT
ATOM      1  C   LIG A   1      -5.916   3.842 129.311  0.00  0.00    +0.024 C 
ATOM      2  C   LIG A   1      -4.821   2.964 129.963  0.00  0.00    +0.007 C 
ATOM      3  C   LIG A   1      -4.044   2.204 128.866  0.00  0.00    +0.008 C 
ATOM      4  C   LIG A   1      -4.762   2.414 127.508  0.00  0.00    -0.023 C 
ATOM      5  C   LIG A   1      -3.670   2.704 126.440  0.00  0.00    +0.012 C 
ATOM      6  C   LIG A   1      -5.710   1.186 127.005  0.00  0.00    -0.023 C 
ATOM      7  C   LIG A   1      -6.797   1.722 125.999  0.00  0.00    +0.002 C 
ATOM      8  C   LIG A   1      -7.492   2.995 126.485  0.00  0.00    +0.005 C 
ATOM      9  C   LIG A   1      -6.533   4.129 126.756  0.00  0.00    +0.005 C 
ATOM     10  C   LIG A   1      -5.519   3.758 127.806  0.00  0.00    +0.001 C 
ATOM     11  C   LIG A   1      -6.233   0.400 128.221  0.00  0.00    +0.012 C 
ATOM     12  C   LIG A   1      -4.975   0.113 126.139  0.00  0.00    +0.008 C 
ATOM     13  C   LIG A   1      -5.870  -1.099 125.827  0.00  0.00    +0.009 C 
ATOM     14  C   LIG A   1      -7.254  -0.798 125.198  0.00  0.00    +0.020 C 
ATOM     15  C   LIG A   1      -7.839   0.678 125.383  0.00  0.00    -0.022 C 
ATOM     16  C   LIG A   1      -9.163   0.682 126.215  0.00  0.00    +0.012 C 
ENDROOT
BRANCH   1  18
ATOM     17  C   LIG A   1      -8.087   2.364 129.483  0.00  0.00    +0.042 C 
ATOM     18  C   LIG A   1      -7.374   3.665 129.913  0.00  0.00    +0.070 C 
ATOM     19  O   LIG A   1      -7.399   3.686 131.352  0.00  0.00    -0.367 OA
ATOM     20  C   LIG A   1      -8.362   4.661 131.824  0.00  0.00    +0.150 C 
ATOM     21  C   LIG A   1      -9.267   4.956 130.644  0.00  0.00    +0.037 C 
ATOM     22  C   LIG A   1      -8.302   4.828 129.485  0.00  0.00    +0.037 C 
BRANCH  20  23
ATOM     23  C   LIG A   1      -9.052   4.154 133.115  0.00  0.00    +0.086 C 
ATOM     24  C   LIG A   1      -8.256   4.463 134.387  0.00  0.00    +0.043 C 
ATOM     25  C   LIG A   1      -9.379   2.665 133.033  0.00  0.00    +0.043 C 
BRANCH  23  26
ATOM     26  O   LIG A   1     -10.308   4.838 133.241  0.00  0.00    -0.387 OA
ATOM     27  H   LIG A   1     -10.282   5.246 134.125  0.00  0.00    +0.210 HD
ENDBRANCH  23  26
ENDBRANCH  20  23
ENDBRANCH   1  18
BRANCH  14  28
ATOM     28  C   LIG A   1      -8.224  -1.983 125.416  0.00  0.00    -0.076 C 
ATOM     29  C   LIG A   1      -8.298  -2.575 126.803  0.00  0.00    +0.038 C 
ATOM     30  C   LIG A   1      -9.061  -2.467 124.478  0.00  0.00    +0.007 C 
ENDBRANCH  14  28
BRANCH  15  31
ATOM     31  C   LIG A   1      -8.298   1.220 123.954  0.00  0.00    +0.018 C 
BRANCH  31  32
ATOM     32  C   LIG A   1      -7.178   1.672 123.007  0.00  0.00    +0.121 C 
BRANCH  32  33
ATOM     33  C   LIG A   1      -7.257   3.156 122.768  0.00  0.00    +0.305 C 
ATOM     34  O   LIG A   1      -6.304   3.956 122.947  0.00  0.00    -0.251 OA
BRANCH  33  35
ATOM     35  O   LIG A   1      -8.448   3.606 122.359  0.00  0.00    -0.481 OA
ATOM     36  H   LIG A   1      -8.254   4.171 121.600  0.00  0.00    +0.295 HD
ENDBRANCH  33  35
ENDBRANCH  32  33
ENDBRANCH  31  32
ENDBRANCH  15  31
TORSDOF 8
ENDMDL
MODEL 8
REMARK VINA RESULT:      -8.2      5.127      7.889
REMARK  Name = NuBBE_1199
REMARK  15 active torsions:
REMARK  status: ('A' for Active; 'I' for Inactive)
REMARK    1  A    between atoms: C_1  and  C_2
REMARK    2  A    between atoms: C_2  and  C_12
REMARK    3  A    between atoms: C_4  and  C_6
REMARK    4  A    between atoms: C_6  and  C_7
REMARK    5  A    between atoms: C_6  and  O_8
REMARK    6  A    between atoms: C_6  and  C_9
REMARK    7  A    between atoms: C_16  and  C_17
REMARK    8  A    between atoms: C_18  and  C_23
REMARK    9  A    between atoms: C_26  and  C_34
REMARK   10  A    between atoms: C_27  and  C_28
REMARK   11  A    between atoms: C_27  and  C_29
REMARK   12  A    between atoms: C_29  and  C_30
REMARK   13  A    between atoms: C_30  and  C_31
REMARK   14  A    between atoms: C_31  and  O_32
REMARK   15  A    between atoms: C_34  and  C_35
REMARK                            x       y       z     vdW  Elec       q    Type
REMARK                         _______ _______ _______ _____ _____    ______ ____
ROOT
ATOM      1  C   LIG A   1      -7.103   2.183 124.765  0.00  0.00    +0.024 C 
ATOM      2  C   LIG A   1      -7.592   3.601 125.148  0.00  0.00    +0.007 C 
ATOM      3  C   LIG A   1      -6.831   4.093 126.398  0.00  0.00    +0.008 C 
ATOM      4  C   LIG A   1      -5.995   2.918 126.969  0.00  0.00    -0.023 C 
ATOM      5  C   LIG A   1      -4.591   3.477 127.335  0.00  0.00    +0.012 C 
ATOM      6  C   LIG A   1      -6.633   2.148 128.257  0.00  0.00    -0.023 C 
ATOM      7  C   LIG A   1      -6.048   0.689 128.356  0.00  0.00    +0.002 C 
ATOM      8  C   LIG A   1      -6.051  -0.054 127.019  0.00  0.00    +0.005 C 
ATOM      9  C   LIG A   1      -5.282   0.667 125.938  0.00  0.00    +0.005 C 
ATOM     10  C   LIG A   1      -5.846   2.038 125.676  0.00  0.00    +0.001 C 
ATOM     11  C   LIG A   1      -8.167   2.268 128.229  0.00  0.00    +0.012 C 
ATOM     12  C   LIG A   1      -6.224   2.751 129.640  0.00  0.00    +0.008 C 
ATOM     13  C   LIG A   1      -6.976   2.092 130.809  0.00  0.00    +0.009 C 
ATOM     14  C   LIG A   1      -6.917   0.545 130.891  0.00  0.00    +0.020 C 
ATOM     15  C   LIG A   1      -6.545  -0.246 129.553  0.00  0.00    -0.022 C 
ATOM     16  C   LIG A   1      -7.716  -1.164 129.071  0.00  0.00    +0.012 C 
ENDROOT
BRANCH   1  18
ATOM     17  C   LIG A   1      -9.372   1.542 123.594  0.00  0.00    +0.042 C 
ATOM     18  C   LIG A   1      -8.248   1.104 124.560  0.00  0.00    +0.070 C 
ATOM     19  O   LIG A   1      -7.757  -0.156 124.066  0.00  0.00    -0.367 OA
ATOM     20  C   LIG A   1      -8.211  -1.239 124.916  0.00  0.00    +0.150 C 
ATOM     21  C   LIG A   1      -9.368  -0.681 125.720  0.00  0.00    +0.037 C 
ATOM     22  C   LIG A   1      -8.941   0.760 125.901  0.00  0.00    +0.037 C 
BRANCH  20  23
ATOM     23  C   LIG A   1      -8.504  -2.502 124.066  0.00  0.00    +0.086 C 
ATOM     24  C   LIG A   1      -7.643  -3.707 124.456  0.00  0.00    +0.043 C 
ATOM     25  C   LIG A   1      -8.386  -2.216 122.571  0.00  0.00    +0.043 C 
BRANCH  23  26
ATOM     26  O   LIG A   1      -9.870  -2.881 124.298  0.00  0.00    -0.387 OA
ATOM     27  H   LIG A   1     -10.398  -2.167 123.897  0.00  0.00    +0.210 HD
ENDBRANCH  23  26
ENDBRANCH  20  23
ENDBRANCH   1  18
BRANCH  14  28
ATOM     28  C   LIG A   1      -8.087  -0.003 131.743  0.00  0.00    -0.076 C 
ATOM     29  C   LIG A   1      -7.803  -1.185 132.637  0.00  0.00    +0.038 C 
ATOM     30  C   LIG A   1      -9.313   0.552 131.801  0.00  0.00    +0.007 C 
ENDBRANCH  14  28
BRANCH  15  31
ATOM     31  C   LIG A   1      -5.379  -1.283 129.890  0.00  0.00    +0.018 C 
BRANCH  31  32
ATOM     32  C   LIG A   1      -4.069  -0.682 130.419  0.00  0.00    +0.121 C 
BRANCH  32  33
ATOM     33  C   LIG A   1      -3.070  -1.770 130.709  0.00  0.00    +0.305 C 
ATOM     34  O   LIG A   1      -2.659  -2.069 131.859  0.00  0.00    -0.251 OA
BRANCH  33  35
ATOM     35  O   LIG A   1      -2.605  -2.419 129.636  0.00  0.00    -0.481 OA
ATOM     36  H   LIG A   1      -3.389  -2.632 129.114  0.00  0.00    +0.295 HD
ENDBRANCH  33  35
ENDBRANCH  32  33
ENDBRANCH  31  32
ENDBRANCH  15  31
TORSDOF 8
ENDMDL
MODEL 9
REMARK VINA RESULT:      -8.2      2.013      2.748
REMARK  Name = NuBBE_1199
REMARK  15 active torsions:
REMARK  status: ('A' for Active; 'I' for Inactive)
REMARK    1  A    between atoms: C_1  and  C_2
REMARK    2  A    between atoms: C_2  and  C_12
REMARK    3  A    between atoms: C_4  and  C_6
REMARK    4  A    between atoms: C_6  and  C_7
REMARK    5  A    between atoms: C_6  and  O_8
REMARK    6  A    between atoms: C_6  and  C_9
REMARK    7  A    between atoms: C_16  and  C_17
REMARK    8  A    between atoms: C_18  and  C_23
REMARK    9  A    between atoms: C_26  and  C_34
REMARK   10  A    between atoms: C_27  and  C_28
REMARK   11  A    between atoms: C_27  and  C_29
REMARK   12  A    between atoms: C_29  and  C_30
REMARK   13  A    between atoms: C_30  and  C_31
REMARK   14  A    between atoms: C_31  and  O_32
REMARK   15  A    between atoms: C_34  and  C_35
REMARK                            x       y       z     vdW  Elec       q    Type
REMARK                         _______ _______ _______ _____ _____    ______ ____
ROOT
ATOM      1  C   LIG A   1      -9.962   3.389 130.794  0.00  0.00    +0.024 C 
ATOM      2  C   LIG A   1      -9.405   2.533 129.631  0.00  0.00    +0.007 C 
ATOM      3  C   LIG A   1      -8.334   1.559 130.170  0.00  0.00    +0.008 C 
ATOM      4  C   LIG A   1      -8.030   1.919 131.648  0.00  0.00    -0.023 C 
ATOM      5  C   LIG A   1      -7.962   0.587 132.449  0.00  0.00    +0.012 C 
ATOM      6  C   LIG A   1      -6.674   2.786 131.907  0.00  0.00    -0.023 C 
ATOM      7  C   LIG A   1      -6.787   3.568 133.269  0.00  0.00    +0.002 C 
ATOM      8  C   LIG A   1      -8.126   4.287 133.442  0.00  0.00    +0.005 C 
ATOM      9  C   LIG A   1      -9.313   3.358 133.357  0.00  0.00    +0.005 C 
ATOM     10  C   LIG A   1      -9.368   2.648 132.031  0.00  0.00    +0.001 C 
ATOM     11  C   LIG A   1      -6.348   3.628 130.661  0.00  0.00    +0.012 C 
ATOM     12  C   LIG A   1      -5.389   1.926 132.138  0.00  0.00    +0.008 C 
ATOM     13  C   LIG A   1      -4.117   2.787 132.216  0.00  0.00    +0.009 C 
ATOM     14  C   LIG A   1      -4.132   3.961 133.229  0.00  0.00    +0.020 C 
ATOM     15  C   LIG A   1      -5.560   4.489 133.718  0.00  0.00    -0.022 C 
ATOM     16  C   LIG A   1      -5.812   5.972 133.290  0.00  0.00    +0.012 C 
ENDROOT
BRANCH   1  18
ATOM     17  C   LIG A   1      -8.553   5.590 130.485  0.00  0.00    +0.042 C 
ATOM     18  C   LIG A   1      -9.961   4.956 130.544  0.00  0.00    +0.070 C 
ATOM     19  O   LIG A   1     -10.628   5.336 129.327  0.00  0.00    -0.367 OA
ATOM     20  C   LIG A   1     -11.630   6.348 129.598  0.00  0.00    +0.150 C 
ATOM     21  C   LIG A   1     -11.286   6.919 130.958  0.00  0.00    +0.037 C 
ATOM     22  C   LIG A   1     -10.725   5.704 131.663  0.00  0.00    +0.037 C 
BRANCH  20  23
ATOM     23  C   LIG A   1     -11.709   7.355 128.423  0.00  0.00    +0.086 C 
ATOM     24  C   LIG A   1     -10.510   8.305 128.359  0.00  0.00    +0.043 C 
ATOM     25  C   LIG A   1     -13.018   8.139 128.439  0.00  0.00    +0.043 C 
BRANCH  23  26
ATOM     26  O   LIG A   1     -11.703   6.604 127.199  0.00  0.00    -0.387 OA
ATOM     27  H   LIG A   1     -10.874   6.860 126.755  0.00  0.00    +0.210 HD
ENDBRANCH  23  26
ENDBRANCH  20  23
ENDBRANCH   1  18
BRANCH  14  28
ATOM     28  C   LIG A   1      -3.068   5.020 132.855  0.00  0.00    -0.076 C 
ATOM     29  C   LIG A   1      -2.891   5.341 131.391  0.00  0.00    +0.038 C 
ATOM     30  C   LIG A   1      -2.352   5.729 133.748  0.00  0.00    +0.007 C 
ENDBRANCH  14  28
BRANCH  15  31
ATOM     31  C   LIG A   1      -5.550   4.561 135.312  0.00  0.00    +0.018 C 
BRANCH  31  32
ATOM     32  C   LIG A   1      -5.720   5.957 135.929  0.00  0.00    +0.121 C 
BRANCH  32  33
ATOM     33  C   LIG A   1      -6.865   5.965 136.905  0.00  0.00    +0.305 C 
ATOM     34  O   LIG A   1      -6.737   5.845 138.151  0.00  0.00    -0.251 OA
BRANCH  33  35
ATOM     35  O   LIG A   1      -8.080   6.088 136.360  0.00  0.00    -0.481 OA
ATOM     36  H   LIG A   1      -8.657   5.543 136.911  0.00  0.00    +0.295 HD
ENDBRANCH  33  35
ENDBRANCH  32  33
ENDBRANCH  31  32
ENDBRANCH  15  31
TORSDOF 8
ENDMDL
