MODEL 1
REMARK VINA RESULT:      -5.5      0.000      0.000
REMARK  Name = NuBBE_1155
REMARK  14 active torsions:
REMARK  status: ('A' for Active; 'I' for Inactive)
REMARK    1  A    between atoms: C_2  and  O_3
REMARK    2  A    between atoms: C_2  and  C_5
REMARK    3  A    between atoms: O_3  and  C_4
REMARK    4  A    between atoms: C_5  and  C_6
REMARK    5  A    between atoms: C_6  and  C_7
REMARK    6  A    between atoms: C_7  and  C_8
REMARK    7  A    between atoms: C_8  and  C_9
REMARK    8  A    between atoms: C_9  and  C_10
REMARK    9  A    between atoms: C_10  and  C_11
REMARK   10  A    between atoms: C_11  and  C_12
REMARK   11  A    between atoms: C_12  and  C_13
REMARK   12  A    between atoms: C_13  and  C_14
REMARK   13  A    between atoms: C_14  and  C_15
REMARK   14  A    between atoms: C_15  and  C_16
REMARK                            x       y       z     vdW  Elec       q    Type
REMARK                         _______ _______ _______ _____ _____    ______ ____
ROOT
ATOM      1  C   LIG A   1      -7.059  -2.497 128.526  0.00  0.00    -0.000 C 
ENDROOT
BRANCH   1   2
ATOM      2  C   LIG A   1      -7.098  -1.067 129.071  0.00  0.00    -0.000 C 
BRANCH   2   3
ATOM      3  C   LIG A   1      -6.411  -0.104 128.111  0.00  0.00    -0.000 C 
BRANCH   3   4
ATOM      4  C   LIG A   1      -5.896  -0.824 126.863  0.00  0.00    +0.000 C 
BRANCH   4   5
ATOM      5  C   LIG A   1      -6.096   0.006 125.594  0.00  0.00    +0.000 C 
BRANCH   5   6
ATOM      6  C   LIG A   1      -7.478   0.655 125.532  0.00  0.00    +0.011 C 
BRANCH   6   7
ATOM      7  C   LIG A   1      -7.462   1.906 124.673  0.00  0.00    +0.120 C 
BRANCH   7   9
ATOM      8  O   LIG A   1      -9.761   1.925 123.893  0.00  0.00    -0.251 OA
ATOM      9  C   LIG A   1      -8.851   2.473 124.513  0.00  0.00    +0.307 C 
BRANCH   9  10
ATOM     10  O   LIG A   1      -8.925   3.674 125.142  0.00  0.00    -0.468 OA
ATOM     11  C   LIG A   1      -7.674   4.343 125.306  0.00  0.00    +0.280 C 
ENDBRANCH   9  10
ENDBRANCH   7   9
ENDBRANCH   6   7
ENDBRANCH   5   6
ENDBRANCH   4   5
ENDBRANCH   3   4
ENDBRANCH   2   3
ENDBRANCH   1   2
BRANCH   1  12
ATOM     12  C   LIG A   1      -8.295  -3.273 128.978  0.00  0.00    +0.000 C 
BRANCH  12  13
ATOM     13  C   LIG A   1      -9.033  -3.922 127.805  0.00  0.00    +0.000 C 
BRANCH  13  14
ATOM     14  C   LIG A   1      -8.800  -3.136 126.510  0.00  0.00    +0.005 C 
BRANCH  14  15
ATOM     15  C   LIG A   1      -8.386  -4.046 125.347  0.00  0.00    +0.035 C 
BRANCH  15  16
ATOM     16  C   LIG A   1      -7.522  -3.341 124.324  0.00  0.00    -0.047 A 
ATOM     17  C   LIG A   1      -8.083  -2.415 123.433  0.00  0.00    +0.003 A 
ATOM     18  C   LIG A   1      -7.281  -1.729 122.518  0.00  0.00    +0.000 A 
ATOM     19  C   LIG A   1      -5.908  -1.956 122.487  0.00  0.00    +0.000 A 
ATOM     20  C   LIG A   1      -5.337  -2.876 123.365  0.00  0.00    +0.000 A 
ATOM     21  C   LIG A   1      -6.139  -3.565 124.279  0.00  0.00    +0.003 A 
ENDBRANCH  15  16
ENDBRANCH  14  15
ENDBRANCH  13  14
ENDBRANCH  12  13
ENDBRANCH   1  12
TORSDOF 13
ENDMDL
MODEL 2
REMARK VINA RESULT:      -5.3      3.423      5.529
REMARK  Name = NuBBE_1155
REMARK  14 active torsions:
REMARK  status: ('A' for Active; 'I' for Inactive)
REMARK    1  A    between atoms: C_2  and  O_3
REMARK    2  A    between atoms: C_2  and  C_5
REMARK    3  A    between atoms: O_3  and  C_4
REMARK    4  A    between atoms: C_5  and  C_6
REMARK    5  A    between atoms: C_6  and  C_7
REMARK    6  A    between atoms: C_7  and  C_8
REMARK    7  A    between atoms: C_8  and  C_9
REMARK    8  A    between atoms: C_9  and  C_10
REMARK    9  A    between atoms: C_10  and  C_11
REMARK   10  A    between atoms: C_11  and  C_12
REMARK   11  A    between atoms: C_12  and  C_13
REMARK   12  A    between atoms: C_13  and  C_14
REMARK   13  A    between atoms: C_14  and  C_15
REMARK   14  A    between atoms: C_15  and  C_16
REMARK                            x       y       z     vdW  Elec       q    Type
REMARK                         _______ _______ _______ _____ _____    ______ ____
ROOT
ATOM      1  C   LIG A   1      -9.373  -0.527 122.996  0.00  0.00    -0.000 C 
ENDROOT
BRANCH   1   2
ATOM      2  C   LIG A   1      -8.796   0.690 123.725  0.00  0.00    -0.000 C 
BRANCH   2   3
ATOM      3  C   LIG A   1      -7.288   0.773 123.527  0.00  0.00    -0.000 C 
BRANCH   3   4
ATOM      4  C   LIG A   1      -6.789   2.218 123.601  0.00  0.00    +0.000 C 
BRANCH   4   5
ATOM      5  C   LIG A   1      -7.022   2.976 122.293  0.00  0.00    +0.000 C 
BRANCH   5   6
ATOM      6  C   LIG A   1      -5.886   3.948 121.972  0.00  0.00    +0.011 C 
BRANCH   6   7
ATOM      7  C   LIG A   1      -5.538   3.920 120.495  0.00  0.00    +0.120 C 
BRANCH   7   9
ATOM      8  O   LIG A   1      -4.559   6.142 120.499  0.00  0.00    -0.251 OA
ATOM      9  C   LIG A   1      -5.297   5.313 119.967  0.00  0.00    +0.307 C 
BRANCH   9  10
ATOM     10  O   LIG A   1      -6.027   5.503 118.839  0.00  0.00    -0.468 OA
ATOM     11  C   LIG A   1      -7.086   4.565 118.646  0.00  0.00    +0.280 C 
ENDBRANCH   9  10
ENDBRANCH   7   9
ENDBRANCH   6   7
ENDBRANCH   5   6
ENDBRANCH   4   5
ENDBRANCH   3   4
ENDBRANCH   2   3
ENDBRANCH   1   2
BRANCH   1  12
ATOM     12  C   LIG A   1      -8.374  -1.682 123.016  0.00  0.00    +0.000 C 
BRANCH  12  13
ATOM     13  C   LIG A   1      -8.889  -2.880 123.818  0.00  0.00    +0.000 C 
BRANCH  13  14
ATOM     14  C   LIG A   1      -9.229  -2.471 125.255  0.00  0.00    +0.005 C 
BRANCH  14  15
ATOM     15  C   LIG A   1      -8.864  -3.562 126.269  0.00  0.00    +0.035 C 
BRANCH  15  16
ATOM     16  C   LIG A   1      -8.292  -3.006 127.554  0.00  0.00    -0.047 A 
ATOM     17  C   LIG A   1      -7.896  -1.663 127.638  0.00  0.00    +0.003 A 
ATOM     18  C   LIG A   1      -7.410  -1.135 128.836  0.00  0.00    +0.000 A 
ATOM     19  C   LIG A   1      -7.321  -1.942 129.968  0.00  0.00    +0.000 A 
ATOM     20  C   LIG A   1      -7.708  -3.278 129.899  0.00  0.00    +0.000 A 
ATOM     21  C   LIG A   1      -8.191  -3.808 128.699  0.00  0.00    +0.003 A 
ENDBRANCH  15  16
ENDBRANCH  14  15
ENDBRANCH  13  14
ENDBRANCH  12  13
ENDBRANCH   1  12
TORSDOF 13
ENDMDL
MODEL 3
REMARK VINA RESULT:      -5.2      1.504      4.142
REMARK  Name = NuBBE_1155
REMARK  14 active torsions:
REMARK  status: ('A' for Active; 'I' for Inactive)
REMARK    1  A    between atoms: C_2  and  O_3
REMARK    2  A    between atoms: C_2  and  C_5
REMARK    3  A    between atoms: O_3  and  C_4
REMARK    4  A    between atoms: C_5  and  C_6
REMARK    5  A    between atoms: C_6  and  C_7
REMARK    6  A    between atoms: C_7  and  C_8
REMARK    7  A    between atoms: C_8  and  C_9
REMARK    8  A    between atoms: C_9  and  C_10
REMARK    9  A    between atoms: C_10  and  C_11
REMARK   10  A    between atoms: C_11  and  C_12
REMARK   11  A    between atoms: C_12  and  C_13
REMARK   12  A    between atoms: C_13  and  C_14
REMARK   13  A    between atoms: C_14  and  C_15
REMARK   14  A    between atoms: C_15  and  C_16
REMARK                            x       y       z     vdW  Elec       q    Type
REMARK                         _______ _______ _______ _____ _____    ______ ____
ROOT
ATOM      1  C   LIG A   1      -7.699  -3.103 124.148  0.00  0.00    -0.000 C 
ENDROOT
BRANCH   1   2
ATOM      2  C   LIG A   1      -6.287  -3.023 124.734  0.00  0.00    -0.000 C 
BRANCH   2   3
ATOM      3  C   LIG A   1      -5.627  -1.698 124.374  0.00  0.00    -0.000 C 
BRANCH   3   4
ATOM      4  C   LIG A   1      -5.670  -0.711 125.544  0.00  0.00    +0.000 C 
BRANCH   4   5
ATOM      5  C   LIG A   1      -6.352   0.604 125.164  0.00  0.00    +0.000 C 
BRANCH   5   6
ATOM      6  C   LIG A   1      -7.856   0.439 124.947  0.00  0.00    +0.011 C 
BRANCH   6   7
ATOM      7  C   LIG A   1      -8.630   1.598 125.550  0.00  0.00    +0.120 C 
BRANCH   7   9
ATOM      8  O   LIG A   1      -9.140   2.436 123.329  0.00  0.00    -0.251 OA
ATOM      9  C   LIG A   1      -8.909   2.661 124.517  0.00  0.00    +0.307 C 
BRANCH   9  10
ATOM     10  O   LIG A   1      -8.849   3.886 125.099  0.00  0.00    -0.468 OA
ATOM     11  C   LIG A   1      -7.618   4.174 125.762  0.00  0.00    +0.280 C 
ENDBRANCH   9  10
ENDBRANCH   7   9
ENDBRANCH   6   7
ENDBRANCH   5   6
ENDBRANCH   4   5
ENDBRANCH   3   4
ENDBRANCH   2   3
ENDBRANCH   1   2
BRANCH   1  12
ATOM     12  C   LIG A   1      -8.661  -3.720 125.161  0.00  0.00    +0.000 C 
BRANCH  12  13
ATOM     13  C   LIG A   1      -8.807  -2.861 126.420  0.00  0.00    +0.000 C 
BRANCH  13  14
ATOM     14  C   LIG A   1      -8.747  -3.727 127.683  0.00  0.00    +0.005 C 
BRANCH  14  15
ATOM     15  C   LIG A   1      -8.248  -2.940 128.901  0.00  0.00    +0.035 C 
BRANCH  15  16
ATOM     16  C   LIG A   1      -6.793  -3.207 129.221  0.00  0.00    -0.047 A 
ATOM     17  C   LIG A   1      -6.438  -4.134 130.211  0.00  0.00    +0.003 A 
ATOM     18  C   LIG A   1      -5.097  -4.416 130.477  0.00  0.00    +0.000 A 
ATOM     19  C   LIG A   1      -4.093  -3.779 129.751  0.00  0.00    +0.000 A 
ATOM     20  C   LIG A   1      -4.431  -2.854 128.766  0.00  0.00    +0.000 A 
ATOM     21  C   LIG A   1      -5.774  -2.568 128.502  0.00  0.00    +0.003 A 
ENDBRANCH  15  16
ENDBRANCH  14  15
ENDBRANCH  13  14
ENDBRANCH  12  13
ENDBRANCH   1  12
TORSDOF 13
ENDMDL
MODEL 4
REMARK VINA RESULT:      -5.2      3.849      6.499
REMARK  Name = NuBBE_1155
REMARK  14 active torsions:
REMARK  status: ('A' for Active; 'I' for Inactive)
REMARK    1  A    between atoms: C_2  and  O_3
REMARK    2  A    between atoms: C_2  and  C_5
REMARK    3  A    between atoms: O_3  and  C_4
REMARK    4  A    between atoms: C_5  and  C_6
REMARK    5  A    between atoms: C_6  and  C_7
REMARK    6  A    between atoms: C_7  and  C_8
REMARK    7  A    between atoms: C_8  and  C_9
REMARK    8  A    between atoms: C_9  and  C_10
REMARK    9  A    between atoms: C_10  and  C_11
REMARK   10  A    between atoms: C_11  and  C_12
REMARK   11  A    between atoms: C_12  and  C_13
REMARK   12  A    between atoms: C_13  and  C_14
REMARK   13  A    between atoms: C_14  and  C_15
REMARK   14  A    between atoms: C_15  and  C_16
REMARK                            x       y       z     vdW  Elec       q    Type
REMARK                         _______ _______ _______ _____ _____    ______ ____
ROOT
ATOM      1  C   LIG A   1      -8.503  -3.599 124.949  0.00  0.00    -0.000 C 
ENDROOT
BRANCH   1   2
ATOM      2  C   LIG A   1      -9.084  -2.921 126.192  0.00  0.00    -0.000 C 
BRANCH   2   3
ATOM      3  C   LIG A   1      -8.775  -3.732 127.444  0.00  0.00    -0.000 C 
BRANCH   3   4
ATOM      4  C   LIG A   1      -8.137  -2.867 128.533  0.00  0.00    +0.000 C 
BRANCH   4   5
ATOM      5  C   LIG A   1      -7.316  -3.696 129.522  0.00  0.00    +0.000 C 
BRANCH   5   6
ATOM      6  C   LIG A   1      -5.852  -3.260 129.575  0.00  0.00    +0.011 C 
BRANCH   6   7
ATOM      7  C   LIG A   1      -5.074  -4.069 130.597  0.00  0.00    +0.120 C 
BRANCH   7   9
ATOM      8  O   LIG A   1      -2.994  -3.114 129.785  0.00  0.00    -0.251 OA
ATOM      9  C   LIG A   1      -3.655  -3.569 130.718  0.00  0.00    +0.307 C 
BRANCH   9  10
ATOM     10  O   LIG A   1      -3.230  -3.714 131.999  0.00  0.00    -0.468 OA
ATOM     11  C   LIG A   1      -4.244  -3.536 132.989  0.00  0.00    +0.280 C 
ENDBRANCH   9  10
ENDBRANCH   7   9
ENDBRANCH   6   7
ENDBRANCH   5   6
ENDBRANCH   4   5
ENDBRANCH   3   4
ENDBRANCH   2   3
ENDBRANCH   1   2
BRANCH   1  12
ATOM     12  C   LIG A   1      -9.404  -3.355 123.739  0.00  0.00    +0.000 C 
BRANCH  12  13
ATOM     13  C   LIG A   1      -8.881  -2.229 122.844  0.00  0.00    +0.000 C 
BRANCH  13  14
ATOM     14  C   LIG A   1      -7.354  -2.133 122.921  0.00  0.00    +0.005 C 
BRANCH  14  15
ATOM     15  C   LIG A   1      -6.879  -0.717 123.269  0.00  0.00    +0.035 C 
BRANCH  15  16
ATOM     16  C   LIG A   1      -6.670  -0.513 124.754  0.00  0.00    -0.047 A 
ATOM     17  C   LIG A   1      -5.644  -1.188 125.431  0.00  0.00    +0.003 A 
ATOM     18  C   LIG A   1      -5.420  -0.967 126.791  0.00  0.00    +0.000 A 
ATOM     19  C   LIG A   1      -6.216  -0.064 127.491  0.00  0.00    +0.000 A 
ATOM     20  C   LIG A   1      -7.241   0.612 126.832  0.00  0.00    +0.000 A 
ATOM     21  C   LIG A   1      -7.468   0.389 125.471  0.00  0.00    +0.003 A 
ENDBRANCH  15  16
ENDBRANCH  14  15
ENDBRANCH  13  14
ENDBRANCH  12  13
ENDBRANCH   1  12
TORSDOF 13
ENDMDL
MODEL 5
REMARK VINA RESULT:      -5.1      2.870      5.711
REMARK  Name = NuBBE_1155
REMARK  14 active torsions:
REMARK  status: ('A' for Active; 'I' for Inactive)
REMARK    1  A    between atoms: C_2  and  O_3
REMARK    2  A    between atoms: C_2  and  C_5
REMARK    3  A    between atoms: O_3  and  C_4
REMARK    4  A    between atoms: C_5  and  C_6
REMARK    5  A    between atoms: C_6  and  C_7
REMARK    6  A    between atoms: C_7  and  C_8
REMARK    7  A    between atoms: C_8  and  C_9
REMARK    8  A    between atoms: C_9  and  C_10
REMARK    9  A    between atoms: C_10  and  C_11
REMARK   10  A    between atoms: C_11  and  C_12
REMARK   11  A    between atoms: C_12  and  C_13
REMARK   12  A    between atoms: C_13  and  C_14
REMARK   13  A    between atoms: C_14  and  C_15
REMARK   14  A    between atoms: C_15  and  C_16
REMARK                            x       y       z     vdW  Elec       q    Type
REMARK                         _______ _______ _______ _____ _____    ______ ____
ROOT
ATOM      1  C   LIG A   1      -6.391  -3.120 123.966  0.00  0.00    -0.000 C 
ENDROOT
BRANCH   1   2
ATOM      2  C   LIG A   1      -7.795  -2.524 123.829  0.00  0.00    -0.000 C 
BRANCH   2   3
ATOM      3  C   LIG A   1      -8.831  -3.426 124.486  0.00  0.00    -0.000 C 
BRANCH   3   4
ATOM      4  C   LIG A   1      -9.349  -2.829 125.797  0.00  0.00    +0.000 C 
BRANCH   4   5
ATOM      5  C   LIG A   1      -8.930  -3.658 127.013  0.00  0.00    +0.000 C 
BRANCH   5   6
ATOM      6  C   LIG A   1      -8.368  -2.794 128.142  0.00  0.00    +0.011 C 
BRANCH   6   7
ATOM      7  C   LIG A   1      -7.608  -3.635 129.153  0.00  0.00    +0.120 C 
BRANCH   7   9
ATOM      8  O   LIG A   1      -7.330  -2.754 131.398  0.00  0.00    -0.251 OA
ATOM      9  C   LIG A   1      -6.983  -2.768 130.218  0.00  0.00    +0.307 C 
BRANCH   9  10
ATOM     10  O   LIG A   1      -6.001  -2.010 129.667  0.00  0.00    -0.468 OA
ATOM     11  C   LIG A   1      -5.942  -0.666 130.147  0.00  0.00    +0.280 C 
ENDBRANCH   9  10
ENDBRANCH   7   9
ENDBRANCH   6   7
ENDBRANCH   5   6
ENDBRANCH   4   5
ENDBRANCH   3   4
ENDBRANCH   2   3
ENDBRANCH   1   2
BRANCH   1  12
ATOM     12  C   LIG A   1      -5.411  -2.066 124.476  0.00  0.00    +0.000 C 
BRANCH  12  13
ATOM     13  C   LIG A   1      -5.613  -1.758 125.962  0.00  0.00    +0.000 C 
BRANCH  13  14
ATOM     14  C   LIG A   1      -5.659  -0.246 126.207  0.00  0.00    +0.005 C 
BRANCH  14  15
ATOM     15  C   LIG A   1      -7.049   0.226 126.651  0.00  0.00    +0.035 C 
BRANCH  15  16
ATOM     16  C   LIG A   1      -7.888   0.750 125.506  0.00  0.00    -0.047 A 
ATOM     17  C   LIG A   1      -7.283   1.175 124.313  0.00  0.00    +0.003 A 
ATOM     18  C   LIG A   1      -8.058   1.616 123.238  0.00  0.00    +0.000 A 
ATOM     19  C   LIG A   1      -9.446   1.633 123.340  0.00  0.00    +0.000 A 
ATOM     20  C   LIG A   1     -10.060   1.217 124.519  0.00  0.00    +0.000 A 
ATOM     21  C   LIG A   1      -9.286   0.778 125.597  0.00  0.00    +0.003 A 
ENDBRANCH  15  16
ENDBRANCH  14  15
ENDBRANCH  13  14
ENDBRANCH  12  13
ENDBRANCH   1  12
TORSDOF 13
ENDMDL
MODEL 6
REMARK VINA RESULT:      -5.1      1.325      1.756
REMARK  Name = NuBBE_1155
REMARK  14 active torsions:
REMARK  status: ('A' for Active; 'I' for Inactive)
REMARK    1  A    between atoms: C_2  and  O_3
REMARK    2  A    between atoms: C_2  and  C_5
REMARK    3  A    between atoms: O_3  and  C_4
REMARK    4  A    between atoms: C_5  and  C_6
REMARK    5  A    between atoms: C_6  and  C_7
REMARK    6  A    between atoms: C_7  and  C_8
REMARK    7  A    between atoms: C_8  and  C_9
REMARK    8  A    between atoms: C_9  and  C_10
REMARK    9  A    between atoms: C_10  and  C_11
REMARK   10  A    between atoms: C_11  and  C_12
REMARK   11  A    between atoms: C_12  and  C_13
REMARK   12  A    between atoms: C_13  and  C_14
REMARK   13  A    between atoms: C_14  and  C_15
REMARK   14  A    between atoms: C_15  and  C_16
REMARK                            x       y       z     vdW  Elec       q    Type
REMARK                         _______ _______ _______ _____ _____    ______ ____
ROOT
ATOM      1  C   LIG A   1      -7.127  -1.570 129.715  0.00  0.00    -0.000 C 
ENDROOT
BRANCH   1   2
ATOM      2  C   LIG A   1      -8.039  -0.425 130.161  0.00  0.00    -0.000 C 
BRANCH   2   3
ATOM      3  C   LIG A   1      -7.823   0.808 129.294  0.00  0.00    -0.000 C 
BRANCH   3   4
ATOM      4  C   LIG A   1      -7.660   0.437 127.818  0.00  0.00    +0.000 C 
BRANCH   4   5
ATOM      5  C   LIG A   1      -8.876   0.842 126.983  0.00  0.00    +0.000 C 
BRANCH   5   6
ATOM      6  C   LIG A   1      -8.610   0.751 125.481  0.00  0.00    +0.011 C 
BRANCH   6   7
ATOM      7  C   LIG A   1      -7.510   1.709 125.058  0.00  0.00    +0.120 C 
BRANCH   7   9
ATOM      8  O   LIG A   1      -8.880   3.713 125.037  0.00  0.00    -0.251 OA
ATOM      9  C   LIG A   1      -8.088   2.969 124.461  0.00  0.00    +0.307 C 
BRANCH   9  10
ATOM     10  O   LIG A   1      -7.610   3.134 123.201  0.00  0.00    -0.468 OA
ATOM     11  C   LIG A   1      -8.594   3.037 122.171  0.00  0.00    +0.280 C 
ENDBRANCH   9  10
ENDBRANCH   7   9
ENDBRANCH   6   7
ENDBRANCH   5   6
ENDBRANCH   4   5
ENDBRANCH   3   4
ENDBRANCH   2   3
ENDBRANCH   1   2
BRANCH   1  12
ATOM     12  C   LIG A   1      -7.792  -2.918 129.986  0.00  0.00    +0.000 C 
BRANCH  12  13
ATOM     13  C   LIG A   1      -8.582  -3.429 128.778  0.00  0.00    +0.000 C 
BRANCH  13  14
ATOM     14  C   LIG A   1      -7.852  -3.104 127.470  0.00  0.00    +0.005 C 
BRANCH  14  15
ATOM     15  C   LIG A   1      -8.753  -3.290 126.243  0.00  0.00    +0.035 C 
BRANCH  15  16
ATOM     16  C   LIG A   1      -8.112  -2.803 124.962  0.00  0.00    -0.047 A 
ATOM     17  C   LIG A   1      -8.877  -2.642 123.797  0.00  0.00    +0.003 A 
ATOM     18  C   LIG A   1      -8.298  -2.150 122.625  0.00  0.00    +0.000 A 
ATOM     19  C   LIG A   1      -6.949  -1.807 122.605  0.00  0.00    +0.000 A 
ATOM     20  C   LIG A   1      -6.177  -1.964 123.754  0.00  0.00    +0.000 A 
ATOM     21  C   LIG A   1      -6.754  -2.459 124.926  0.00  0.00    +0.003 A 
ENDBRANCH  15  16
ENDBRANCH  14  15
ENDBRANCH  13  14
ENDBRANCH  12  13
ENDBRANCH   1  12
TORSDOF 13
ENDMDL
MODEL 7
REMARK VINA RESULT:      -5.1      2.699      4.785
REMARK  Name = NuBBE_1155
REMARK  14 active torsions:
REMARK  status: ('A' for Active; 'I' for Inactive)
REMARK    1  A    between atoms: C_2  and  O_3
REMARK    2  A    between atoms: C_2  and  C_5
REMARK    3  A    between atoms: O_3  and  C_4
REMARK    4  A    between atoms: C_5  and  C_6
REMARK    5  A    between atoms: C_6  and  C_7
REMARK    6  A    between atoms: C_7  and  C_8
REMARK    7  A    between atoms: C_8  and  C_9
REMARK    8  A    between atoms: C_9  and  C_10
REMARK    9  A    between atoms: C_10  and  C_11
REMARK   10  A    between atoms: C_11  and  C_12
REMARK   11  A    between atoms: C_12  and  C_13
REMARK   12  A    between atoms: C_13  and  C_14
REMARK   13  A    between atoms: C_14  and  C_15
REMARK   14  A    between atoms: C_15  and  C_16
REMARK                            x       y       z     vdW  Elec       q    Type
REMARK                         _______ _______ _______ _____ _____    ______ ____
ROOT
ATOM      1  C   LIG A   1      -8.171   0.927 125.816  0.00  0.00    -0.000 C 
ENDROOT
BRANCH   1   2
ATOM      2  C   LIG A   1      -6.899   1.017 124.968  0.00  0.00    -0.000 C 
BRANCH   2   3
ATOM      3  C   LIG A   1      -5.660   0.802 125.827  0.00  0.00    -0.000 C 
BRANCH   3   4
ATOM      4  C   LIG A   1      -5.401  -0.684 126.082  0.00  0.00    +0.000 C 
BRANCH   4   5
ATOM      5  C   LIG A   1      -5.688  -1.080 127.532  0.00  0.00    +0.000 C 
BRANCH   5   6
ATOM      6  C   LIG A   1      -6.469  -2.390 127.636  0.00  0.00    +0.011 C 
BRANCH   6   7
ATOM      7  C   LIG A   1      -7.877  -2.152 128.152  0.00  0.00    +0.120 C 
BRANCH   7   9
ATOM      8  O   LIG A   1      -8.162  -1.028 130.285  0.00  0.00    -0.251 OA
ATOM      9  C   LIG A   1      -7.893  -2.051 129.658  0.00  0.00    +0.307 C 
BRANCH   9  10
ATOM     10  O   LIG A   1      -7.552  -3.250 130.196  0.00  0.00    -0.468 OA
ATOM     11  C   LIG A   1      -6.850  -3.171 131.436  0.00  0.00    +0.280 C 
ENDBRANCH   9  10
ENDBRANCH   7   9
ENDBRANCH   6   7
ENDBRANCH   5   6
ENDBRANCH   4   5
ENDBRANCH   3   4
ENDBRANCH   2   3
ENDBRANCH   1   2
BRANCH   1  12
ATOM     12  C   LIG A   1      -9.203   0.031 125.134  0.00  0.00    +0.000 C 
BRANCH  12  13
ATOM     13  C   LIG A   1      -9.344   0.339 123.642  0.00  0.00    +0.000 C 
BRANCH  13  14
ATOM     14  C   LIG A   1      -9.338  -0.951 122.814  0.00  0.00    +0.005 C 
BRANCH  14  15
ATOM     15  C   LIG A   1      -8.996  -2.182 123.662  0.00  0.00    +0.035 C 
BRANCH  15  16
ATOM     16  C   LIG A   1      -7.532  -2.558 123.594  0.00  0.00    -0.047 A 
ATOM     17  C   LIG A   1      -7.028  -3.612 124.370  0.00  0.00    +0.003 A 
ATOM     18  C   LIG A   1      -5.688  -3.991 124.275  0.00  0.00    +0.000 A 
ATOM     19  C   LIG A   1      -4.836  -3.325 123.398  0.00  0.00    +0.000 A 
ATOM     20  C   LIG A   1      -5.322  -2.274 122.623  0.00  0.00    +0.000 A 
ATOM     21  C   LIG A   1      -6.663  -1.892 122.719  0.00  0.00    +0.003 A 
ENDBRANCH  15  16
ENDBRANCH  14  15
ENDBRANCH  13  14
ENDBRANCH  12  13
ENDBRANCH   1  12
TORSDOF 13
ENDMDL
MODEL 8
REMARK VINA RESULT:      -4.9      2.587      4.345
REMARK  Name = NuBBE_1155
REMARK  14 active torsions:
REMARK  status: ('A' for Active; 'I' for Inactive)
REMARK    1  A    between atoms: C_2  and  O_3
REMARK    2  A    between atoms: C_2  and  C_5
REMARK    3  A    between atoms: O_3  and  C_4
REMARK    4  A    between atoms: C_5  and  C_6
REMARK    5  A    between atoms: C_6  and  C_7
REMARK    6  A    between atoms: C_7  and  C_8
REMARK    7  A    between atoms: C_8  and  C_9
REMARK    8  A    between atoms: C_9  and  C_10
REMARK    9  A    between atoms: C_10  and  C_11
REMARK   10  A    between atoms: C_11  and  C_12
REMARK   11  A    between atoms: C_12  and  C_13
REMARK   12  A    between atoms: C_13  and  C_14
REMARK   13  A    between atoms: C_14  and  C_15
REMARK   14  A    between atoms: C_15  and  C_16
REMARK                            x       y       z     vdW  Elec       q    Type
REMARK                         _______ _______ _______ _____ _____    ______ ____
ROOT
ATOM      1  C   LIG A   1      -9.996   1.196 124.206  0.00  0.00    -0.000 C 
ENDROOT
BRANCH   1   2
ATOM      2  C   LIG A   1      -9.121   0.614 125.319  0.00  0.00    -0.000 C 
BRANCH   2   3
ATOM      3  C   LIG A   1      -8.047   1.609 125.738  0.00  0.00    -0.000 C 
BRANCH   3   4
ATOM      4  C   LIG A   1      -6.797   1.491 124.863  0.00  0.00    +0.000 C 
BRANCH   4   5
ATOM      5  C   LIG A   1      -5.951   2.765 124.891  0.00  0.00    +0.000 C 
BRANCH   5   6
ATOM      6  C   LIG A   1      -6.209   3.664 123.682  0.00  0.00    +0.011 C 
BRANCH   6   7
ATOM      7  C   LIG A   1      -6.911   2.904 122.571  0.00  0.00    +0.120 C 
BRANCH   7   9
ATOM      8  O   LIG A   1      -7.752   3.908 120.527  0.00  0.00    -0.251 OA
ATOM      9  C   LIG A   1      -6.800   3.638 121.258  0.00  0.00    +0.307 C 
BRANCH   9  10
ATOM     10  O   LIG A   1      -5.498   3.932 121.011  0.00  0.00    -0.468 OA
ATOM     11  C   LIG A   1      -5.290   5.005 120.093  0.00  0.00    +0.280 C 
ENDBRANCH   9  10
ENDBRANCH   7   9
ENDBRANCH   6   7
ENDBRANCH   5   6
ENDBRANCH   4   5
ENDBRANCH   3   4
ENDBRANCH   2   3
ENDBRANCH   1   2
BRANCH   1  12
ATOM     12  C   LIG A   1      -9.861   0.365 122.931  0.00  0.00    +0.000 C 
BRANCH  12  13
ATOM     13  C   LIG A   1      -8.838  -0.764 123.081  0.00  0.00    +0.000 C 
BRANCH  13  14
ATOM     14  C   LIG A   1      -9.533  -2.129 123.125  0.00  0.00    +0.005 C 
BRANCH  14  15
ATOM     15  C   LIG A   1      -8.614  -3.229 123.670  0.00  0.00    +0.035 C 
BRANCH  15  16
ATOM     16  C   LIG A   1      -8.050  -2.905 125.036  0.00  0.00    -0.047 A 
ATOM     17  C   LIG A   1      -6.725  -2.465 125.176  0.00  0.00    +0.003 A 
ATOM     18  C   LIG A   1      -6.216  -2.121 126.430  0.00  0.00    +0.000 A 
ATOM     19  C   LIG A   1      -7.027  -2.207 127.559  0.00  0.00    +0.000 A 
ATOM     20  C   LIG A   1      -8.343  -2.644 127.435  0.00  0.00    +0.000 A 
ATOM     21  C   LIG A   1      -8.853  -2.991 126.181  0.00  0.00    +0.003 A 
ENDBRANCH  15  16
ENDBRANCH  14  15
ENDBRANCH  13  14
ENDBRANCH  12  13
ENDBRANCH   1  12
TORSDOF 13
ENDMDL
MODEL 9
REMARK VINA RESULT:      -4.9      1.966      4.403
REMARK  Name = NuBBE_1155
REMARK  14 active torsions:
REMARK  status: ('A' for Active; 'I' for Inactive)
REMARK    1  A    between atoms: C_2  and  O_3
REMARK    2  A    between atoms: C_2  and  C_5
REMARK    3  A    between atoms: O_3  and  C_4
REMARK    4  A    between atoms: C_5  and  C_6
REMARK    5  A    between atoms: C_6  and  C_7
REMARK    6  A    between atoms: C_7  and  C_8
REMARK    7  A    between atoms: C_8  and  C_9
REMARK    8  A    between atoms: C_9  and  C_10
REMARK    9  A    between atoms: C_10  and  C_11
REMARK   10  A    between atoms: C_11  and  C_12
REMARK   11  A    between atoms: C_12  and  C_13
REMARK   12  A    between atoms: C_13  and  C_14
REMARK   13  A    between atoms: C_14  and  C_15
REMARK   14  A    between atoms: C_15  and  C_16
REMARK                            x       y       z     vdW  Elec       q    Type
REMARK                         _______ _______ _______ _____ _____    ______ ____
ROOT
ATOM      1  C   LIG A   1      -7.395  -3.185 124.061  0.00  0.00    -0.000 C 
ENDROOT
BRANCH   1   2
ATOM      2  C   LIG A   1      -6.013  -3.104 124.713  0.00  0.00    -0.000 C 
BRANCH   2   3
ATOM      3  C   LIG A   1      -5.429  -1.705 124.569  0.00  0.00    -0.000 C 
BRANCH   3   4
ATOM      4  C   LIG A   1      -6.522  -0.634 124.581  0.00  0.00    +0.000 C 
BRANCH   4   5
ATOM      5  C   LIG A   1      -6.561   0.136 125.902  0.00  0.00    +0.000 C 
BRANCH   5   6
ATOM      6  C   LIG A   1      -5.212   0.768 126.249  0.00  0.00    +0.011 C 
BRANCH   6   7
ATOM      7  C   LIG A   1      -5.392   2.132 126.891  0.00  0.00    +0.120 C 
BRANCH   7   9
ATOM      8  O   LIG A   1      -5.511   3.230 124.729  0.00  0.00    -0.251 OA
ATOM      9  C   LIG A   1      -5.905   3.139 125.891  0.00  0.00    +0.307 C 
BRANCH   9  10
ATOM     10  O   LIG A   1      -6.843   3.924 126.479  0.00  0.00    -0.468 OA
ATOM     11  C   LIG A   1      -7.195   3.542 127.809  0.00  0.00    +0.280 C 
ENDBRANCH   9  10
ENDBRANCH   7   9
ENDBRANCH   6   7
ENDBRANCH   5   6
ENDBRANCH   4   5
ENDBRANCH   3   4
ENDBRANCH   2   3
ENDBRANCH   1   2
BRANCH   1  12
ATOM     12  C   LIG A   1      -8.366  -3.945 124.963  0.00  0.00    +0.000 C 
BRANCH  12  13
ATOM     13  C   LIG A   1      -9.059  -3.027 125.972  0.00  0.00    +0.000 C 
BRANCH  13  14
ATOM     14  C   LIG A   1      -8.761  -3.469 127.409  0.00  0.00    +0.005 C 
BRANCH  14  15
ATOM     15  C   LIG A   1      -7.989  -2.402 128.195  0.00  0.00    +0.035 C 
BRANCH  15  16
ATOM     16  C   LIG A   1      -6.699  -2.924 128.789  0.00  0.00    -0.047 A 
ATOM     17  C   LIG A   1      -5.459  -2.470 128.317  0.00  0.00    +0.003 A 
ATOM     18  C   LIG A   1      -4.269  -2.916 128.894  0.00  0.00    +0.000 A 
ATOM     19  C   LIG A   1      -4.303  -3.817 129.954  0.00  0.00    +0.000 A 
ATOM     20  C   LIG A   1      -5.527  -4.279 130.432  0.00  0.00    +0.000 A 
ATOM     21  C   LIG A   1      -6.719  -3.836 129.854  0.00  0.00    +0.003 A 
ENDBRANCH  15  16
ENDBRANCH  14  15
ENDBRANCH  13  14
ENDBRANCH  12  13
ENDBRANCH   1  12
TORSDOF 13
ENDMDL
