MODEL 1
REMARK VINA RESULT:      -7.2      0.000      0.000
REMARK  Name = NuBBE_2347
REMARK  9 active torsions:
REMARK  status: ('A' for Active; 'I' for Inactive)
REMARK    1  A    between atoms: C_1  and  O_2
REMARK    2  A    between atoms: O_2  and  C_3
REMARK    3  A    between atoms: C_10  and  C_11
REMARK    4  A    between atoms: C_15  and  C_16
REMARK    5  A    between atoms: C_16  and  C_17
REMARK    6  A    between atoms: C_19  and  O_20
REMARK    7  A    between atoms: C_21  and  O_22
REMARK    8  A    between atoms: O_22  and  C_23
REMARK    9  A    between atoms: C_26  and  C_28
REMARK                            x       y       z     vdW  Elec       q    Type
REMARK                         _______ _______ _______ _____ _____    ______ ____
ROOT
ATOM      1  C   LIG A   1      -7.589  -2.371 128.254  0.00  0.00    +0.211 C 
ATOM      2  O   LIG A   1      -6.952  -2.923 127.068  0.00  0.00    -0.483 OA
ATOM      3  C   LIG A   1      -7.314  -2.084 126.044  0.00  0.00    +0.132 A 
ATOM      4  C   LIG A   1      -7.066  -2.336 124.696  0.00  0.00    +0.043 A 
ATOM      5  C   LIG A   1      -7.469  -1.333 123.786  0.00  0.00    +0.166 A 
ATOM      6  C   LIG A   1      -8.107  -0.148 124.223  0.00  0.00    +0.162 A 
ATOM      7  C   LIG A   1      -8.329   0.048 125.593  0.00  0.00    +0.057 A 
ATOM      8  C   LIG A   1      -7.912  -0.918 126.489  0.00  0.00    +0.005 A 
ATOM      9  C   LIG A   1      -7.893  -0.873 127.981  0.00  0.00    +0.065 C 
ATOM     10  C   LIG A   1      -6.842   0.139 128.434  0.00  0.00    +0.016 C 
ENDROOT
BRANCH   1  18
ATOM     11  C   LIG A   1      -4.710  -3.401 130.621  0.00  0.00    +0.166 A 
ATOM     12  C   LIG A   1      -5.408  -3.487 131.810  0.00  0.00    +0.207 A 
ATOM     13  O   LIG A   1      -4.916  -3.801 133.040  0.00  0.00    -0.449 OA
ATOM     14  C   LIG A   1      -6.097  -3.715 133.855  0.00  0.00    +0.467 C 
ATOM     15  O   LIG A   1      -7.274  -3.344 133.114  0.00  0.00    -0.453 OA
ATOM     16  C   LIG A   1      -6.759  -3.219 131.858  0.00  0.00    +0.170 A 
ATOM     17  C   LIG A   1      -7.489  -2.861 130.740  0.00  0.00    +0.057 A 
ATOM     18  C   LIG A   1      -6.815  -2.723 129.516  0.00  0.00    +0.000 A 
ATOM     19  C   LIG A   1      -5.422  -2.989 129.482  0.00  0.00    +0.057 A 
BRANCH  11  21
ATOM     20  C   LIG A   1      -2.943  -3.659 129.072  0.00  0.00    +0.277 C 
ATOM     21  O   LIG A   1      -3.380  -3.644 130.429  0.00  0.00    -0.491 OA
ENDBRANCH  11  21
ENDBRANCH   1  18
BRANCH   5  22
ATOM     22  O   LIG A   1      -7.227  -1.517 122.449  0.00  0.00    -0.503 OA
ATOM     23  H   LIG A   1      -7.263  -0.644 122.024  0.00  0.00    +0.292 HD
ENDBRANCH   5  22
BRANCH   6  24
ATOM     24  O   LIG A   1      -8.539   0.915 123.473  0.00  0.00    -0.491 OA
ATOM     25  C   LIG A   1      -9.844   0.870 122.918  0.00  0.00    +0.277 C 
ENDBRANCH   6  24
BRANCH   4  26
ATOM     26  C   LIG A   1      -6.447  -3.650 124.272  0.00  0.00    +0.069 C 
BRANCH  26  27
ATOM     27  C   LIG A   1      -4.972  -3.566 123.988  0.00  0.00    -0.030 C 
ATOM     28  C   LIG A   1      -4.206  -4.560 123.542  0.00  0.00    +0.004 C 
ENDBRANCH  26  27
ENDBRANCH   4  26
TORSDOF 6
ENDMDL
MODEL 2
REMARK VINA RESULT:      -7.1      1.401      2.304
REMARK  Name = NuBBE_2347
REMARK  9 active torsions:
REMARK  status: ('A' for Active; 'I' for Inactive)
REMARK    1  A    between atoms: C_1  and  O_2
REMARK    2  A    between atoms: O_2  and  C_3
REMARK    3  A    between atoms: C_10  and  C_11
REMARK    4  A    between atoms: C_15  and  C_16
REMARK    5  A    between atoms: C_16  and  C_17
REMARK    6  A    between atoms: C_19  and  O_20
REMARK    7  A    between atoms: C_21  and  O_22
REMARK    8  A    between atoms: O_22  and  C_23
REMARK    9  A    between atoms: C_26  and  C_28
REMARK                            x       y       z     vdW  Elec       q    Type
REMARK                         _______ _______ _______ _____ _____    ______ ____
ROOT
ATOM      1  C   LIG A   1      -7.884  -1.963 127.889  0.00  0.00    +0.211 C 
ATOM      2  O   LIG A   1      -7.177  -2.675 126.835  0.00  0.00    -0.483 OA
ATOM      3  C   LIG A   1      -7.135  -1.799 125.779  0.00  0.00    +0.132 A 
ATOM      4  C   LIG A   1      -6.700  -2.133 124.499  0.00  0.00    +0.043 A 
ATOM      5  C   LIG A   1      -6.680  -1.086 123.550  0.00  0.00    +0.166 A 
ATOM      6  C   LIG A   1      -7.100   0.224 123.883  0.00  0.00    +0.162 A 
ATOM      7  C   LIG A   1      -7.526   0.498 125.189  0.00  0.00    +0.057 A 
ATOM      8  C   LIG A   1      -7.522  -0.517 126.127  0.00  0.00    +0.005 A 
ATOM      9  C   LIG A   1      -7.778  -0.443 127.596  0.00  0.00    +0.065 C 
ATOM     10  C   LIG A   1      -6.628   0.311 128.263  0.00  0.00    +0.016 C 
ENDROOT
BRANCH   1  18
ATOM     11  C   LIG A   1      -7.389  -2.150 131.720  0.00  0.00    +0.166 A 
ATOM     12  C   LIG A   1      -6.604  -3.284 131.796  0.00  0.00    +0.207 A 
ATOM     13  O   LIG A   1      -6.112  -3.879 132.918  0.00  0.00    -0.449 OA
ATOM     14  C   LIG A   1      -5.401  -4.999 132.364  0.00  0.00    +0.467 C 
ATOM     15  O   LIG A   1      -5.482  -5.071 130.929  0.00  0.00    -0.453 OA
ATOM     16  C   LIG A   1      -6.246  -3.975 130.659  0.00  0.00    +0.170 A 
ATOM     17  C   LIG A   1      -6.636  -3.580 129.392  0.00  0.00    +0.057 A 
ATOM     18  C   LIG A   1      -7.467  -2.455 129.268  0.00  0.00    +0.000 A 
ATOM     19  C   LIG A   1      -7.839  -1.760 130.448  0.00  0.00    +0.057 A 
BRANCH  11  21
ATOM     20  C   LIG A   1      -7.768   0.037 132.534  0.00  0.00    +0.277 C 
ATOM     21  O   LIG A   1      -7.810  -1.370 132.759  0.00  0.00    -0.491 OA
ENDBRANCH  11  21
ENDBRANCH   1  18
BRANCH   5  22
ATOM     22  O   LIG A   1      -6.236  -1.352 122.280  0.00  0.00    -0.503 OA
ATOM     23  H   LIG A   1      -6.200  -2.317 122.181  0.00  0.00    +0.292 HD
ENDBRANCH   5  22
BRANCH   6  24
ATOM     24  O   LIG A   1      -7.124   1.340 123.087  0.00  0.00    -0.491 OA
ATOM     25  C   LIG A   1      -6.694   2.575 123.635  0.00  0.00    +0.277 C 
ENDBRANCH   6  24
BRANCH   4  26
ATOM     26  C   LIG A   1      -6.331  -3.564 124.172  0.00  0.00    +0.069 C 
BRANCH  26  27
ATOM     27  C   LIG A   1      -4.848  -3.803 124.068  0.00  0.00    -0.030 C 
ATOM     28  C   LIG A   1      -4.267  -4.845 123.478  0.00  0.00    +0.004 C 
ENDBRANCH  26  27
ENDBRANCH   4  26
TORSDOF 6
ENDMDL
MODEL 3
REMARK VINA RESULT:      -7.0      1.160      2.336
REMARK  Name = NuBBE_2347
REMARK  9 active torsions:
REMARK  status: ('A' for Active; 'I' for Inactive)
REMARK    1  A    between atoms: C_1  and  O_2
REMARK    2  A    between atoms: O_2  and  C_3
REMARK    3  A    between atoms: C_10  and  C_11
REMARK    4  A    between atoms: C_15  and  C_16
REMARK    5  A    between atoms: C_16  and  C_17
REMARK    6  A    between atoms: C_19  and  O_20
REMARK    7  A    between atoms: C_21  and  O_22
REMARK    8  A    between atoms: O_22  and  C_23
REMARK    9  A    between atoms: C_26  and  C_28
REMARK                            x       y       z     vdW  Elec       q    Type
REMARK                         _______ _______ _______ _____ _____    ______ ____
ROOT
ATOM      1  C   LIG A   1      -6.939  -2.861 128.315  0.00  0.00    +0.211 C 
ATOM      2  O   LIG A   1      -6.050  -2.699 127.174  0.00  0.00    -0.483 OA
ATOM      3  C   LIG A   1      -6.820  -2.107 126.204  0.00  0.00    +0.132 A 
ATOM      4  C   LIG A   1      -6.416  -1.928 124.882  0.00  0.00    +0.043 A 
ATOM      5  C   LIG A   1      -7.325  -1.253 124.035  0.00  0.00    +0.166 A 
ATOM      6  C   LIG A   1      -8.583  -0.806 124.504  0.00  0.00    +0.162 A 
ATOM      7  C   LIG A   1      -8.932  -1.016 125.845  0.00  0.00    +0.057 A 
ATOM      8  C   LIG A   1      -8.035  -1.651 126.684  0.00  0.00    +0.005 A 
ATOM      9  C   LIG A   1      -8.106  -1.849 128.161  0.00  0.00    +0.065 C 
ATOM     10  C   LIG A   1      -7.945  -0.497 128.852  0.00  0.00    +0.016 C 
ENDROOT
BRANCH   1  18
ATOM     11  C   LIG A   1      -6.072  -3.277 132.060  0.00  0.00    +0.166 A 
ATOM     12  C   LIG A   1      -4.792  -2.759 132.061  0.00  0.00    +0.207 A 
ATOM     13  O   LIG A   1      -3.940  -2.651 133.118  0.00  0.00    -0.449 OA
ATOM     14  C   LIG A   1      -2.785  -2.059 132.500  0.00  0.00    +0.467 C 
ATOM     15  O   LIG A   1      -2.949  -1.829 131.089  0.00  0.00    -0.453 OA
ATOM     16  C   LIG A   1      -4.217  -2.293 130.898  0.00  0.00    +0.170 A 
ATOM     17  C   LIG A   1      -4.875  -2.308 129.683  0.00  0.00    +0.057 A 
ATOM     18  C   LIG A   1      -6.164  -2.862 129.626  0.00  0.00    +0.000 A 
ATOM     19  C   LIG A   1      -6.740  -3.350 130.827  0.00  0.00    +0.057 A 
BRANCH  11  21
ATOM     20  C   LIG A   1      -7.868  -2.978 133.569  0.00  0.00    +0.277 C 
ATOM     21  O   LIG A   1      -6.762  -3.765 133.134  0.00  0.00    -0.491 OA
ENDBRANCH  11  21
ENDBRANCH   1  18
BRANCH   5  22
ATOM     22  O   LIG A   1      -6.970  -1.026 122.731  0.00  0.00    -0.503 OA
ATOM     23  H   LIG A   1      -7.477  -0.258 122.420  0.00  0.00    +0.292 HD
ENDBRANCH   5  22
BRANCH   6  24
ATOM     24  O   LIG A   1      -9.559  -0.130 123.817  0.00  0.00    -0.491 OA
ATOM     25  C   LIG A   1      -9.416   1.269 123.634  0.00  0.00    +0.277 C 
ENDBRANCH   6  24
BRANCH   4  26
ATOM     26  C   LIG A   1      -5.093  -2.489 124.410  0.00  0.00    +0.069 C 
BRANCH  26  27
ATOM     27  C   LIG A   1      -5.170  -3.914 123.933  0.00  0.00    -0.030 C 
ATOM     28  C   LIG A   1      -4.141  -4.659 123.533  0.00  0.00    +0.004 C 
ENDBRANCH  26  27
ENDBRANCH   4  26
TORSDOF 6
ENDMDL
MODEL 4
REMARK VINA RESULT:      -6.9      1.340      7.435
REMARK  Name = NuBBE_2347
REMARK  9 active torsions:
REMARK  status: ('A' for Active; 'I' for Inactive)
REMARK    1  A    between atoms: C_1  and  O_2
REMARK    2  A    between atoms: O_2  and  C_3
REMARK    3  A    between atoms: C_10  and  C_11
REMARK    4  A    between atoms: C_15  and  C_16
REMARK    5  A    between atoms: C_16  and  C_17
REMARK    6  A    between atoms: C_19  and  O_20
REMARK    7  A    between atoms: C_21  and  O_22
REMARK    8  A    between atoms: O_22  and  C_23
REMARK    9  A    between atoms: C_26  and  C_28
REMARK                            x       y       z     vdW  Elec       q    Type
REMARK                         _______ _______ _______ _____ _____    ______ ____
ROOT
ATOM      1  C   LIG A   1      -7.250  -1.463 128.277  0.00  0.00    +0.211 C 
ATOM      2  O   LIG A   1      -5.872  -1.616 128.719  0.00  0.00    -0.483 OA
ATOM      3  C   LIG A   1      -5.961  -2.102 130.000  0.00  0.00    +0.132 A 
ATOM      4  C   LIG A   1      -4.877  -2.232 130.867  0.00  0.00    +0.043 A 
ATOM      5  C   LIG A   1      -5.152  -2.799 132.132  0.00  0.00    +0.166 A 
ATOM      6  C   LIG A   1      -6.460  -3.192 132.501  0.00  0.00    +0.162 A 
ATOM      7  C   LIG A   1      -7.509  -3.037 131.583  0.00  0.00    +0.057 A 
ATOM      8  C   LIG A   1      -7.240  -2.508 130.335  0.00  0.00    +0.005 A 
ATOM      9  C   LIG A   1      -8.139  -2.389 129.150  0.00  0.00    +0.065 C 
ATOM     10  C   LIG A   1      -8.428  -3.786 128.603  0.00  0.00    +0.016 C 
ENDROOT
BRANCH   1  18
ATOM     11  C   LIG A   1      -6.329  -2.034 124.565  0.00  0.00    +0.166 A 
ATOM     12  C   LIG A   1      -7.530  -1.695 123.974  0.00  0.00    +0.207 A 
ATOM     13  O   LIG A   1      -7.838  -1.716 122.648  0.00  0.00    -0.449 OA
ATOM     14  C   LIG A   1      -9.208  -1.281 122.660  0.00  0.00    +0.467 C 
ATOM     15  O   LIG A   1      -9.708  -1.017 123.984  0.00  0.00    -0.453 OA
ATOM     16  C   LIG A   1      -8.608  -1.300 124.737  0.00  0.00    +0.170 A 
ATOM     17  C   LIG A   1      -8.553  -1.212 126.116  0.00  0.00    +0.057 A 
ATOM     18  C   LIG A   1      -7.364  -1.584 126.764  0.00  0.00    +0.000 A 
ATOM     19  C   LIG A   1      -6.266  -2.001 125.968  0.00  0.00    +0.057 A 
BRANCH  11  21
ATOM     20  C   LIG A   1      -4.943  -3.838 123.922  0.00  0.00    +0.277 C 
ATOM     21  O   LIG A   1      -5.185  -2.434 123.933  0.00  0.00    -0.491 OA
ENDBRANCH  11  21
ENDBRANCH   1  18
BRANCH   5  22
ATOM     22  O   LIG A   1      -4.119  -2.974 133.017  0.00  0.00    -0.503 OA
ATOM     23  H   LIG A   1      -3.301  -2.712 132.564  0.00  0.00    +0.292 HD
ENDBRANCH   5  22
BRANCH   6  24
ATOM     24  O   LIG A   1      -6.881  -3.765 133.673  0.00  0.00    -0.491 OA
ATOM     25  C   LIG A   1      -7.361  -2.923 134.708  0.00  0.00    +0.277 C 
ENDBRANCH   6  24
BRANCH   4  26
ATOM     26  C   LIG A   1      -3.511  -1.729 130.455  0.00  0.00    +0.069 C 
BRANCH  26  27
ATOM     27  C   LIG A   1      -2.736  -2.700 129.605  0.00  0.00    -0.030 C 
ATOM     28  C   LIG A   1      -3.205  -3.837 129.096  0.00  0.00    +0.004 C 
ENDBRANCH  26  27
ENDBRANCH   4  26
TORSDOF 6
ENDMDL
MODEL 5
REMARK VINA RESULT:      -6.9      3.364      5.671
REMARK  Name = NuBBE_2347
REMARK  9 active torsions:
REMARK  status: ('A' for Active; 'I' for Inactive)
REMARK    1  A    between atoms: C_1  and  O_2
REMARK    2  A    between atoms: O_2  and  C_3
REMARK    3  A    between atoms: C_10  and  C_11
REMARK    4  A    between atoms: C_15  and  C_16
REMARK    5  A    between atoms: C_16  and  C_17
REMARK    6  A    between atoms: C_19  and  O_20
REMARK    7  A    between atoms: C_21  and  O_22
REMARK    8  A    between atoms: O_22  and  C_23
REMARK    9  A    between atoms: C_26  and  C_28
REMARK                            x       y       z     vdW  Elec       q    Type
REMARK                         _______ _______ _______ _____ _____    ______ ____
ROOT
ATOM      1  C   LIG A   1      -7.932   1.031 126.725  0.00  0.00    +0.211 C 
ATOM      2  O   LIG A   1      -8.441  -0.317 126.928  0.00  0.00    -0.483 OA
ATOM      3  C   LIG A   1      -7.792  -1.087 125.995  0.00  0.00    +0.132 A 
ATOM      4  C   LIG A   1      -8.106  -2.417 125.719  0.00  0.00    +0.043 A 
ATOM      5  C   LIG A   1      -7.296  -3.066 124.760  0.00  0.00    +0.166 A 
ATOM      6  C   LIG A   1      -6.239  -2.392 124.103  0.00  0.00    +0.162 A 
ATOM      7  C   LIG A   1      -5.972  -1.054 124.425  0.00  0.00    +0.057 A 
ATOM      8  C   LIG A   1      -6.744  -0.423 125.382  0.00  0.00    +0.005 A 
ATOM      9  C   LIG A   1      -6.563   0.923 126.001  0.00  0.00    +0.065 C 
ATOM     10  C   LIG A   1      -5.315   0.901 126.881  0.00  0.00    +0.016 C 
ENDROOT
BRANCH   1  18
ATOM     11  C   LIG A   1      -8.330   1.977 130.452  0.00  0.00    +0.166 A 
ATOM     12  C   LIG A   1      -8.238   3.352 130.353  0.00  0.00    +0.207 A 
ATOM     13  O   LIG A   1      -8.290   4.263 131.364  0.00  0.00    -0.449 OA
ATOM     14  C   LIG A   1      -8.129   5.500 130.650  0.00  0.00    +0.467 C 
ATOM     15  O   LIG A   1      -7.973   5.320 129.230  0.00  0.00    -0.453 OA
ATOM     16  C   LIG A   1      -8.050   3.962 129.132  0.00  0.00    +0.170 A 
ATOM     17  C   LIG A   1      -7.949   3.251 127.951  0.00  0.00    +0.057 A 
ATOM     18  C   LIG A   1      -7.998   1.849 128.007  0.00  0.00    +0.000 A 
ATOM     19  C   LIG A   1      -8.179   1.232 129.271  0.00  0.00    +0.057 A 
BRANCH  11  21
ATOM     20  C   LIG A   1      -8.645  -0.162 131.408  0.00  0.00    +0.277 C 
ATOM     21  O   LIG A   1      -8.522   1.246 131.591  0.00  0.00    -0.491 OA
ENDBRANCH  11  21
ENDBRANCH   1  18
BRANCH   5  22
ATOM     22  O   LIG A   1      -7.543  -4.382 124.467  0.00  0.00    -0.503 OA
ATOM     23  H   LIG A   1      -6.689  -4.803 124.273  0.00  0.00    +0.292 HD
ENDBRANCH   5  22
BRANCH   6  24
ATOM     24  O   LIG A   1      -5.363  -2.883 123.170  0.00  0.00    -0.491 OA
ATOM     25  C   LIG A   1      -4.397  -3.837 123.580  0.00  0.00    +0.277 C 
ENDBRANCH   6  24
BRANCH   4  26
ATOM     26  C   LIG A   1      -9.292  -3.072 126.393  0.00  0.00    +0.069 C 
BRANCH  26  27
ATOM     27  C   LIG A   1      -8.933  -3.865 127.621  0.00  0.00    -0.030 C 
ATOM     28  C   LIG A   1      -8.479  -3.363 128.768  0.00  0.00    +0.004 C 
ENDBRANCH  26  27
ENDBRANCH   4  26
TORSDOF 6
ENDMDL
MODEL 6
REMARK VINA RESULT:      -6.8      1.515      7.724
REMARK  Name = NuBBE_2347
REMARK  9 active torsions:
REMARK  status: ('A' for Active; 'I' for Inactive)
REMARK    1  A    between atoms: C_1  and  O_2
REMARK    2  A    between atoms: O_2  and  C_3
REMARK    3  A    between atoms: C_10  and  C_11
REMARK    4  A    between atoms: C_15  and  C_16
REMARK    5  A    between atoms: C_16  and  C_17
REMARK    6  A    between atoms: C_19  and  O_20
REMARK    7  A    between atoms: C_21  and  O_22
REMARK    8  A    between atoms: O_22  and  C_23
REMARK    9  A    between atoms: C_26  and  C_28
REMARK                            x       y       z     vdW  Elec       q    Type
REMARK                         _______ _______ _______ _____ _____    ______ ____
ROOT
ATOM      1  C   LIG A   1      -7.224  -1.157 128.487  0.00  0.00    +0.211 C 
ATOM      2  O   LIG A   1      -5.843  -1.402 128.877  0.00  0.00    -0.483 OA
ATOM      3  C   LIG A   1      -5.923  -2.015 130.103  0.00  0.00    +0.132 A 
ATOM      4  C   LIG A   1      -4.827  -2.271 130.925  0.00  0.00    +0.043 A 
ATOM      5  C   LIG A   1      -5.096  -2.957 132.131  0.00  0.00    +0.166 A 
ATOM      6  C   LIG A   1      -6.409  -3.340 132.490  0.00  0.00    +0.162 A 
ATOM      7  C   LIG A   1      -7.470  -3.055 131.620  0.00  0.00    +0.057 A 
ATOM      8  C   LIG A   1      -7.209  -2.409 130.426  0.00  0.00    +0.005 A 
ATOM      9  C   LIG A   1      -8.128  -2.137 129.282  0.00  0.00    +0.065 C 
ATOM     10  C   LIG A   1      -8.479  -3.459 128.602  0.00  0.00    +0.016 C 
ENDROOT
BRANCH   1  18
ATOM     11  C   LIG A   1      -8.722  -0.605 124.966  0.00  0.00    +0.166 A 
ATOM     12  C   LIG A   1      -7.711  -1.147 124.196  0.00  0.00    +0.207 A 
ATOM     13  O   LIG A   1      -7.653  -1.228 122.838  0.00  0.00    -0.449 OA
ATOM     14  C   LIG A   1      -6.380  -1.865 122.639  0.00  0.00    +0.467 C 
ATOM     15  O   LIG A   1      -5.688  -2.149 123.869  0.00  0.00    -0.453 OA
ATOM     16  C   LIG A   1      -6.579  -1.670 124.783  0.00  0.00    +0.170 A 
ATOM     17  C   LIG A   1      -6.391  -1.692 126.152  0.00  0.00    +0.057 A 
ATOM     18  C   LIG A   1      -7.374  -1.117 126.973  0.00  0.00    +0.000 A 
ATOM     19  C   LIG A   1      -8.529  -0.570 126.356  0.00  0.00    +0.057 A 
BRANCH  11  21
ATOM     20  C   LIG A   1      -9.856   1.333 124.225  0.00  0.00    +0.277 C 
ATOM     21  O   LIG A   1      -9.894  -0.061 124.519  0.00  0.00    -0.491 OA
ENDBRANCH  11  21
ENDBRANCH   1  18
BRANCH   5  22
ATOM     22  O   LIG A   1      -4.051  -3.258 132.967  0.00  0.00    -0.503 OA
ATOM     23  H   LIG A   1      -3.241  -2.916 132.555  0.00  0.00    +0.292 HD
ENDBRANCH   5  22
BRANCH   6  24
ATOM     24  O   LIG A   1      -6.826  -4.017 133.607  0.00  0.00    -0.491 OA
ATOM     25  C   LIG A   1      -7.265  -3.272 134.730  0.00  0.00    +0.277 C 
ENDBRANCH   6  24
BRANCH   4  26
ATOM     26  C   LIG A   1      -3.452  -1.776 130.533  0.00  0.00    +0.069 C 
BRANCH  26  27
ATOM     27  C   LIG A   1      -2.711  -2.703 129.607  0.00  0.00    -0.030 C 
ATOM     28  C   LIG A   1      -3.199  -3.820 129.069  0.00  0.00    +0.004 C 
ENDBRANCH  26  27
ENDBRANCH   4  26
TORSDOF 6
ENDMDL
MODEL 7
REMARK VINA RESULT:      -6.8      3.860      6.927
REMARK  Name = NuBBE_2347
REMARK  9 active torsions:
REMARK  status: ('A' for Active; 'I' for Inactive)
REMARK    1  A    between atoms: C_1  and  O_2
REMARK    2  A    between atoms: O_2  and  C_3
REMARK    3  A    between atoms: C_10  and  C_11
REMARK    4  A    between atoms: C_15  and  C_16
REMARK    5  A    between atoms: C_16  and  C_17
REMARK    6  A    between atoms: C_19  and  O_20
REMARK    7  A    between atoms: C_21  and  O_22
REMARK    8  A    between atoms: O_22  and  C_23
REMARK    9  A    between atoms: C_26  and  C_28
REMARK                            x       y       z     vdW  Elec       q    Type
REMARK                         _______ _______ _______ _____ _____    ______ ____
ROOT
ATOM      1  C   LIG A   1      -5.678   0.764 126.298  0.00  0.00    +0.211 C 
ATOM      2  O   LIG A   1      -6.673   0.649 125.242  0.00  0.00    -0.483 OA
ATOM      3  C   LIG A   1      -7.344  -0.519 125.509  0.00  0.00    +0.132 A 
ATOM      4  C   LIG A   1      -8.269  -1.107 124.649  0.00  0.00    +0.043 A 
ATOM      5  C   LIG A   1      -8.897  -2.284 125.116  0.00  0.00    +0.166 A 
ATOM      6  C   LIG A   1      -8.584  -2.842 126.378  0.00  0.00    +0.162 A 
ATOM      7  C   LIG A   1      -7.644  -2.203 127.198  0.00  0.00    +0.057 A 
ATOM      8  C   LIG A   1      -7.048  -1.036 126.758  0.00  0.00    +0.005 A 
ATOM      9  C   LIG A   1      -6.149  -0.101 127.497  0.00  0.00    +0.065 C 
ATOM     10  C   LIG A   1      -6.955   0.606 128.585  0.00  0.00    +0.016 C 
ENDROOT
BRANCH   1  18
ATOM     11  C   LIG A   1      -5.777   4.629 126.276  0.00  0.00    +0.166 A 
ATOM     12  C   LIG A   1      -4.600   4.894 126.949  0.00  0.00    +0.207 A 
ATOM     13  O   LIG A   1      -4.086   6.113 127.274  0.00  0.00    -0.449 OA
ATOM     14  C   LIG A   1      -2.878   5.744 127.962  0.00  0.00    +0.467 C 
ATOM     15  O   LIG A   1      -2.687   4.320 128.051  0.00  0.00    -0.453 OA
ATOM     16  C   LIG A   1      -3.798   3.870 127.403  0.00  0.00    +0.170 A 
ATOM     17  C   LIG A   1      -4.110   2.537 127.210  0.00  0.00    +0.057 A 
ATOM     18  C   LIG A   1      -5.317   2.218 126.565  0.00  0.00    +0.000 A 
ATOM     19  C   LIG A   1      -6.140   3.282 126.115  0.00  0.00    +0.057 A 
BRANCH  11  21
ATOM     20  C   LIG A   1      -8.009   5.102 125.657  0.00  0.00    +0.277 C 
ATOM     21  O   LIG A   1      -6.658   5.542 125.770  0.00  0.00    -0.491 OA
ENDBRANCH  11  21
ENDBRANCH   1  18
BRANCH   5  22
ATOM     22  O   LIG A   1      -9.835  -2.892 124.322  0.00  0.00    -0.503 OA
ATOM     23  H   LIG A   1     -10.468  -3.337 124.908  0.00  0.00    +0.292 HD
ENDBRANCH   5  22
BRANCH   6  24
ATOM     24  O   LIG A   1      -9.112  -3.959 126.972  0.00  0.00    -0.491 OA
ATOM     25  C   LIG A   1      -9.007  -4.094 128.380  0.00  0.00    +0.277 C 
ENDBRANCH   6  24
BRANCH   4  26
ATOM     26  C   LIG A   1      -8.516  -0.514 123.280  0.00  0.00    +0.069 C 
BRANCH  26  27
ATOM     27  C   LIG A   1      -9.608   0.521 123.251  0.00  0.00    -0.030 C 
ATOM     28  C   LIG A   1      -9.441   1.834 123.404  0.00  0.00    +0.004 C 
ENDBRANCH  26  27
ENDBRANCH   4  26
TORSDOF 6
ENDMDL
MODEL 8
REMARK VINA RESULT:      -6.8      4.581      6.899
REMARK  Name = NuBBE_2347
REMARK  9 active torsions:
REMARK  status: ('A' for Active; 'I' for Inactive)
REMARK    1  A    between atoms: C_1  and  O_2
REMARK    2  A    between atoms: O_2  and  C_3
REMARK    3  A    between atoms: C_10  and  C_11
REMARK    4  A    between atoms: C_15  and  C_16
REMARK    5  A    between atoms: C_16  and  C_17
REMARK    6  A    between atoms: C_19  and  O_20
REMARK    7  A    between atoms: C_21  and  O_22
REMARK    8  A    between atoms: O_22  and  C_23
REMARK    9  A    between atoms: C_26  and  C_28
REMARK                            x       y       z     vdW  Elec       q    Type
REMARK                         _______ _______ _______ _____ _____    ______ ____
ROOT
ATOM      1  C   LIG A   1      -5.509   1.985 125.481  0.00  0.00    +0.211 C 
ATOM      2  O   LIG A   1      -6.819   2.272 124.914  0.00  0.00    -0.483 OA
ATOM      3  C   LIG A   1      -7.281   1.063 124.456  0.00  0.00    +0.132 A 
ATOM      4  C   LIG A   1      -8.429   0.904 123.682  0.00  0.00    +0.043 A 
ATOM      5  C   LIG A   1      -8.777  -0.424 123.344  0.00  0.00    +0.166 A 
ATOM      6  C   LIG A   1      -7.989  -1.525 123.754  0.00  0.00    +0.162 A 
ATOM      7  C   LIG A   1      -6.846  -1.299 124.532  0.00  0.00    +0.057 A 
ATOM      8  C   LIG A   1      -6.516  -0.005 124.888  0.00  0.00    +0.005 A 
ATOM      9  C   LIG A   1      -5.456   0.473 125.824  0.00  0.00    +0.065 C 
ATOM     10  C   LIG A   1      -5.834   0.073 127.249  0.00  0.00    +0.016 C 
ENDROOT
BRANCH   1  18
ATOM     11  C   LIG A   1      -5.832   4.484 128.414  0.00  0.00    +0.166 A 
ATOM     12  C   LIG A   1      -4.516   4.893 128.516  0.00  0.00    +0.207 A 
ATOM     13  O   LIG A   1      -3.988   5.778 129.405  0.00  0.00    -0.449 OA
ATOM     14  C   LIG A   1      -2.601   5.778 129.026  0.00  0.00    +0.467 C 
ATOM     15  O   LIG A   1      -2.312   4.893 127.929  0.00  0.00    -0.453 OA
ATOM     16  C   LIG A   1      -3.551   4.383 127.675  0.00  0.00    +0.170 A 
ATOM     17  C   LIG A   1      -3.833   3.453 126.692  0.00  0.00    +0.057 A 
ATOM     18  C   LIG A   1      -5.149   2.979 126.577  0.00  0.00    +0.000 A 
ATOM     19  C   LIG A   1      -6.132   3.502 127.456  0.00  0.00    +0.057 A 
BRANCH  11  21
ATOM     20  C   LIG A   1      -8.168   4.432 128.773  0.00  0.00    +0.277 C 
ATOM     21  O   LIG A   1      -6.886   4.909 129.173  0.00  0.00    -0.491 OA
ENDBRANCH  11  21
ENDBRANCH   1  18
BRANCH   5  22
ATOM     22  O   LIG A   1      -9.911  -0.642 122.605  0.00  0.00    -0.503 OA
ATOM     23  H   LIG A   1     -10.367  -1.408 122.990  0.00  0.00    +0.292 HD
ENDBRANCH   5  22
BRANCH   6  24
ATOM     24  O   LIG A   1      -8.200  -2.859 123.522  0.00  0.00    -0.491 OA
ATOM     25  C   LIG A   1      -8.476  -3.706 124.625  0.00  0.00    +0.277 C 
ENDBRANCH   6  24
BRANCH   4  26
ATOM     26  C   LIG A   1      -9.198   2.117 123.206  0.00  0.00    +0.069 C 
BRANCH  26  27
ATOM     27  C   LIG A   1      -8.422   3.000 122.265  0.00  0.00    -0.030 C 
ATOM     28  C   LIG A   1      -8.853   3.451 121.088  0.00  0.00    +0.004 C 
ENDBRANCH  26  27
ENDBRANCH   4  26
TORSDOF 6
ENDMDL
MODEL 9
REMARK VINA RESULT:      -6.7      7.772     11.492
REMARK  Name = NuBBE_2347
REMARK  9 active torsions:
REMARK  status: ('A' for Active; 'I' for Inactive)
REMARK    1  A    between atoms: C_1  and  O_2
REMARK    2  A    between atoms: O_2  and  C_3
REMARK    3  A    between atoms: C_10  and  C_11
REMARK    4  A    between atoms: C_15  and  C_16
REMARK    5  A    between atoms: C_16  and  C_17
REMARK    6  A    between atoms: C_19  and  O_20
REMARK    7  A    between atoms: C_21  and  O_22
REMARK    8  A    between atoms: O_22  and  C_23
REMARK    9  A    between atoms: C_26  and  C_28
REMARK                            x       y       z     vdW  Elec       q    Type
REMARK                         _______ _______ _______ _____ _____    ______ ____
ROOT
ATOM      1  C   LIG A   1      -8.214   5.899 133.200  0.00  0.00    +0.211 C 
ATOM      2  O   LIG A   1      -6.840   6.127 132.779  0.00  0.00    -0.483 OA
ATOM      3  C   LIG A   1      -6.069   5.497 133.724  0.00  0.00    +0.132 A 
ATOM      4  C   LIG A   1      -4.682   5.609 133.807  0.00  0.00    +0.043 A 
ATOM      5  C   LIG A   1      -4.052   4.846 134.817  0.00  0.00    +0.166 A 
ATOM      6  C   LIG A   1      -4.794   4.033 135.705  0.00  0.00    +0.162 A 
ATOM      7  C   LIG A   1      -6.187   3.961 135.569  0.00  0.00    +0.057 A 
ATOM      8  C   LIG A   1      -6.806   4.683 134.566  0.00  0.00    +0.005 A 
ATOM      9  C   LIG A   1      -8.231   4.654 134.127  0.00  0.00    +0.065 C 
ATOM     10  C   LIG A   1      -8.520   3.306 133.468  0.00  0.00    +0.016 C 
ENDROOT
BRANCH   1  18
ATOM     11  C   LIG A   1      -9.577   5.697 129.587  0.00  0.00    +0.166 A 
ATOM     12  C   LIG A   1     -10.888   6.069 129.813  0.00  0.00    +0.207 A 
ATOM     13  O   LIG A   1     -11.892   6.168 128.899  0.00  0.00    -0.449 OA
ATOM     14  C   LIG A   1     -12.997   6.575 129.724  0.00  0.00    +0.467 C 
ATOM     15  O   LIG A   1     -12.650   6.705 131.116  0.00  0.00    -0.453 OA
ATOM     16  C   LIG A   1     -11.329   6.371 131.084  0.00  0.00    +0.170 A 
ATOM     17  C   LIG A   1     -10.500   6.329 132.190  0.00  0.00    +0.057 A 
ATOM     18  C   LIG A   1      -9.169   5.919 132.015  0.00  0.00    +0.000 A 
ATOM     19  C   LIG A   1      -8.731   5.598 130.704  0.00  0.00    +0.057 A 
BRANCH  11  21
ATOM     20  C   LIG A   1      -8.063   4.312 128.413  0.00  0.00    +0.277 C 
ATOM     21  O   LIG A   1      -9.008   5.378 128.387  0.00  0.00    -0.491 OA
ENDBRANCH  11  21
ENDBRANCH   1  18
BRANCH   5  22
ATOM     22  O   LIG A   1      -2.686   4.898 134.928  0.00  0.00    -0.503 OA
ATOM     23  H   LIG A   1      -2.465   5.703 135.426  0.00  0.00    +0.292 HD
ENDBRANCH   5  22
BRANCH   6  24
ATOM     24  O   LIG A   1      -4.332   3.231 136.716  0.00  0.00    -0.491 OA
ATOM     25  C   LIG A   1      -4.058   1.868 136.432  0.00  0.00    +0.277 C 
ENDBRANCH   6  24
BRANCH   4  26
ATOM     26  C   LIG A   1      -3.940   6.548 132.882  0.00  0.00    +0.069 C 
BRANCH  26  27
ATOM     27  C   LIG A   1      -3.438   5.894 131.623  0.00  0.00    -0.030 C 
ATOM     28  C   LIG A   1      -2.225   6.048 131.096  0.00  0.00    +0.004 C 
ENDBRANCH  26  27
ENDBRANCH   4  26
TORSDOF 6
ENDMDL
