MODEL 1
REMARK VINA RESULT:      -7.8      0.000      0.000
REMARK  Name = NuBBE_181
REMARK  3 active torsions:
REMARK  status: ('A' for Active; 'I' for Inactive)
REMARK    1  A    between atoms: C_4  and  C_13
REMARK    2  A    between atoms: C_10  and  O_11
REMARK    3  A    between atoms: C_16  and  O_19
REMARK                            x       y       z     vdW  Elec       q    Type
REMARK                         _______ _______ _______ _____ _____    ______ ____
ROOT
ATOM      1  O   LIG A   1     -13.112   6.841 131.530  0.00  0.00    -0.287 OA
ATOM      2  C   LIG A   1     -12.032   6.828 130.955  0.00  0.00    +0.193 A 
ATOM      3  C   LIG A   1     -10.780   6.602 131.695  0.00  0.00    +0.098 A 
ATOM      4  C   LIG A   1      -9.616   6.588 131.028  0.00  0.00    +0.139 A 
ATOM      5  O   LIG A   1      -9.498   6.794 129.661  0.00  0.00    -0.455 OA
ATOM      6  C   LIG A   1     -10.640   7.008 128.932  0.00  0.00    +0.143 A 
ATOM      7  C   LIG A   1     -11.909   7.037 129.505  0.00  0.00    +0.064 A 
ATOM      8  C   LIG A   1     -13.042   7.260 128.716  0.00  0.00    +0.019 A 
ATOM      9  C   LIG A   1     -12.897   7.457 127.341  0.00  0.00    +0.046 A 
ATOM     10  C   LIG A   1     -11.623   7.428 126.777  0.00  0.00    +0.120 A 
ATOM     11  C   LIG A   1     -10.494   7.205 127.560  0.00  0.00    +0.092 A 
ENDROOT
BRANCH   4  12
ATOM     12  C   LIG A   1      -8.328   6.376 131.719  0.00  0.00    +0.018 A 
ATOM     13  C   LIG A   1      -7.127   6.746 131.092  0.00  0.00    +0.015 A 
ATOM     14  C   LIG A   1      -5.895   6.546 131.723  0.00  0.00    +0.046 A 
ATOM     15  C   LIG A   1      -5.861   5.965 132.985  0.00  0.00    +0.117 A 
ATOM     16  C   LIG A   1      -7.034   5.581 133.621  0.00  0.00    +0.046 A 
ATOM     17  C   LIG A   1      -8.264   5.782 132.990  0.00  0.00    +0.015 A 
BRANCH  15  18
ATOM     18  O   LIG A   1      -4.685   5.749 133.638  0.00  0.00    -0.507 OA
ATOM     19  H   LIG A   1      -3.968   6.166 133.133  0.00  0.00    +0.292 HD
ENDBRANCH  15  18
ENDBRANCH   4  12
BRANCH  10  20
ATOM     20  O   LIG A   1     -11.437   7.616 125.439  0.00  0.00    -0.507 OA
ATOM     21  H   LIG A   1     -11.634   8.542 125.220  0.00  0.00    +0.292 HD
ENDBRANCH  10  20
TORSDOF 3
ENDMDL
MODEL 2
REMARK VINA RESULT:      -7.4      1.805      6.521
REMARK  Name = NuBBE_181
REMARK  3 active torsions:
REMARK  status: ('A' for Active; 'I' for Inactive)
REMARK    1  A    between atoms: C_4  and  C_13
REMARK    2  A    between atoms: C_10  and  O_11
REMARK    3  A    between atoms: C_16  and  O_19
REMARK                            x       y       z     vdW  Elec       q    Type
REMARK                         _______ _______ _______ _____ _____    ______ ____
ROOT
ATOM      1  O   LIG A   1      -8.289   5.070 133.927  0.00  0.00    -0.287 OA
ATOM      2  C   LIG A   1      -8.202   5.723 132.897  0.00  0.00    +0.193 A 
ATOM      3  C   LIG A   1      -9.402   6.100 132.133  0.00  0.00    +0.098 A 
ATOM      4  C   LIG A   1      -9.267   6.824 131.012  0.00  0.00    +0.139 A 
ATOM      5  O   LIG A   1      -8.048   7.239 130.494  0.00  0.00    -0.455 OA
ATOM      6  C   LIG A   1      -6.903   6.909 131.174  0.00  0.00    +0.143 A 
ATOM      7  C   LIG A   1      -6.911   6.170 132.355  0.00  0.00    +0.064 A 
ATOM      8  C   LIG A   1      -5.714   5.861 133.009  0.00  0.00    +0.019 A 
ATOM      9  C   LIG A   1      -4.501   6.297 132.471  0.00  0.00    +0.046 A 
ATOM     10  C   LIG A   1      -4.504   7.035 131.288  0.00  0.00    +0.120 A 
ATOM     11  C   LIG A   1      -5.694   7.345 130.637  0.00  0.00    +0.092 A 
ENDROOT
BRANCH   4  12
ATOM     12  C   LIG A   1     -10.434   7.223 130.199  0.00  0.00    +0.018 A 
ATOM     13  C   LIG A   1     -10.246   7.944 129.009  0.00  0.00    +0.015 A 
ATOM     14  C   LIG A   1     -11.337   8.341 128.229  0.00  0.00    +0.046 A 
ATOM     15  C   LIG A   1     -12.625   8.022 128.643  0.00  0.00    +0.117 A 
ATOM     16  C   LIG A   1     -12.837   7.318 129.821  0.00  0.00    +0.046 A 
ATOM     17  C   LIG A   1     -11.746   6.922 130.600  0.00  0.00    +0.015 A 
BRANCH  15  18
ATOM     18  O   LIG A   1     -13.717   8.388 127.917  0.00  0.00    -0.507 OA
ATOM     19  H   LIG A   1     -14.472   7.842 128.194  0.00  0.00    +0.292 HD
ENDBRANCH  15  18
ENDBRANCH   4  12
BRANCH  10  20
ATOM     20  O   LIG A   1      -3.342   7.479 130.730  0.00  0.00    -0.507 OA
ATOM     21  H   LIG A   1      -3.223   7.051 129.866  0.00  0.00    +0.292 HD
ENDBRANCH  10  20
TORSDOF 3
ENDMDL
MODEL 3
REMARK VINA RESULT:      -7.3      8.442     10.845
REMARK  Name = NuBBE_181
REMARK  3 active torsions:
REMARK  status: ('A' for Active; 'I' for Inactive)
REMARK    1  A    between atoms: C_4  and  C_13
REMARK    2  A    between atoms: C_10  and  O_11
REMARK    3  A    between atoms: C_16  and  O_19
REMARK                            x       y       z     vdW  Elec       q    Type
REMARK                         _______ _______ _______ _____ _____    ______ ____
ROOT
ATOM      1  O   LIG A   1      -8.748   3.117 125.745  0.00  0.00    -0.287 OA
ATOM      2  C   LIG A   1      -8.174   2.634 124.778  0.00  0.00    +0.193 A 
ATOM      3  C   LIG A   1      -7.802   3.465 123.622  0.00  0.00    +0.098 A 
ATOM      4  C   LIG A   1      -7.166   2.901 122.585  0.00  0.00    +0.139 A 
ATOM      5  O   LIG A   1      -6.840   1.554 122.509  0.00  0.00    -0.455 OA
ATOM      6  C   LIG A   1      -7.168   0.743 123.566  0.00  0.00    +0.143 A 
ATOM      7  C   LIG A   1      -7.820   1.209 124.704  0.00  0.00    +0.064 A 
ATOM      8  C   LIG A   1      -8.132   0.338 125.753  0.00  0.00    +0.019 A 
ATOM      9  C   LIG A   1      -7.786  -1.011 125.655  0.00  0.00    +0.046 A 
ATOM     10  C   LIG A   1      -7.134  -1.469 124.512  0.00  0.00    +0.120 A 
ATOM     11  C   LIG A   1      -6.822  -0.604 123.467  0.00  0.00    +0.092 A 
ENDROOT
BRANCH   4  12
ATOM     12  C   LIG A   1      -6.778   3.682 121.394  0.00  0.00    +0.018 A 
ATOM     13  C   LIG A   1      -7.678   3.827 120.325  0.00  0.00    +0.015 A 
ATOM     14  C   LIG A   1      -7.329   4.553 119.183  0.00  0.00    +0.046 A 
ATOM     15  C   LIG A   1      -6.069   5.135 119.103  0.00  0.00    +0.117 A 
ATOM     16  C   LIG A   1      -5.157   4.999 120.142  0.00  0.00    +0.046 A 
ATOM     17  C   LIG A   1      -5.507   4.272 121.283  0.00  0.00    +0.015 A 
BRANCH  15  18
ATOM     18  O   LIG A   1      -5.683   5.851 118.011  0.00  0.00    -0.507 OA
ATOM     19  H   LIG A   1      -5.668   5.260 117.240  0.00  0.00    +0.292 HD
ENDBRANCH  15  18
ENDBRANCH   4  12
BRANCH  10  20
ATOM     20  O   LIG A   1      -6.779  -2.778 124.376  0.00  0.00    -0.507 OA
ATOM     21  H   LIG A   1      -7.548  -3.337 124.581  0.00  0.00    +0.292 HD
ENDBRANCH  10  20
TORSDOF 3
ENDMDL
MODEL 4
REMARK VINA RESULT:      -7.2      7.845     10.347
REMARK  Name = NuBBE_181
REMARK  3 active torsions:
REMARK  status: ('A' for Active; 'I' for Inactive)
REMARK    1  A    between atoms: C_4  and  C_13
REMARK    2  A    between atoms: C_10  and  O_11
REMARK    3  A    between atoms: C_16  and  O_19
REMARK                            x       y       z     vdW  Elec       q    Type
REMARK                         _______ _______ _______ _____ _____    ______ ____
ROOT
ATOM      1  O   LIG A   1     -10.741   1.231 123.844  0.00  0.00    -0.287 OA
ATOM      2  C   LIG A   1      -9.570   1.582 123.807  0.00  0.00    +0.193 A 
ATOM      3  C   LIG A   1      -9.042   2.352 122.669  0.00  0.00    +0.098 A 
ATOM      4  C   LIG A   1      -7.754   2.725 122.670  0.00  0.00    +0.139 A 
ATOM      5  O   LIG A   1      -6.853   2.417 123.679  0.00  0.00    -0.455 OA
ATOM      6  C   LIG A   1      -7.303   1.701 124.759  0.00  0.00    +0.143 A 
ATOM      7  C   LIG A   1      -8.619   1.264 124.883  0.00  0.00    +0.064 A 
ATOM      8  C   LIG A   1      -9.026   0.536 126.005  0.00  0.00    +0.019 A 
ATOM      9  C   LIG A   1      -8.101   0.247 127.011  0.00  0.00    +0.046 A 
ATOM     10  C   LIG A   1      -6.786   0.688 126.879  0.00  0.00    +0.120 A 
ATOM     11  C   LIG A   1      -6.379   1.413 125.762  0.00  0.00    +0.092 A 
ENDROOT
BRANCH   4  12
ATOM     12  C   LIG A   1      -7.167   3.489 121.550  0.00  0.00    +0.018 A 
ATOM     13  C   LIG A   1      -5.844   3.953 121.635  0.00  0.00    +0.015 A 
ATOM     14  C   LIG A   1      -5.271   4.687 120.593  0.00  0.00    +0.046 A 
ATOM     15  C   LIG A   1      -6.025   4.966 119.458  0.00  0.00    +0.117 A 
ATOM     16  C   LIG A   1      -7.338   4.527 119.355  0.00  0.00    +0.046 A 
ATOM     17  C   LIG A   1      -7.911   3.794 120.398  0.00  0.00    +0.015 A 
BRANCH  15  18
ATOM     18  O   LIG A   1      -5.510   5.678 118.418  0.00  0.00    -0.507 OA
ATOM     19  H   LIG A   1      -4.952   6.389 118.774  0.00  0.00    +0.292 HD
ENDBRANCH  15  18
ENDBRANCH   4  12
BRANCH  10  20
ATOM     20  O   LIG A   1      -5.852   0.426 127.837  0.00  0.00    -0.507 OA
ATOM     21  H   LIG A   1      -5.374  -0.386 127.599  0.00  0.00    +0.292 HD
ENDBRANCH  10  20
TORSDOF 3
ENDMDL
MODEL 5
REMARK VINA RESULT:      -7.1      2.907      6.582
REMARK  Name = NuBBE_181
REMARK  3 active torsions:
REMARK  status: ('A' for Active; 'I' for Inactive)
REMARK    1  A    between atoms: C_4  and  C_13
REMARK    2  A    between atoms: C_10  and  O_11
REMARK    3  A    between atoms: C_16  and  O_19
REMARK                            x       y       z     vdW  Elec       q    Type
REMARK                         _______ _______ _______ _____ _____    ______ ____
ROOT
ATOM      1  O   LIG A   1      -6.622   5.801 132.488  0.00  0.00    -0.287 OA
ATOM      2  C   LIG A   1      -7.701   5.492 132.003  0.00  0.00    +0.193 A 
ATOM      3  C   LIG A   1      -8.570   6.501 131.378  0.00  0.00    +0.098 A 
ATOM      4  C   LIG A   1      -9.744   6.122 130.850  0.00  0.00    +0.139 A 
ATOM      5  O   LIG A   1     -10.221   4.819 130.866  0.00  0.00    -0.455 OA
ATOM      6  C   LIG A   1      -9.443   3.846 131.439  0.00  0.00    +0.143 A 
ATOM      7  C   LIG A   1      -8.201   4.109 132.011  0.00  0.00    +0.064 A 
ATOM      8  C   LIG A   1      -7.447   3.079 132.583  0.00  0.00    +0.019 A 
ATOM      9  C   LIG A   1      -7.947   1.775 132.579  0.00  0.00    +0.046 A 
ATOM     10  C   LIG A   1      -9.191   1.521 132.004  0.00  0.00    +0.120 A 
ATOM     11  C   LIG A   1      -9.942   2.544 131.434  0.00  0.00    +0.092 A 
ENDROOT
BRANCH   4  12
ATOM     12  C   LIG A   1     -10.661   7.092 130.219  0.00  0.00    +0.018 A 
ATOM     13  C   LIG A   1     -11.922   7.337 130.788  0.00  0.00    +0.015 A 
ATOM     14  C   LIG A   1     -12.811   8.244 130.203  0.00  0.00    +0.046 A 
ATOM     15  C   LIG A   1     -12.443   8.906 129.037  0.00  0.00    +0.117 A 
ATOM     16  C   LIG A   1     -11.207   8.673 128.450  0.00  0.00    +0.046 A 
ATOM     17  C   LIG A   1     -10.318   7.766 129.035  0.00  0.00    +0.015 A 
BRANCH  15  18
ATOM     18  O   LIG A   1     -13.276   9.796 128.431  0.00  0.00    -0.507 OA
ATOM     19  H   LIG A   1     -13.167  10.663 128.856  0.00  0.00    +0.292 HD
ENDBRANCH  15  18
ENDBRANCH   4  12
BRANCH  10  20
ATOM     20  O   LIG A   1      -9.715   0.263 131.979  0.00  0.00    -0.507 OA
ATOM     21  H   LIG A   1      -9.145  -0.327 132.501  0.00  0.00    +0.292 HD
ENDBRANCH  10  20
TORSDOF 3
ENDMDL
MODEL 6
REMARK VINA RESULT:      -7.0      8.780     10.336
REMARK  Name = NuBBE_181
REMARK  3 active torsions:
REMARK  status: ('A' for Active; 'I' for Inactive)
REMARK    1  A    between atoms: C_4  and  C_13
REMARK    2  A    between atoms: C_10  and  O_11
REMARK    3  A    between atoms: C_16  and  O_19
REMARK                            x       y       z     vdW  Elec       q    Type
REMARK                         _______ _______ _______ _____ _____    ______ ____
ROOT
ATOM      1  O   LIG A   1      -9.631  -2.901 124.170  0.00  0.00    -0.287 OA
ATOM      2  C   LIG A   1      -8.962  -2.133 124.846  0.00  0.00    +0.193 A 
ATOM      3  C   LIG A   1      -8.439  -0.879 124.279  0.00  0.00    +0.098 A 
ATOM      4  C   LIG A   1      -7.716  -0.059 125.055  0.00  0.00    +0.139 A 
ATOM      5  O   LIG A   1      -7.399  -0.317 126.381  0.00  0.00    -0.455 OA
ATOM      6  C   LIG A   1      -7.866  -1.475 126.950  0.00  0.00    +0.143 A 
ATOM      7  C   LIG A   1      -8.636  -2.403 126.254  0.00  0.00    +0.064 A 
ATOM      8  C   LIG A   1      -9.086  -3.569 126.882  0.00  0.00    +0.019 A 
ATOM      9  C   LIG A   1      -8.760  -3.801 128.220  0.00  0.00    +0.046 A 
ATOM     10  C   LIG A   1      -7.989  -2.867 128.908  0.00  0.00    +0.120 A 
ATOM     11  C   LIG A   1      -7.540  -1.706 128.285  0.00  0.00    +0.092 A 
ENDROOT
BRANCH   4  12
ATOM     12  C   LIG A   1      -7.157   1.207 124.538  0.00  0.00    +0.018 A 
ATOM     13  C   LIG A   1      -6.363   2.015 125.368  0.00  0.00    +0.015 A 
ATOM     14  C   LIG A   1      -5.833   3.222 124.903  0.00  0.00    +0.046 A 
ATOM     15  C   LIG A   1      -6.101   3.629 123.602  0.00  0.00    +0.117 A 
ATOM     16  C   LIG A   1      -6.891   2.853 122.764  0.00  0.00    +0.046 A 
ATOM     17  C   LIG A   1      -7.422   1.647 123.230  0.00  0.00    +0.015 A 
BRANCH  15  18
ATOM     18  O   LIG A   1      -5.606   4.797 123.105  0.00  0.00    -0.507 OA
ATOM     19  H   LIG A   1      -4.651   4.694 122.960  0.00  0.00    +0.292 HD
ENDBRANCH  15  18
ENDBRANCH   4  12
BRANCH  10  20
ATOM     20  O   LIG A   1      -7.647  -3.056 130.214  0.00  0.00    -0.507 OA
ATOM     21  H   LIG A   1      -7.127  -2.293 130.519  0.00  0.00    +0.292 HD
ENDBRANCH  10  20
TORSDOF 3
ENDMDL
MODEL 7
REMARK VINA RESULT:      -6.7      9.982     10.616
REMARK  Name = NuBBE_181
REMARK  3 active torsions:
REMARK  status: ('A' for Active; 'I' for Inactive)
REMARK    1  A    between atoms: C_4  and  C_13
REMARK    2  A    between atoms: C_10  and  O_11
REMARK    3  A    between atoms: C_16  and  O_19
REMARK                            x       y       z     vdW  Elec       q    Type
REMARK                         _______ _______ _______ _____ _____    ______ ____
ROOT
ATOM      1  O   LIG A   1      -5.010  -0.623 125.492  0.00  0.00    -0.287 OA
ATOM      2  C   LIG A   1      -5.833  -1.349 126.033  0.00  0.00    +0.193 A 
ATOM      3  C   LIG A   1      -5.717  -1.699 127.457  0.00  0.00    +0.098 A 
ATOM      4  C   LIG A   1      -6.645  -2.491 128.016  0.00  0.00    +0.139 A 
ATOM      5  O   LIG A   1      -7.722  -3.034 127.331  0.00  0.00    -0.455 OA
ATOM      6  C   LIG A   1      -7.869  -2.733 126.001  0.00  0.00    +0.143 A 
ATOM      7  C   LIG A   1      -6.980  -1.915 125.308  0.00  0.00    +0.064 A 
ATOM      8  C   LIG A   1      -7.176  -1.639 123.951  0.00  0.00    +0.019 A 
ATOM      9  C   LIG A   1      -8.273  -2.192 123.286  0.00  0.00    +0.046 A 
ATOM     10  C   LIG A   1      -9.156  -3.010 123.988  0.00  0.00    +0.120 A 
ATOM     11  C   LIG A   1      -8.964  -3.284 125.338  0.00  0.00    +0.092 A 
ENDROOT
BRANCH   4  12
ATOM     12  C   LIG A   1      -6.575  -2.885 129.438  0.00  0.00    +0.018 A 
ATOM     13  C   LIG A   1      -5.525  -3.703 129.888  0.00  0.00    +0.015 A 
ATOM     14  C   LIG A   1      -5.444  -4.096 131.227  0.00  0.00    +0.046 A 
ATOM     15  C   LIG A   1      -6.421  -3.677 132.123  0.00  0.00    +0.117 A 
ATOM     16  C   LIG A   1      -7.474  -2.877 131.700  0.00  0.00    +0.046 A 
ATOM     17  C   LIG A   1      -7.555  -2.484 130.361  0.00  0.00    +0.015 A 
BRANCH  15  18
ATOM     18  O   LIG A   1      -6.385  -4.036 133.436  0.00  0.00    -0.507 OA
ATOM     19  H   LIG A   1      -5.458  -4.069 133.724  0.00  0.00    +0.292 HD
ENDBRANCH  15  18
ENDBRANCH   4  12
BRANCH  10  20
ATOM     20  O   LIG A   1     -10.239  -3.569 123.377  0.00  0.00    -0.507 OA
ATOM     21  H   LIG A   1     -10.975  -3.609 124.011  0.00  0.00    +0.292 HD
ENDBRANCH  10  20
TORSDOF 3
ENDMDL
MODEL 8
REMARK VINA RESULT:      -6.6      2.476      4.062
REMARK  Name = NuBBE_181
REMARK  3 active torsions:
REMARK  status: ('A' for Active; 'I' for Inactive)
REMARK    1  A    between atoms: C_4  and  C_13
REMARK    2  A    between atoms: C_10  and  O_11
REMARK    3  A    between atoms: C_16  and  O_19
REMARK                            x       y       z     vdW  Elec       q    Type
REMARK                         _______ _______ _______ _____ _____    ______ ____
ROOT
ATOM      1  O   LIG A   1      -8.476   5.448 133.995  0.00  0.00    -0.287 OA
ATOM      2  C   LIG A   1      -8.276   5.840 132.853  0.00  0.00    +0.193 A 
ATOM      3  C   LIG A   1      -6.916   5.888 132.293  0.00  0.00    +0.098 A 
ATOM      4  C   LIG A   1      -6.739   6.317 131.035  0.00  0.00    +0.139 A 
ATOM      5  O   LIG A   1      -7.765   6.748 130.206  0.00  0.00    -0.455 OA
ATOM      6  C   LIG A   1      -9.049   6.720 130.688  0.00  0.00    +0.143 A 
ATOM      7  C   LIG A   1      -9.366   6.287 131.973  0.00  0.00    +0.064 A 
ATOM      8  C   LIG A   1     -10.692   6.280 132.415  0.00  0.00    +0.019 A 
ATOM      9  C   LIG A   1     -11.707   6.711 131.558  0.00  0.00    +0.046 A 
ATOM     10  C   LIG A   1     -11.381   7.144 130.274  0.00  0.00    +0.120 A 
ATOM     11  C   LIG A   1     -10.061   7.151 129.832  0.00  0.00    +0.092 A 
ENDROOT
BRANCH   4  12
ATOM     12  C   LIG A   1      -5.397   6.396 130.424  0.00  0.00    +0.018 A 
ATOM     13  C   LIG A   1      -4.805   5.244 129.880  0.00  0.00    +0.015 A 
ATOM     14  C   LIG A   1      -3.531   5.293 129.306  0.00  0.00    +0.046 A 
ATOM     15  C   LIG A   1      -2.839   6.499 129.279  0.00  0.00    +0.117 A 
ATOM     16  C   LIG A   1      -3.399   7.649 129.819  0.00  0.00    +0.046 A 
ATOM     17  C   LIG A   1      -4.672   7.599 130.393  0.00  0.00    +0.015 A 
BRANCH  15  18
ATOM     18  O   LIG A   1      -1.596   6.595 128.731  0.00  0.00    -0.507 OA
ATOM     19  H   LIG A   1      -1.654   6.370 127.788  0.00  0.00    +0.292 HD
ENDBRANCH  15  18
ENDBRANCH   4  12
BRANCH  10  20
ATOM     20  O   LIG A   1     -12.340   7.573 129.407  0.00  0.00    -0.507 OA
ATOM     21  H   LIG A   1     -12.193   8.514 129.213  0.00  0.00    +0.292 HD
ENDBRANCH  10  20
TORSDOF 3
ENDMDL
MODEL 9
REMARK VINA RESULT:      -6.6      8.694      9.276
REMARK  Name = NuBBE_181
REMARK  3 active torsions:
REMARK  status: ('A' for Active; 'I' for Inactive)
REMARK    1  A    between atoms: C_4  and  C_13
REMARK    2  A    between atoms: C_10  and  O_11
REMARK    3  A    between atoms: C_16  and  O_19
REMARK                            x       y       z     vdW  Elec       q    Type
REMARK                         _______ _______ _______ _____ _____    ______ ____
ROOT
ATOM      1  O   LIG A   1      -9.656  -2.018 123.249  0.00  0.00    -0.287 OA
ATOM      2  C   LIG A   1      -9.084  -1.435 124.160  0.00  0.00    +0.193 A 
ATOM      3  C   LIG A   1      -8.542  -2.172 125.312  0.00  0.00    +0.098 A 
ATOM      4  C   LIG A   1      -7.914  -1.498 126.287  0.00  0.00    +0.139 A 
ATOM      5  O   LIG A   1      -7.749  -0.120 126.301  0.00  0.00    -0.455 OA
ATOM      6  C   LIG A   1      -8.238   0.606 125.245  0.00  0.00    +0.143 A 
ATOM      7  C   LIG A   1      -8.900   0.024 124.168  0.00  0.00    +0.064 A 
ATOM      8  C   LIG A   1      -9.380   0.812 123.117  0.00  0.00    +0.019 A 
ATOM      9  C   LIG A   1      -9.193   2.195 123.151  0.00  0.00    +0.046 A 
ATOM     10  C   LIG A   1      -8.530   2.769 124.234  0.00  0.00    +0.120 A 
ATOM     11  C   LIG A   1      -8.051   1.987 125.280  0.00  0.00    +0.092 A 
ENDROOT
BRANCH   4  12
ATOM     12  C   LIG A   1      -7.360  -2.183 127.472  0.00  0.00    +0.018 A 
ATOM     13  C   LIG A   1      -5.987  -2.096 127.755  0.00  0.00    +0.015 A 
ATOM     14  C   LIG A   1      -5.439  -2.745 128.866  0.00  0.00    +0.046 A 
ATOM     15  C   LIG A   1      -6.265  -3.493 129.697  0.00  0.00    +0.117 A 
ATOM     16  C   LIG A   1      -7.624  -3.603 129.433  0.00  0.00    +0.046 A 
ATOM     17  C   LIG A   1      -8.171  -2.954 128.322  0.00  0.00    +0.015 A 
BRANCH  15  18
ATOM     18  O   LIG A   1      -5.776  -4.143 130.789  0.00  0.00    -0.507 OA
ATOM     19  H   LIG A   1      -6.426  -4.075 131.508  0.00  0.00    +0.292 HD
ENDBRANCH  15  18
ENDBRANCH   4  12
BRANCH  10  20
ATOM     20  O   LIG A   1      -8.327   4.115 124.306  0.00  0.00    -0.507 OA
ATOM     21  H   LIG A   1      -7.495   4.334 123.855  0.00  0.00    +0.292 HD
ENDBRANCH  10  20
TORSDOF 3
ENDMDL
