MODEL 1
REMARK VINA RESULT:      -6.5      0.000      0.000
REMARK  Name = NuBBE_352
REMARK  8 active torsions:
REMARK  status: ('A' for Active; 'I' for Inactive)
REMARK    1  A    between atoms: C_2  and  O_3
REMARK    2  A    between atoms: C_2  and  C_5
REMARK    3  A    between atoms: O_3  and  C_4
REMARK    4  A    between atoms: C_8  and  O_9
REMARK    5  A    between atoms: C_10  and  C_11
REMARK    6  A    between atoms: C_11  and  C_12
REMARK    7  A    between atoms: C_13  and  C_14
REMARK    8  A    between atoms: C_13  and  C_15
REMARK                            x       y       z     vdW  Elec       q    Type
REMARK                         _______ _______ _______ _____ _____    ______ ____
ROOT
ATOM      1  C   LIG A   1     -10.858   7.547 129.870  0.00  0.00    +0.059 A 
ATOM      2  C   LIG A   1     -11.932   7.092 130.646  0.00  0.00    +0.018 A 
ATOM      3  C   LIG A   1     -11.693   6.341 131.798  0.00  0.00    +0.046 A 
ATOM      4  C   LIG A   1     -10.381   6.041 132.175  0.00  0.00    +0.120 A 
ATOM      5  C   LIG A   1      -9.293   6.485 131.419  0.00  0.00    -0.002 A 
ATOM      6  C   LIG A   1      -9.546   7.244 130.268  0.00  0.00    +0.022 A 
ENDROOT
BRANCH   1   8
ATOM      7  O   LIG A   1     -12.044   9.124 128.494  0.00  0.00    -0.245 OA
ATOM      8  C   LIG A   1     -11.126   8.322 128.628  0.00  0.00    +0.339 C 
BRANCH   8   9
ATOM      9  O   LIG A   1     -10.220   7.972 127.687  0.00  0.00    -0.465 OA
ATOM     10  C   LIG A   1     -10.749   7.390 126.498  0.00  0.00    +0.280 C 
ENDBRANCH   8   9
ENDBRANCH   1   8
BRANCH   4  11
ATOM     11  O   LIG A   1     -10.144   5.303 133.299  0.00  0.00    -0.506 OA
ATOM     12  H   LIG A   1     -10.078   4.366 133.050  0.00  0.00    +0.292 HD
ENDBRANCH   4  11
BRANCH   5  13
ATOM     13  C   LIG A   1      -7.861   6.209 131.813  0.00  0.00    +0.066 C 
BRANCH  13  14
ATOM     14  C   LIG A   1      -6.877   7.000 130.990  0.00  0.00    -0.023 C 
ATOM     15  C   LIG A   1      -5.531   6.992 131.079  0.00  0.00    -0.079 C 
ATOM     16  C   LIG A   1      -4.734   6.136 132.024  0.00  0.00    +0.038 C 
ATOM     17  C   LIG A   1      -4.693   7.891 130.207  0.00  0.00    +0.038 C 
ENDBRANCH  13  14
ENDBRANCH   5  13
TORSDOF 5
ENDMDL
MODEL 2
REMARK VINA RESULT:      -6.2      2.063      3.946
REMARK  Name = NuBBE_352
REMARK  8 active torsions:
REMARK  status: ('A' for Active; 'I' for Inactive)
REMARK    1  A    between atoms: C_2  and  O_3
REMARK    2  A    between atoms: C_2  and  C_5
REMARK    3  A    between atoms: O_3  and  C_4
REMARK    4  A    between atoms: C_8  and  O_9
REMARK    5  A    between atoms: C_10  and  C_11
REMARK    6  A    between atoms: C_11  and  C_12
REMARK    7  A    between atoms: C_13  and  C_14
REMARK    8  A    between atoms: C_13  and  C_15
REMARK                            x       y       z     vdW  Elec       q    Type
REMARK                         _______ _______ _______ _____ _____    ______ ____
ROOT
ATOM      1  C   LIG A   1     -11.994   8.327 129.138  0.00  0.00    +0.059 A 
ATOM      2  C   LIG A   1     -12.139   8.493 127.754  0.00  0.00    +0.018 A 
ATOM      3  C   LIG A   1     -11.332   7.767 126.875  0.00  0.00    +0.046 A 
ATOM      4  C   LIG A   1     -10.380   6.877 127.377  0.00  0.00    +0.120 A 
ATOM      5  C   LIG A   1     -10.218   6.692 128.752  0.00  0.00    -0.002 A 
ATOM      6  C   LIG A   1     -11.038   7.421 129.625  0.00  0.00    +0.022 A 
ENDROOT
BRANCH   1   8
ATOM      7  O   LIG A   1     -13.090   8.809 131.223  0.00  0.00    -0.245 OA
ATOM      8  C   LIG A   1     -12.839   9.126 130.066  0.00  0.00    +0.339 C 
BRANCH   8   9
ATOM      9  O   LIG A   1     -13.294  10.220 129.414  0.00  0.00    -0.465 OA
ATOM     10  C   LIG A   1     -13.584  11.355 130.228  0.00  0.00    +0.280 C 
ENDBRANCH   8   9
ENDBRANCH   1   8
BRANCH   4  11
ATOM     11  O   LIG A   1      -9.587   6.169 126.520  0.00  0.00    -0.506 OA
ATOM     12  H   LIG A   1     -10.094   5.418 126.172  0.00  0.00    +0.292 HD
ENDBRANCH   4  11
BRANCH   5  13
ATOM     13  C   LIG A   1      -9.222   5.713 129.330  0.00  0.00    +0.066 C 
BRANCH  13  14
ATOM     14  C   LIG A   1      -9.281   5.657 130.835  0.00  0.00    -0.023 C 
ATOM     15  C   LIG A   1      -8.352   6.085 131.715  0.00  0.00    -0.079 C 
ATOM     16  C   LIG A   1      -7.056   6.752 131.345  0.00  0.00    +0.038 C 
ATOM     17  C   LIG A   1      -8.549   5.904 133.198  0.00  0.00    +0.038 C 
ENDBRANCH  13  14
ENDBRANCH   5  13
TORSDOF 5
ENDMDL
MODEL 3
REMARK VINA RESULT:      -6.1      2.697      3.481
REMARK  Name = NuBBE_352
REMARK  8 active torsions:
REMARK  status: ('A' for Active; 'I' for Inactive)
REMARK    1  A    between atoms: C_2  and  O_3
REMARK    2  A    between atoms: C_2  and  C_5
REMARK    3  A    between atoms: O_3  and  C_4
REMARK    4  A    between atoms: C_8  and  O_9
REMARK    5  A    between atoms: C_10  and  C_11
REMARK    6  A    between atoms: C_11  and  C_12
REMARK    7  A    between atoms: C_13  and  C_14
REMARK    8  A    between atoms: C_13  and  C_15
REMARK                            x       y       z     vdW  Elec       q    Type
REMARK                         _______ _______ _______ _____ _____    ______ ____
ROOT
ATOM      1  C   LIG A   1     -12.227   6.847 129.179  0.00  0.00    +0.059 A 
ATOM      2  C   LIG A   1     -12.882   7.358 130.306  0.00  0.00    +0.018 A 
ATOM      3  C   LIG A   1     -12.397   7.076 131.584  0.00  0.00    +0.046 A 
ATOM      4  C   LIG A   1     -11.259   6.281 131.738  0.00  0.00    +0.120 A 
ATOM      5  C   LIG A   1     -10.586   5.760 130.630  0.00  0.00    -0.002 A 
ATOM      6  C   LIG A   1     -11.079   6.056 129.351  0.00  0.00    +0.022 A 
ENDROOT
BRANCH   1   8
ATOM      7  O   LIG A   1     -13.862   7.639 127.603  0.00  0.00    -0.245 OA
ATOM      8  C   LIG A   1     -12.768   7.130 127.822  0.00  0.00    +0.339 C 
BRANCH   8   9
ATOM      9  O   LIG A   1     -11.877   6.709 126.896  0.00  0.00    -0.465 OA
ATOM     10  C   LIG A   1     -11.115   7.731 126.255  0.00  0.00    +0.280 C 
ENDBRANCH   8   9
ENDBRANCH   1   8
BRANCH   4  11
ATOM     11  O   LIG A   1     -10.785   5.999 132.988  0.00  0.00    -0.506 OA
ATOM     12  H   LIG A   1     -10.290   5.164 132.954  0.00  0.00    +0.292 HD
ENDBRANCH   4  11
BRANCH   5  13
ATOM     13  C   LIG A   1      -9.333   4.925 130.756  0.00  0.00    +0.066 C 
BRANCH  13  14
ATOM     14  C   LIG A   1      -9.635   3.453 130.874  0.00  0.00    -0.023 C 
ATOM     15  C   LIG A   1      -9.492   2.665 131.959  0.00  0.00    -0.079 C 
ATOM     16  C   LIG A   1      -9.021   3.132 133.308  0.00  0.00    +0.038 C 
ATOM     17  C   LIG A   1      -9.793   1.190 131.889  0.00  0.00    +0.038 C 
ENDBRANCH  13  14
ENDBRANCH   5  13
TORSDOF 5
ENDMDL
MODEL 4
REMARK VINA RESULT:      -6.0      9.384     11.318
REMARK  Name = NuBBE_352
REMARK  8 active torsions:
REMARK  status: ('A' for Active; 'I' for Inactive)
REMARK    1  A    between atoms: C_2  and  O_3
REMARK    2  A    between atoms: C_2  and  C_5
REMARK    3  A    between atoms: O_3  and  C_4
REMARK    4  A    between atoms: C_8  and  O_9
REMARK    5  A    between atoms: C_10  and  C_11
REMARK    6  A    between atoms: C_11  and  C_12
REMARK    7  A    between atoms: C_13  and  C_14
REMARK    8  A    between atoms: C_13  and  C_15
REMARK                            x       y       z     vdW  Elec       q    Type
REMARK                         _______ _______ _______ _____ _____    ______ ____
ROOT
ATOM      1  C   LIG A   1      -7.172  -1.088 123.619  0.00  0.00    +0.059 A 
ATOM      2  C   LIG A   1      -8.196  -1.949 123.202  0.00  0.00    +0.018 A 
ATOM      3  C   LIG A   1      -9.432  -1.428 122.815  0.00  0.00    +0.046 A 
ATOM      4  C   LIG A   1      -9.648  -0.049 122.846  0.00  0.00    +0.120 A 
ATOM      5  C   LIG A   1      -8.643   0.831 123.256  0.00  0.00    -0.002 A 
ATOM      6  C   LIG A   1      -7.404   0.297 123.636  0.00  0.00    +0.022 A 
ENDROOT
BRANCH   1   8
ATOM      7  O   LIG A   1      -5.283  -1.338 125.086  0.00  0.00    -0.245 OA
ATOM      8  C   LIG A   1      -5.868  -1.656 124.057  0.00  0.00    +0.339 C 
BRANCH   8   9
ATOM      9  O   LIG A   1      -5.437  -2.537 123.126  0.00  0.00    -0.465 OA
ATOM     10  C   LIG A   1      -4.860  -3.740 123.628  0.00  0.00    +0.280 C 
ENDBRANCH   8   9
ENDBRANCH   1   8
BRANCH   4  11
ATOM     11  O   LIG A   1     -10.858   0.463 122.472  0.00  0.00    -0.506 OA
ATOM     12  H   LIG A   1     -10.709   1.254 121.929  0.00  0.00    +0.292 HD
ENDBRANCH   4  11
BRANCH   5  13
ATOM     13  C   LIG A   1      -8.829   2.330 123.270  0.00  0.00    +0.066 C 
BRANCH  13  14
ATOM     14  C   LIG A   1      -8.566   2.953 121.924  0.00  0.00    -0.023 C 
ATOM     15  C   LIG A   1      -7.405   3.463 121.462  0.00  0.00    -0.079 C 
ATOM     16  C   LIG A   1      -6.106   3.471 122.218  0.00  0.00    +0.038 C 
ATOM     17  C   LIG A   1      -7.328   4.101 120.099  0.00  0.00    +0.038 C 
ENDBRANCH  13  14
ENDBRANCH   5  13
TORSDOF 5
ENDMDL
MODEL 5
REMARK VINA RESULT:      -5.9     10.694     11.897
REMARK  Name = NuBBE_352
REMARK  8 active torsions:
REMARK  status: ('A' for Active; 'I' for Inactive)
REMARK    1  A    between atoms: C_2  and  O_3
REMARK    2  A    between atoms: C_2  and  C_5
REMARK    3  A    between atoms: O_3  and  C_4
REMARK    4  A    between atoms: C_8  and  O_9
REMARK    5  A    between atoms: C_10  and  C_11
REMARK    6  A    between atoms: C_11  and  C_12
REMARK    7  A    between atoms: C_13  and  C_14
REMARK    8  A    between atoms: C_13  and  C_15
REMARK                            x       y       z     vdW  Elec       q    Type
REMARK                         _______ _______ _______ _____ _____    ______ ____
ROOT
ATOM      1  C   LIG A   1      -7.491  -3.176 129.159  0.00  0.00    +0.059 A 
ATOM      2  C   LIG A   1      -8.708  -3.794 128.843  0.00  0.00    +0.018 A 
ATOM      3  C   LIG A   1      -9.203  -3.734 127.539  0.00  0.00    +0.046 A 
ATOM      4  C   LIG A   1      -8.486  -3.057 126.551  0.00  0.00    +0.120 A 
ATOM      5  C   LIG A   1      -7.268  -2.434 126.840  0.00  0.00    -0.002 A 
ATOM      6  C   LIG A   1      -6.778  -2.506 128.151  0.00  0.00    +0.022 A 
ENDROOT
BRANCH   1   8
ATOM      7  O   LIG A   1      -7.639  -2.895 131.543  0.00  0.00    -0.245 OA
ATOM      8  C   LIG A   1      -6.986  -3.221 130.558  0.00  0.00    +0.339 C 
BRANCH   8   9
ATOM      9  O   LIG A   1      -5.701  -3.642 130.549  0.00  0.00    -0.465 OA
ATOM     10  C   LIG A   1      -5.495  -5.020 130.857  0.00  0.00    +0.280 C 
ENDBRANCH   8   9
ENDBRANCH   1   8
BRANCH   4  11
ATOM     11  O   LIG A   1      -8.970  -2.993 125.276  0.00  0.00    -0.506 OA
ATOM     12  H   LIG A   1      -9.194  -2.070 125.071  0.00  0.00    +0.292 HD
ENDBRANCH   4  11
BRANCH   5  13
ATOM     13  C   LIG A   1      -6.449  -1.721 125.790  0.00  0.00    +0.066 C 
BRANCH  13  14
ATOM     14  C   LIG A   1      -5.428  -2.626 125.148  0.00  0.00    -0.023 C 
ATOM     15  C   LIG A   1      -5.263  -2.883 123.834  0.00  0.00    -0.079 C 
ATOM     16  C   LIG A   1      -6.072  -2.268 122.727  0.00  0.00    +0.038 C 
ATOM     17  C   LIG A   1      -4.219  -3.861 123.362  0.00  0.00    +0.038 C 
ENDBRANCH  13  14
ENDBRANCH   5  13
TORSDOF 5
ENDMDL
MODEL 6
REMARK VINA RESULT:      -5.8      9.107     10.122
REMARK  Name = NuBBE_352
REMARK  8 active torsions:
REMARK  status: ('A' for Active; 'I' for Inactive)
REMARK    1  A    between atoms: C_2  and  O_3
REMARK    2  A    between atoms: C_2  and  C_5
REMARK    3  A    between atoms: O_3  and  C_4
REMARK    4  A    between atoms: C_8  and  O_9
REMARK    5  A    between atoms: C_10  and  C_11
REMARK    6  A    between atoms: C_11  and  C_12
REMARK    7  A    between atoms: C_13  and  C_14
REMARK    8  A    between atoms: C_13  and  C_15
REMARK                            x       y       z     vdW  Elec       q    Type
REMARK                         _______ _______ _______ _____ _____    ______ ____
ROOT
ATOM      1  C   LIG A   1      -7.190   2.707 122.981  0.00  0.00    +0.059 A 
ATOM      2  C   LIG A   1      -8.545   2.690 122.626  0.00  0.00    +0.018 A 
ATOM      3  C   LIG A   1      -9.382   1.685 123.116  0.00  0.00    +0.046 A 
ATOM      4  C   LIG A   1      -8.867   0.696 123.957  0.00  0.00    +0.120 A 
ATOM      5  C   LIG A   1      -7.519   0.692 124.327  0.00  0.00    -0.002 A 
ATOM      6  C   LIG A   1      -6.690   1.710 123.834  0.00  0.00    +0.022 A 
ENDROOT
BRANCH   1   8
ATOM      7  O   LIG A   1      -5.658   4.557 123.113  0.00  0.00    -0.245 OA
ATOM      8  C   LIG A   1      -6.300   3.766 122.431  0.00  0.00    +0.339 C 
BRANCH   8   9
ATOM      9  O   LIG A   1      -6.349   3.722 121.080  0.00  0.00    -0.465 OA
ATOM     10  C   LIG A   1      -5.460   4.603 120.396  0.00  0.00    +0.280 C 
ENDBRANCH   8   9
ENDBRANCH   1   8
BRANCH   4  11
ATOM     11  O   LIG A   1      -9.682  -0.290 124.433  0.00  0.00    -0.506 OA
ATOM     12  H   LIG A   1      -9.750  -0.991 123.764  0.00  0.00    +0.292 HD
ENDBRANCH   4  11
BRANCH   5  13
ATOM     13  C   LIG A   1      -6.934  -0.341 125.261  0.00  0.00    +0.066 C 
BRANCH  13  14
ATOM     14  C   LIG A   1      -5.909  -1.212 124.582  0.00  0.00    -0.023 C 
ATOM     15  C   LIG A   1      -6.065  -2.475 124.134  0.00  0.00    -0.079 C 
ATOM     16  C   LIG A   1      -7.345  -3.261 124.200  0.00  0.00    +0.038 C 
ATOM     17  C   LIG A   1      -4.912  -3.226 123.521  0.00  0.00    +0.038 C 
ENDBRANCH  13  14
ENDBRANCH   5  13
TORSDOF 5
ENDMDL
MODEL 7
REMARK VINA RESULT:      -5.8      8.328     10.290
REMARK  Name = NuBBE_352
REMARK  8 active torsions:
REMARK  status: ('A' for Active; 'I' for Inactive)
REMARK    1  A    between atoms: C_2  and  O_3
REMARK    2  A    between atoms: C_2  and  C_5
REMARK    3  A    between atoms: O_3  and  C_4
REMARK    4  A    between atoms: C_8  and  O_9
REMARK    5  A    between atoms: C_10  and  C_11
REMARK    6  A    between atoms: C_11  and  C_12
REMARK    7  A    between atoms: C_13  and  C_14
REMARK    8  A    between atoms: C_13  and  C_15
REMARK                            x       y       z     vdW  Elec       q    Type
REMARK                         _______ _______ _______ _____ _____    ______ ____
ROOT
ATOM      1  C   LIG A   1      -8.624  -0.431 124.220  0.00  0.00    +0.059 A 
ATOM      2  C   LIG A   1      -8.951  -0.048 125.528  0.00  0.00    +0.018 A 
ATOM      3  C   LIG A   1      -9.118   1.303 125.838  0.00  0.00    +0.046 A 
ATOM      4  C   LIG A   1      -8.957   2.272 124.844  0.00  0.00    +0.120 A 
ATOM      5  C   LIG A   1      -8.634   1.915 123.533  0.00  0.00    -0.002 A 
ATOM      6  C   LIG A   1      -8.475   0.555 123.232  0.00  0.00    +0.022 A 
ENDROOT
BRANCH   1   8
ATOM      7  O   LIG A   1      -9.242  -2.582 123.339  0.00  0.00    -0.245 OA
ATOM      8  C   LIG A   1      -8.420  -1.872 123.907  0.00  0.00    +0.339 C 
BRANCH   8   9
ATOM      9  O   LIG A   1      -7.211  -2.256 124.374  0.00  0.00    -0.465 OA
ATOM     10  C   LIG A   1      -6.173  -2.365 123.402  0.00  0.00    +0.280 C 
ENDBRANCH   8   9
ENDBRANCH   1   8
BRANCH   4  11
ATOM     11  O   LIG A   1      -9.116   3.594 125.146  0.00  0.00    -0.506 OA
ATOM     12  H   LIG A   1      -9.971   3.713 125.593  0.00  0.00    +0.292 HD
ENDBRANCH   4  11
BRANCH   5  13
ATOM     13  C   LIG A   1      -8.486   2.932 122.425  0.00  0.00    +0.066 C 
BRANCH  13  14
ATOM     14  C   LIG A   1      -7.045   3.284 122.160  0.00  0.00    -0.023 C 
ATOM     15  C   LIG A   1      -6.510   3.779 121.024  0.00  0.00    -0.079 C 
ATOM     16  C   LIG A   1      -7.287   4.114 119.781  0.00  0.00    +0.038 C 
ATOM     17  C   LIG A   1      -5.029   4.028 120.910  0.00  0.00    +0.038 C 
ENDBRANCH  13  14
ENDBRANCH   5  13
TORSDOF 5
ENDMDL
MODEL 8
REMARK VINA RESULT:      -5.6     10.378     11.994
REMARK  Name = NuBBE_352
REMARK  8 active torsions:
REMARK  status: ('A' for Active; 'I' for Inactive)
REMARK    1  A    between atoms: C_2  and  O_3
REMARK    2  A    between atoms: C_2  and  C_5
REMARK    3  A    between atoms: O_3  and  C_4
REMARK    4  A    between atoms: C_8  and  O_9
REMARK    5  A    between atoms: C_10  and  C_11
REMARK    6  A    between atoms: C_11  and  C_12
REMARK    7  A    between atoms: C_13  and  C_14
REMARK    8  A    between atoms: C_13  and  C_15
REMARK                            x       y       z     vdW  Elec       q    Type
REMARK                         _______ _______ _______ _____ _____    ______ ____
ROOT
ATOM      1  C   LIG A   1      -4.956  -3.102 129.358  0.00  0.00    +0.059 A 
ATOM      2  C   LIG A   1      -6.102  -3.697 129.902  0.00  0.00    +0.018 A 
ATOM      3  C   LIG A   1      -7.342  -3.515 129.287  0.00  0.00    +0.046 A 
ATOM      4  C   LIG A   1      -7.440  -2.737 128.130  0.00  0.00    +0.120 A 
ATOM      5  C   LIG A   1      -6.312  -2.135 127.567  0.00  0.00    -0.002 A 
ATOM      6  C   LIG A   1      -5.071  -2.331 128.190  0.00  0.00    +0.022 A 
ENDROOT
BRANCH   1   8
ATOM      7  O   LIG A   1      -2.607  -3.606 129.470  0.00  0.00    -0.245 OA
ATOM      8  C   LIG A   1      -3.644  -3.278 130.037  0.00  0.00    +0.339 C 
BRANCH   8   9
ATOM      9  O   LIG A   1      -3.800  -3.050 131.361  0.00  0.00    -0.465 OA
ATOM     10  C   LIG A   1      -3.445  -1.746 131.814  0.00  0.00    +0.280 C 
ENDBRANCH   8   9
ENDBRANCH   1   8
BRANCH   4  11
ATOM     11  O   LIG A   1      -8.652  -2.554 127.529  0.00  0.00    -0.506 OA
ATOM     12  H   LIG A   1      -8.719  -1.631 127.233  0.00  0.00    +0.292 HD
ENDBRANCH   4  11
BRANCH   5  13
ATOM     13  C   LIG A   1      -6.373  -1.316 126.299  0.00  0.00    +0.066 C 
BRANCH  13  14
ATOM     14  C   LIG A   1      -5.500  -1.881 125.208  0.00  0.00    -0.023 C 
ATOM     15  C   LIG A   1      -5.786  -2.892 124.362  0.00  0.00    -0.079 C 
ATOM     16  C   LIG A   1      -7.087  -3.645 124.326  0.00  0.00    +0.038 C 
ATOM     17  C   LIG A   1      -4.771  -3.369 123.356  0.00  0.00    +0.038 C 
ENDBRANCH  13  14
ENDBRANCH   5  13
TORSDOF 5
ENDMDL
MODEL 9
REMARK VINA RESULT:      -5.5      1.829      2.267
REMARK  Name = NuBBE_352
REMARK  8 active torsions:
REMARK  status: ('A' for Active; 'I' for Inactive)
REMARK    1  A    between atoms: C_2  and  O_3
REMARK    2  A    between atoms: C_2  and  C_5
REMARK    3  A    between atoms: O_3  and  C_4
REMARK    4  A    between atoms: C_8  and  O_9
REMARK    5  A    between atoms: C_10  and  C_11
REMARK    6  A    between atoms: C_11  and  C_12
REMARK    7  A    between atoms: C_13  and  C_14
REMARK    8  A    between atoms: C_13  and  C_15
REMARK                            x       y       z     vdW  Elec       q    Type
REMARK                         _______ _______ _______ _____ _____    ______ ____
ROOT
ATOM      1  C   LIG A   1     -11.265   6.022 130.849  0.00  0.00    +0.059 A 
ATOM      2  C   LIG A   1     -11.343   4.709 130.368  0.00  0.00    +0.018 A 
ATOM      3  C   LIG A   1     -10.236   3.862 130.467  0.00  0.00    +0.046 A 
ATOM      4  C   LIG A   1      -9.052   4.326 131.045  0.00  0.00    +0.120 A 
ATOM      5  C   LIG A   1      -8.950   5.631 131.534  0.00  0.00    -0.002 A 
ATOM      6  C   LIG A   1     -10.069   6.470 131.435  0.00  0.00    +0.022 A 
ENDROOT
BRANCH   1   8
ATOM      7  O   LIG A   1     -13.149   7.287 131.645  0.00  0.00    -0.245 OA
ATOM      8  C   LIG A   1     -12.440   6.925 130.713  0.00  0.00    +0.339 C 
BRANCH   8   9
ATOM      9  O   LIG A   1     -12.602   7.242 129.408  0.00  0.00    -0.465 OA
ATOM     10  C   LIG A   1     -11.948   8.432 128.971  0.00  0.00    +0.280 C 
ENDBRANCH   8   9
ENDBRANCH   1   8
BRANCH   4  11
ATOM     11  O   LIG A   1      -7.968   3.502 131.139  0.00  0.00    -0.506 OA
ATOM     12  H   LIG A   1      -7.552   3.630 132.007  0.00  0.00    +0.292 HD
ENDBRANCH   4  11
BRANCH   5  13
ATOM     13  C   LIG A   1      -7.698   6.157 132.195  0.00  0.00    +0.066 C 
BRANCH  13  14
ATOM     14  C   LIG A   1      -6.765   6.817 131.212  0.00  0.00    -0.023 C 
ATOM     15  C   LIG A   1      -5.420   6.891 131.271  0.00  0.00    -0.079 C 
ATOM     16  C   LIG A   1      -4.569   6.278 132.349  0.00  0.00    +0.038 C 
ATOM     17  C   LIG A   1      -4.638   7.639 130.223  0.00  0.00    +0.038 C 
ENDBRANCH  13  14
ENDBRANCH   5  13
TORSDOF 5
ENDMDL
