MODEL 1
REMARK VINA RESULT:      -8.1      0.000      0.000
REMARK  Name = NuBBE_1647
REMARK  5 active torsions:
REMARK  status: ('A' for Active; 'I' for Inactive)
REMARK    1  A    between atoms: C_1  and  C_2
REMARK    2  A    between atoms: C_4  and  C_17
REMARK    3  A    between atoms: C_9  and  C_11
REMARK    4  A    between atoms: C_14  and  O_16
REMARK    5  A    between atoms: C_20  and  O_23
REMARK                            x       y       z     vdW  Elec       q    Type
REMARK                         _______ _______ _______ _____ _____    ______ ____
ROOT
ATOM      1  C   LIG A   1      -9.470  -3.256 123.205  0.00  0.00    +0.009 C 
ATOM      2  C   LIG A   1      -8.398  -3.070 124.297  0.00  0.00    +0.001 C 
ATOM      3  C   LIG A   1      -8.801  -1.894 125.236  0.00  0.00    +0.052 C 
ATOM      4  C   LIG A   1      -8.355  -0.527 124.724  0.00  0.00    -0.033 A 
ATOM      5  C   LIG A   1      -7.430  -0.381 123.674  0.00  0.00    -0.043 A 
ATOM      6  C   LIG A   1      -6.873  -1.563 122.922  0.00  0.00    +0.039 C 
ATOM      7  C   LIG A   1      -7.002  -2.902 123.657  0.00  0.00    -0.006 C 
ATOM      8  C   LIG A   1      -5.855  -3.090 124.655  0.00  0.00    +0.008 C 
ATOM      9  C   LIG A   1      -7.066   0.910 123.248  0.00  0.00    +0.007 A 
ATOM     10  C   LIG A   1      -7.601   2.045 123.858  0.00  0.00    +0.045 A 
ATOM     11  C   LIG A   1      -8.516   1.894 124.888  0.00  0.00    +0.117 A 
ATOM     12  C   LIG A   1      -8.898   0.630 125.318  0.00  0.00    +0.049 A 
ENDROOT
BRANCH   3  13
ATOM     13  C   LIG A   1      -8.449  -2.196 126.700  0.00  0.00    -0.040 A 
ATOM     14  C   LIG A   1      -7.721  -1.315 127.517  0.00  0.00    +0.008 A 
ATOM     15  C   LIG A   1      -7.428  -1.640 128.845  0.00  0.00    +0.045 A 
ATOM     16  C   LIG A   1      -7.862  -2.851 129.367  0.00  0.00    +0.117 A 
ATOM     17  C   LIG A   1      -8.585  -3.741 128.585  0.00  0.00    +0.045 A 
ATOM     18  C   LIG A   1      -8.879  -3.415 127.260  0.00  0.00    +0.008 A 
BRANCH  16  19
ATOM     19  O   LIG A   1      -7.597  -3.206 130.657  0.00  0.00    -0.507 OA
ATOM     20  H   LIG A   1      -6.728  -3.639 130.682  0.00  0.00    +0.292 HD
ENDBRANCH  16  19
ENDBRANCH   3  13
BRANCH  11  21
ATOM     21  O   LIG A   1      -9.073   2.973 125.509  0.00  0.00    -0.507 OA
ATOM     22  H   LIG A   1      -9.796   2.662 126.077  0.00  0.00    +0.292 HD
ENDBRANCH  11  21
TORSDOF 3
ENDMDL
MODEL 2
REMARK VINA RESULT:      -7.8      1.083      5.222
REMARK  Name = NuBBE_1647
REMARK  5 active torsions:
REMARK  status: ('A' for Active; 'I' for Inactive)
REMARK    1  A    between atoms: C_1  and  C_2
REMARK    2  A    between atoms: C_4  and  C_17
REMARK    3  A    between atoms: C_9  and  C_11
REMARK    4  A    between atoms: C_14  and  O_16
REMARK    5  A    between atoms: C_20  and  O_23
REMARK                            x       y       z     vdW  Elec       q    Type
REMARK                         _______ _______ _______ _____ _____    ______ ____
ROOT
ATOM      1  C   LIG A   1      -5.446  -3.158 124.129  0.00  0.00    +0.009 C 
ATOM      2  C   LIG A   1      -6.701  -2.262 124.100  0.00  0.00    +0.001 C 
ATOM      3  C   LIG A   1      -6.786  -1.431 125.417  0.00  0.00    +0.052 C 
ATOM      4  C   LIG A   1      -7.476  -2.171 126.558  0.00  0.00    -0.033 A 
ATOM      5  C   LIG A   1      -8.214  -3.352 126.355  0.00  0.00    -0.043 A 
ATOM      6  C   LIG A   1      -8.306  -4.020 125.006  0.00  0.00    +0.039 C 
ATOM      7  C   LIG A   1      -7.962  -3.111 123.822  0.00  0.00    -0.006 C 
ATOM      8  C   LIG A   1      -9.173  -2.271 123.406  0.00  0.00    +0.008 C 
ATOM      9  C   LIG A   1      -8.822  -3.985 127.454  0.00  0.00    +0.007 A 
ATOM     10  C   LIG A   1      -8.715  -3.454 128.740  0.00  0.00    +0.045 A 
ATOM     11  C   LIG A   1      -7.982  -2.293 128.935  0.00  0.00    +0.117 A 
ATOM     12  C   LIG A   1      -7.364  -1.656 127.866  0.00  0.00    +0.049 A 
ENDROOT
BRANCH   3  13
ATOM     13  C   LIG A   1      -7.292  -0.006 125.152  0.00  0.00    -0.040 A 
ATOM     14  C   LIG A   1      -8.569   0.442 125.528  0.00  0.00    +0.008 A 
ATOM     15  C   LIG A   1      -8.981   1.752 125.261  0.00  0.00    +0.045 A 
ATOM     16  C   LIG A   1      -8.115   2.625 124.616  0.00  0.00    +0.117 A 
ATOM     17  C   LIG A   1      -6.847   2.211 124.233  0.00  0.00    +0.045 A 
ATOM     18  C   LIG A   1      -6.436   0.904 124.502  0.00  0.00    +0.008 A 
BRANCH  16  19
ATOM     19  O   LIG A   1      -8.477   3.910 124.338  0.00  0.00    -0.507 OA
ATOM     20  H   LIG A   1      -8.858   4.301 125.141  0.00  0.00    +0.292 HD
ENDBRANCH  16  19
ENDBRANCH   3  13
BRANCH  11  21
ATOM     21  O   LIG A   1      -7.841  -1.740 130.173  0.00  0.00    -0.507 OA
ATOM     22  H   LIG A   1      -7.290  -0.945 130.094  0.00  0.00    +0.292 HD
ENDBRANCH  11  21
TORSDOF 3
ENDMDL
MODEL 3
REMARK VINA RESULT:      -7.0      1.778      5.081
REMARK  Name = NuBBE_1647
REMARK  5 active torsions:
REMARK  status: ('A' for Active; 'I' for Inactive)
REMARK    1  A    between atoms: C_1  and  C_2
REMARK    2  A    between atoms: C_4  and  C_17
REMARK    3  A    between atoms: C_9  and  C_11
REMARK    4  A    between atoms: C_14  and  O_16
REMARK    5  A    between atoms: C_20  and  O_23
REMARK                            x       y       z     vdW  Elec       q    Type
REMARK                         _______ _______ _______ _____ _____    ______ ____
ROOT
ATOM      1  C   LIG A   1      -5.189  -3.280 124.159  0.00  0.00    +0.009 C 
ATOM      2  C   LIG A   1      -6.129  -2.074 124.356  0.00  0.00    +0.001 C 
ATOM      3  C   LIG A   1      -6.117  -1.635 125.852  0.00  0.00    +0.052 C 
ATOM      4  C   LIG A   1      -7.107  -2.406 126.720  0.00  0.00    -0.033 A 
ATOM      5  C   LIG A   1      -8.121  -3.214 126.172  0.00  0.00    -0.043 A 
ATOM      6  C   LIG A   1      -8.252  -3.442 124.687  0.00  0.00    +0.039 C 
ATOM      7  C   LIG A   1      -7.541  -2.399 123.818  0.00  0.00    -0.006 C 
ATOM      8  C   LIG A   1      -8.414  -1.155 123.629  0.00  0.00    +0.008 C 
ATOM      9  C   LIG A   1      -8.997  -3.901 127.031  0.00  0.00    +0.007 A 
ATOM     10  C   LIG A   1      -8.883  -3.787 128.416  0.00  0.00    +0.045 A 
ATOM     11  C   LIG A   1      -7.878  -2.994 128.950  0.00  0.00    +0.117 A 
ATOM     12  C   LIG A   1      -6.995  -2.314 128.121  0.00  0.00    +0.049 A 
ENDROOT
BRANCH   3  13
ATOM     13  C   LIG A   1      -6.170  -0.107 125.991  0.00  0.00    -0.040 A 
ATOM     14  C   LIG A   1      -5.031   0.713 125.929  0.00  0.00    +0.008 A 
ATOM     15  C   LIG A   1      -5.135   2.102 126.063  0.00  0.00    +0.045 A 
ATOM     16  C   LIG A   1      -6.383   2.681 126.258  0.00  0.00    +0.117 A 
ATOM     17  C   LIG A   1      -7.525   1.896 126.321  0.00  0.00    +0.045 A 
ATOM     18  C   LIG A   1      -7.420   0.511 126.186  0.00  0.00    +0.008 A 
BRANCH  16  19
ATOM     19  O   LIG A   1      -6.528   4.030 126.392  0.00  0.00    -0.507 OA
ATOM     20  H   LIG A   1      -7.471   4.246 126.310  0.00  0.00    +0.292 HD
ENDBRANCH  16  19
ENDBRANCH   3  13
BRANCH  11  21
ATOM     21  O   LIG A   1      -7.720  -2.858 130.298  0.00  0.00    -0.507 OA
ATOM     22  H   LIG A   1      -8.307  -3.490 130.742  0.00  0.00    +0.292 HD
ENDBRANCH  11  21
TORSDOF 3
ENDMDL
MODEL 4
REMARK VINA RESULT:      -6.9      2.548      4.982
REMARK  Name = NuBBE_1647
REMARK  5 active torsions:
REMARK  status: ('A' for Active; 'I' for Inactive)
REMARK    1  A    between atoms: C_1  and  C_2
REMARK    2  A    between atoms: C_4  and  C_17
REMARK    3  A    between atoms: C_9  and  C_11
REMARK    4  A    between atoms: C_14  and  O_16
REMARK    5  A    between atoms: C_20  and  O_23
REMARK                            x       y       z     vdW  Elec       q    Type
REMARK                         _______ _______ _______ _____ _____    ______ ____
ROOT
ATOM      1  C   LIG A   1      -4.692  -2.363 128.772  0.00  0.00    +0.009 C 
ATOM      2  C   LIG A   1      -6.133  -2.703 128.341  0.00  0.00    +0.001 C 
ATOM      3  C   LIG A   1      -6.696  -1.563 127.440  0.00  0.00    +0.052 C 
ATOM      4  C   LIG A   1      -7.322  -0.417 128.229  0.00  0.00    -0.033 A 
ATOM      5  C   LIG A   1      -7.619  -0.520 129.601  0.00  0.00    -0.043 A 
ATOM      6  C   LIG A   1      -7.265  -1.742 130.410  0.00  0.00    +0.039 C 
ATOM      7  C   LIG A   1      -7.008  -3.003 129.579  0.00  0.00    -0.006 C 
ATOM      8  C   LIG A   1      -8.323  -3.706 129.230  0.00  0.00    +0.008 C 
ATOM      9  C   LIG A   1      -8.192   0.578 130.268  0.00  0.00    +0.007 A 
ATOM     10  C   LIG A   1      -8.479   1.762 129.590  0.00  0.00    +0.045 A 
ATOM     11  C   LIG A   1      -8.178   1.860 128.239  0.00  0.00    +0.117 A 
ATOM     12  C   LIG A   1      -7.603   0.792 127.562  0.00  0.00    +0.049 A 
ENDROOT
BRANCH   3  13
ATOM     13  C   LIG A   1      -7.555  -2.121 126.296  0.00  0.00    -0.040 A 
ATOM     14  C   LIG A   1      -7.019  -2.570 125.077  0.00  0.00    +0.008 A 
ATOM     15  C   LIG A   1      -7.848  -3.070 124.067  0.00  0.00    +0.045 A 
ATOM     16  C   LIG A   1      -9.220  -3.125 124.270  0.00  0.00    +0.117 A 
ATOM     17  C   LIG A   1      -9.778  -2.690 125.463  0.00  0.00    +0.045 A 
ATOM     18  C   LIG A   1      -8.950  -2.193 126.472  0.00  0.00    +0.008 A 
BRANCH  16  19
ATOM     19  O   LIG A   1     -10.062  -3.605 123.311  0.00  0.00    -0.507 OA
ATOM     20  H   LIG A   1     -10.809  -4.043 123.750  0.00  0.00    +0.292 HD
ENDBRANCH  16  19
ENDBRANCH   3  13
BRANCH  11  21
ATOM     21  O   LIG A   1      -8.432   2.999 127.535  0.00  0.00    -0.507 OA
ATOM     22  H   LIG A   1      -7.592   3.461 127.383  0.00  0.00    +0.292 HD
ENDBRANCH  11  21
TORSDOF 3
ENDMDL
MODEL 5
REMARK VINA RESULT:      -6.5      3.377      7.520
REMARK  Name = NuBBE_1647
REMARK  5 active torsions:
REMARK  status: ('A' for Active; 'I' for Inactive)
REMARK    1  A    between atoms: C_1  and  C_2
REMARK    2  A    between atoms: C_4  and  C_17
REMARK    3  A    between atoms: C_9  and  C_11
REMARK    4  A    between atoms: C_14  and  O_16
REMARK    5  A    between atoms: C_20  and  O_23
REMARK                            x       y       z     vdW  Elec       q    Type
REMARK                         _______ _______ _______ _____ _____    ______ ____
ROOT
ATOM      1  C   LIG A   1      -4.249  -0.139 130.893  0.00  0.00    +0.009 C 
ATOM      2  C   LIG A   1      -4.771  -1.371 130.125  0.00  0.00    +0.001 C 
ATOM      3  C   LIG A   1      -6.228  -1.694 130.575  0.00  0.00    +0.052 C 
ATOM      4  C   LIG A   1      -6.299  -2.578 131.817  0.00  0.00    -0.033 A 
ATOM      5  C   LIG A   1      -5.177  -3.263 132.320  0.00  0.00    -0.043 A 
ATOM      6  C   LIG A   1      -3.803  -3.108 131.717  0.00  0.00    +0.039 C 
ATOM      7  C   LIG A   1      -3.795  -2.558 130.287  0.00  0.00    -0.006 C 
ATOM      8  C   LIG A   1      -4.034  -3.677 129.269  0.00  0.00    +0.008 C 
ATOM      9  C   LIG A   1      -5.312  -4.058 133.472  0.00  0.00    +0.007 A 
ATOM     10  C   LIG A   1      -6.543  -4.186 134.117  0.00  0.00    +0.045 A 
ATOM     11  C   LIG A   1      -7.643  -3.504 133.620  0.00  0.00    +0.117 A 
ATOM     12  C   LIG A   1      -7.531  -2.705 132.489  0.00  0.00    +0.049 A 
ENDROOT
BRANCH   3  13
ATOM     13  C   LIG A   1      -7.094  -2.149 129.392  0.00  0.00    -0.040 A 
ATOM     14  C   LIG A   1      -7.807  -3.359 129.377  0.00  0.00    +0.008 A 
ATOM     15  C   LIG A   1      -8.581  -3.726 128.271  0.00  0.00    +0.045 A 
ATOM     16  C   LIG A   1      -8.650  -2.880 127.171  0.00  0.00    +0.117 A 
ATOM     17  C   LIG A   1      -7.959  -1.677 127.158  0.00  0.00    +0.045 A 
ATOM     18  C   LIG A   1      -7.187  -1.312 128.263  0.00  0.00    +0.008 A 
BRANCH  16  19
ATOM     19  O   LIG A   1      -9.394  -3.200 126.074  0.00  0.00    -0.507 OA
ATOM     20  H   LIG A   1      -8.801  -3.250 125.307  0.00  0.00    +0.292 HD
ENDBRANCH  16  19
ENDBRANCH   3  13
BRANCH  11  21
ATOM     21  O   LIG A   1      -8.864  -3.591 134.220  0.00  0.00    -0.507 OA
ATOM     22  H   LIG A   1      -9.535  -3.254 133.604  0.00  0.00    +0.292 HD
ENDBRANCH  11  21
TORSDOF 3
ENDMDL
MODEL 6
REMARK VINA RESULT:      -6.5      9.485     11.099
REMARK  Name = NuBBE_1647
REMARK  5 active torsions:
REMARK  status: ('A' for Active; 'I' for Inactive)
REMARK    1  A    between atoms: C_1  and  C_2
REMARK    2  A    between atoms: C_4  and  C_17
REMARK    3  A    between atoms: C_9  and  C_11
REMARK    4  A    between atoms: C_14  and  O_16
REMARK    5  A    between atoms: C_20  and  O_23
REMARK                            x       y       z     vdW  Elec       q    Type
REMARK                         _______ _______ _______ _____ _____    ______ ____
ROOT
ATOM      1  C   LIG A   1      -3.722   6.902 128.147  0.00  0.00    +0.009 C 
ATOM      2  C   LIG A   1      -4.187   6.080 129.366  0.00  0.00    +0.001 C 
ATOM      3  C   LIG A   1      -4.357   7.017 130.600  0.00  0.00    +0.052 C 
ATOM      4  C   LIG A   1      -3.065   7.234 131.381  0.00  0.00    -0.033 A 
ATOM      5  C   LIG A   1      -1.919   6.443 131.179  0.00  0.00    -0.043 A 
ATOM      6  C   LIG A   1      -1.858   5.374 130.116  0.00  0.00    +0.039 C 
ATOM      7  C   LIG A   1      -3.225   4.897 129.615  0.00  0.00    -0.006 C 
ATOM      8  C   LIG A   1      -3.809   3.832 130.547  0.00  0.00    +0.008 C 
ATOM      9  C   LIG A   1      -0.759   6.701 131.931  0.00  0.00    +0.007 A 
ATOM     10  C   LIG A   1      -0.730   7.722 132.881  0.00  0.00    +0.045 A 
ATOM     11  C   LIG A   1      -1.860   8.502 133.071  0.00  0.00    +0.117 A 
ATOM     12  C   LIG A   1      -3.014   8.272 132.332  0.00  0.00    +0.049 A 
ENDROOT
BRANCH   3  13
ATOM     13  C   LIG A   1      -5.578   6.621 131.442  0.00  0.00    -0.040 A 
ATOM     14  C   LIG A   1      -5.481   6.007 132.701  0.00  0.00    +0.008 A 
ATOM     15  C   LIG A   1      -6.628   5.666 133.428  0.00  0.00    +0.045 A 
ATOM     16  C   LIG A   1      -7.882   5.941 132.898  0.00  0.00    +0.117 A 
ATOM     17  C   LIG A   1      -8.009   6.549 131.657  0.00  0.00    +0.045 A 
ATOM     18  C   LIG A   1      -6.864   6.890 130.934  0.00  0.00    +0.008 A 
BRANCH  16  19
ATOM     19  O   LIG A   1      -9.023   5.626 133.573  0.00  0.00    -0.507 OA
ATOM     20  H   LIG A   1      -8.823   5.614 134.524  0.00  0.00    +0.292 HD
ENDBRANCH  16  19
ENDBRANCH   3  13
BRANCH  11  21
ATOM     21  O   LIG A   1      -1.879   9.518 133.981  0.00  0.00    -0.507 OA
ATOM     22  H   LIG A   1      -2.793   9.831 134.075  0.00  0.00    +0.292 HD
ENDBRANCH  11  21
TORSDOF 3
ENDMDL
MODEL 7
REMARK VINA RESULT:      -6.5      2.368      3.320
REMARK  Name = NuBBE_1647
REMARK  5 active torsions:
REMARK  status: ('A' for Active; 'I' for Inactive)
REMARK    1  A    between atoms: C_1  and  C_2
REMARK    2  A    between atoms: C_4  and  C_17
REMARK    3  A    between atoms: C_9  and  C_11
REMARK    4  A    between atoms: C_14  and  O_16
REMARK    5  A    between atoms: C_20  and  O_23
REMARK                            x       y       z     vdW  Elec       q    Type
REMARK                         _______ _______ _______ _____ _____    ______ ____
ROOT
ATOM      1  C   LIG A   1      -8.902  -3.614 126.931  0.00  0.00    +0.009 C 
ATOM      2  C   LIG A   1      -7.681  -2.779 126.496  0.00  0.00    +0.001 C 
ATOM      3  C   LIG A   1      -8.056  -1.267 126.475  0.00  0.00    +0.052 C 
ATOM      4  C   LIG A   1      -8.691  -0.816 125.163  0.00  0.00    -0.033 A 
ATOM      5  C   LIG A   1      -8.667  -1.610 124.002  0.00  0.00    -0.043 A 
ATOM      6  C   LIG A   1      -8.084  -3.001 123.991  0.00  0.00    +0.039 C 
ATOM      7  C   LIG A   1      -7.127  -3.298 125.150  0.00  0.00    -0.006 C 
ATOM      8  C   LIG A   1      -5.717  -2.785 124.841  0.00  0.00    +0.008 C 
ATOM      9  C   LIG A   1      -9.276  -1.135 122.826  0.00  0.00    +0.007 A 
ATOM     10  C   LIG A   1      -9.894   0.115 122.792  0.00  0.00    +0.045 A 
ATOM     11  C   LIG A   1      -9.920   0.891 123.941  0.00  0.00    +0.117 A 
ATOM     12  C   LIG A   1      -9.334   0.437 125.116  0.00  0.00    +0.049 A 
ENDROOT
BRANCH   3  13
ATOM     13  C   LIG A   1      -6.901  -0.392 126.983  0.00  0.00    -0.040 A 
ATOM     14  C   LIG A   1      -6.536  -0.306 128.336  0.00  0.00    +0.008 A 
ATOM     15  C   LIG A   1      -5.474   0.508 128.746  0.00  0.00    +0.045 A 
ATOM     16  C   LIG A   1      -4.768   1.241 127.801  0.00  0.00    +0.117 A 
ATOM     17  C   LIG A   1      -5.104   1.174 126.457  0.00  0.00    +0.045 A 
ATOM     18  C   LIG A   1      -6.163   0.360 126.049  0.00  0.00    +0.008 A 
BRANCH  16  19
ATOM     19  O   LIG A   1      -3.726   2.045 128.158  0.00  0.00    -0.507 OA
ATOM     20  H   LIG A   1      -3.322   2.399 127.349  0.00  0.00    +0.292 HD
ENDBRANCH  16  19
ENDBRANCH   3  13
BRANCH  11  21
ATOM     21  O   LIG A   1     -10.519   2.116 123.960  0.00  0.00    -0.507 OA
ATOM     22  H   LIG A   1     -11.290   2.073 124.548  0.00  0.00    +0.292 HD
ENDBRANCH  11  21
TORSDOF 3
ENDMDL
MODEL 8
REMARK VINA RESULT:      -6.4      2.366      5.514
REMARK  Name = NuBBE_1647
REMARK  5 active torsions:
REMARK  status: ('A' for Active; 'I' for Inactive)
REMARK    1  A    between atoms: C_1  and  C_2
REMARK    2  A    between atoms: C_4  and  C_17
REMARK    3  A    between atoms: C_9  and  C_11
REMARK    4  A    between atoms: C_14  and  O_16
REMARK    5  A    between atoms: C_20  and  O_23
REMARK                            x       y       z     vdW  Elec       q    Type
REMARK                         _______ _______ _______ _____ _____    ______ ____
ROOT
ATOM      1  C   LIG A   1      -4.982  -2.426 128.762  0.00  0.00    +0.009 C 
ATOM      2  C   LIG A   1      -6.394  -2.450 128.143  0.00  0.00    +0.001 C 
ATOM      3  C   LIG A   1      -6.885  -0.993 127.891  0.00  0.00    +0.052 C 
ATOM      4  C   LIG A   1      -7.550  -0.357 129.108  0.00  0.00    -0.033 A 
ATOM      5  C   LIG A   1      -7.940  -1.108 130.233  0.00  0.00    -0.043 A 
ATOM      6  C   LIG A   1      -7.652  -2.583 130.353  0.00  0.00    +0.039 C 
ATOM      7  C   LIG A   1      -7.352  -3.283 129.024  0.00  0.00    -0.006 C 
ATOM      8  C   LIG A   1      -8.648  -3.670 128.304  0.00  0.00    +0.008 C 
ATOM      9  C   LIG A   1      -8.546  -0.456 131.322  0.00  0.00    +0.007 A 
ATOM     10  C   LIG A   1      -8.776   0.919 131.301  0.00  0.00    +0.045 A 
ATOM     11  C   LIG A   1      -8.385   1.655 130.192  0.00  0.00    +0.117 A 
ATOM     12  C   LIG A   1      -7.775   1.034 129.108  0.00  0.00    +0.049 A 
ENDROOT
BRANCH   3  13
ATOM     13  C   LIG A   1      -7.670  -0.882 126.577  0.00  0.00    -0.040 A 
ATOM     14  C   LIG A   1      -8.721   0.028 126.380  0.00  0.00    +0.008 A 
ATOM     15  C   LIG A   1      -9.405   0.087 125.161  0.00  0.00    +0.045 A 
ATOM     16  C   LIG A   1      -9.039  -0.766 124.127  0.00  0.00    +0.117 A 
ATOM     17  C   LIG A   1      -8.003  -1.674 124.292  0.00  0.00    +0.045 A 
ATOM     18  C   LIG A   1      -7.320  -1.731 125.508  0.00  0.00    +0.008 A 
BRANCH  16  19
ATOM     19  O   LIG A   1      -9.679  -0.740 122.924  0.00  0.00    -0.507 OA
ATOM     20  H   LIG A   1     -10.553  -1.150 123.033  0.00  0.00    +0.292 HD
ENDBRANCH  16  19
ENDBRANCH   3  13
BRANCH  11  21
ATOM     21  O   LIG A   1      -8.580   3.002 130.127  0.00  0.00    -0.507 OA
ATOM     22  H   LIG A   1      -8.723   3.249 129.199  0.00  0.00    +0.292 HD
ENDBRANCH  11  21
TORSDOF 3
ENDMDL
MODEL 9
REMARK VINA RESULT:      -6.4      2.435      4.186
REMARK  Name = NuBBE_1647
REMARK  5 active torsions:
REMARK  status: ('A' for Active; 'I' for Inactive)
REMARK    1  A    between atoms: C_1  and  C_2
REMARK    2  A    between atoms: C_4  and  C_17
REMARK    3  A    between atoms: C_9  and  C_11
REMARK    4  A    between atoms: C_14  and  O_16
REMARK    5  A    between atoms: C_20  and  O_23
REMARK                            x       y       z     vdW  Elec       q    Type
REMARK                         _______ _______ _______ _____ _____    ______ ____
ROOT
ATOM      1  C   LIG A   1      -5.437   2.087 125.873  0.00  0.00    +0.009 C 
ATOM      2  C   LIG A   1      -6.498   1.064 126.326  0.00  0.00    +0.001 C 
ATOM      3  C   LIG A   1      -5.875  -0.364 126.360  0.00  0.00    +0.052 C 
ATOM      4  C   LIG A   1      -5.921  -1.080 125.013  0.00  0.00    -0.033 A 
ATOM      5  C   LIG A   1      -6.704  -0.617 123.940  0.00  0.00    -0.043 A 
ATOM      6  C   LIG A   1      -7.491   0.668 124.014  0.00  0.00    +0.039 C 
ATOM      7  C   LIG A   1      -7.759   1.168 125.438  0.00  0.00    -0.006 C 
ATOM      8  C   LIG A   1      -8.981   0.471 126.042  0.00  0.00    +0.008 C 
ATOM      9  C   LIG A   1      -6.698  -1.324 122.724  0.00  0.00    +0.007 A 
ATOM     10  C   LIG A   1      -5.935  -2.481 122.569  0.00  0.00    +0.045 A 
ATOM     11  C   LIG A   1      -5.161  -2.930 123.629  0.00  0.00    +0.117 A 
ATOM     12  C   LIG A   1      -5.144  -2.242 124.836  0.00  0.00    +0.049 A 
ENDROOT
BRANCH   3  13
ATOM     13  C   LIG A   1      -6.390  -1.175 127.556  0.00  0.00    -0.040 A 
ATOM     14  C   LIG A   1      -7.289  -2.248 127.432  0.00  0.00    +0.008 A 
ATOM     15  C   LIG A   1      -7.728  -2.954 128.557  0.00  0.00    +0.045 A 
ATOM     16  C   LIG A   1      -7.269  -2.592 129.817  0.00  0.00    +0.117 A 
ATOM     17  C   LIG A   1      -6.380  -1.538 129.971  0.00  0.00    +0.045 A 
ATOM     18  C   LIG A   1      -5.941  -0.835 128.847  0.00  0.00    +0.008 A 
BRANCH  16  19
ATOM     19  O   LIG A   1      -7.673  -3.254 130.938  0.00  0.00    -0.507 OA
ATOM     20  H   LIG A   1      -7.683  -2.625 131.678  0.00  0.00    +0.292 HD
ENDBRANCH  16  19
ENDBRANCH   3  13
BRANCH  11  21
ATOM     21  O   LIG A   1      -4.392  -4.051 123.524  0.00  0.00    -0.507 OA
ATOM     22  H   LIG A   1      -4.377  -4.495 124.387  0.00  0.00    +0.292 HD
ENDBRANCH  11  21
TORSDOF 3
ENDMDL
