MODEL 1
REMARK VINA RESULT:      -6.4      0.000      0.000
REMARK  Name = NuBBE_2180
REMARK  14 active torsions:
REMARK  status: ('A' for Active; 'I' for Inactive)
REMARK    1  A    between atoms: C_1  and  C_3
REMARK    2  A    between atoms: C_1  and  C_14
REMARK    3  A    between atoms: C_1  and  C_15
REMARK    4  A    between atoms: C_3  and  C_4
REMARK    5  A    between atoms: C_6  and  O_7
REMARK    6  A    between atoms: O_7  and  C_8
REMARK    7  A    between atoms: C_9  and  O_12
REMARK    8  A    between atoms: O_12  and  C_13
REMARK    9  A    between atoms: C_15  and  O_16
REMARK   10  A    between atoms: O_16  and  C_17
REMARK   11  A    between atoms: C_18  and  O_27
REMARK   12  A    between atoms: C_22  and  C_24
REMARK   13  A    between atoms: C_24  and  C_25
REMARK   14  A    between atoms: O_27  and  C_28
REMARK                            x       y       z     vdW  Elec       q    Type
REMARK                         _______ _______ _______ _____ _____    ______ ____
ROOT
ATOM      1  C   LIG A   1      -6.283  -1.457 128.007  0.00  0.00    +0.147 C 
ATOM      2  C   LIG A   1      -7.570  -2.208 128.475  0.00  0.00    +0.137 C 
ATOM      3  C   LIG A   1      -8.330  -2.914 127.621  0.00  0.00    +0.095 C 
ATOM      4  C   LIG A   1      -8.038  -3.022 126.182  0.00  0.00    +0.185 C 
ATOM      5  O   LIG A   1      -8.888  -3.556 125.431  0.00  0.00    -0.287 OA
ATOM      6  C   LIG A   1      -6.768  -2.522 125.699  0.00  0.00    +0.002 C 
ATOM      7  C   LIG A   1      -5.981  -1.805 126.536  0.00  0.00    +0.023 C 
ENDROOT
BRANCH   1   8
ATOM      8  C   LIG A   1      -6.444   0.160 128.169  0.00  0.00    +0.034 C 
ATOM      9  C   LIG A   1      -5.859   0.668 129.510  0.00  0.00    +0.011 C 
BRANCH   8  10
ATOM     10  C   LIG A   1      -7.898   0.736 128.020  0.00  0.00    +0.042 C 
BRANCH  10  11
ATOM     11  C   LIG A   1      -8.288   1.339 126.662  0.00  0.00    -0.043 A 
ATOM     12  C   LIG A   1      -8.932   0.545 125.703  0.00  0.00    +0.053 A 
ATOM     13  C   LIG A   1      -9.317   1.030 124.431  0.00  0.00    +0.162 A 
ATOM     14  C   LIG A   1      -8.954   2.342 124.054  0.00  0.00    +0.162 A 
ATOM     15  C   LIG A   1      -8.296   3.128 125.010  0.00  0.00    +0.050 A 
ATOM     16  C   LIG A   1      -7.997   2.650 126.298  0.00  0.00    +0.007 A 
BRANCH  13  17
ATOM     17  O   LIG A   1     -10.064   0.237 123.580  0.00  0.00    -0.491 OA
ATOM     18  C   LIG A   1      -9.300  -0.778 122.903  0.00  0.00    +0.277 C 
ENDBRANCH  13  17
BRANCH  14  19
ATOM     19  O   LIG A   1      -9.216   2.805 122.783  0.00  0.00    -0.491 OA
ATOM     20  C   LIG A   1      -8.099   3.224 121.980  0.00  0.00    +0.277 C 
ENDBRANCH  14  19
ENDBRANCH  10  11
ENDBRANCH   8  10
ENDBRANCH   1   8
BRANCH   1  21
ATOM     21  O   LIG A   1      -5.112  -1.882 128.766  0.00  0.00    -0.364 OA
ATOM     22  C   LIG A   1      -4.484  -3.133 128.441  0.00  0.00    +0.195 C 
ENDBRANCH   1  21
BRANCH   2  23
ATOM     23  O   LIG A   1      -7.975  -2.080 129.805  0.00  0.00    -0.496 OA
ATOM     24  C   LIG A   1      -7.513  -3.141 130.668  0.00  0.00    +0.277 C 
ENDBRANCH   2  23
BRANCH   6  25
ATOM     25  C   LIG A   1      -6.375  -2.952 124.316  0.00  0.00    +0.065 C 
BRANCH  25  26
ATOM     26  C   LIG A   1      -4.914  -3.267 124.218  0.00  0.00    -0.030 C 
ATOM     27  C   LIG A   1      -4.469  -4.428 123.721  0.00  0.00    +0.004 C 
ENDBRANCH  25  26
ENDBRANCH   6  25
TORSDOF 9
ENDMDL
MODEL 2
REMARK VINA RESULT:      -6.3      3.365      4.709
REMARK  Name = NuBBE_2180
REMARK  14 active torsions:
REMARK  status: ('A' for Active; 'I' for Inactive)
REMARK    1  A    between atoms: C_1  and  C_3
REMARK    2  A    between atoms: C_1  and  C_14
REMARK    3  A    between atoms: C_1  and  C_15
REMARK    4  A    between atoms: C_3  and  C_4
REMARK    5  A    between atoms: C_6  and  O_7
REMARK    6  A    between atoms: O_7  and  C_8
REMARK    7  A    between atoms: C_9  and  O_12
REMARK    8  A    between atoms: O_12  and  C_13
REMARK    9  A    between atoms: C_15  and  O_16
REMARK   10  A    between atoms: O_16  and  C_17
REMARK   11  A    between atoms: C_18  and  O_27
REMARK   12  A    between atoms: C_22  and  C_24
REMARK   13  A    between atoms: C_24  and  C_25
REMARK   14  A    between atoms: O_27  and  C_28
REMARK                            x       y       z     vdW  Elec       q    Type
REMARK                         _______ _______ _______ _____ _____    ______ ____
ROOT
ATOM      1  C   LIG A   1      -6.078  -1.075 126.912  0.00  0.00    +0.147 C 
ATOM      2  C   LIG A   1      -7.341  -1.934 127.241  0.00  0.00    +0.137 C 
ATOM      3  C   LIG A   1      -7.897  -2.754 126.335  0.00  0.00    +0.095 C 
ATOM      4  C   LIG A   1      -7.391  -2.899 124.960  0.00  0.00    +0.185 C 
ATOM      5  O   LIG A   1      -8.068  -3.553 124.131  0.00  0.00    -0.287 OA
ATOM      6  C   LIG A   1      -6.119  -2.292 124.628  0.00  0.00    +0.002 C 
ATOM      7  C   LIG A   1      -5.534  -1.458 125.521  0.00  0.00    +0.023 C 
ENDROOT
BRANCH   1   8
ATOM      8  C   LIG A   1      -6.416   0.523 126.950  0.00  0.00    +0.034 C 
ATOM      9  C   LIG A   1      -7.881   0.814 126.541  0.00  0.00    +0.011 C 
BRANCH   8  10
ATOM     10  C   LIG A   1      -5.477   1.455 126.103  0.00  0.00    +0.042 C 
BRANCH  10  11
ATOM     11  C   LIG A   1      -4.615   2.475 126.863  0.00  0.00    -0.043 A 
ATOM     12  C   LIG A   1      -5.207   3.332 127.801  0.00  0.00    +0.053 A 
ATOM     13  C   LIG A   1      -4.477   4.296 128.535  0.00  0.00    +0.162 A 
ATOM     14  C   LIG A   1      -3.108   4.490 128.249  0.00  0.00    +0.162 A 
ATOM     15  C   LIG A   1      -2.522   3.642 127.299  0.00  0.00    +0.050 A 
ATOM     16  C   LIG A   1      -3.250   2.634 126.642  0.00  0.00    +0.007 A 
BRANCH  13  17
ATOM     17  O   LIG A   1      -5.094   5.021 129.537  0.00  0.00    -0.491 OA
ATOM     18  C   LIG A   1      -6.456   4.632 129.789  0.00  0.00    +0.277 C 
ENDBRANCH  13  17
BRANCH  14  19
ATOM     19  O   LIG A   1      -2.397   5.496 128.866  0.00  0.00    -0.491 OA
ATOM     20  C   LIG A   1      -2.332   6.771 128.205  0.00  0.00    +0.277 C 
ENDBRANCH  14  19
ENDBRANCH  10  11
ENDBRANCH   8  10
ENDBRANCH   1   8
BRANCH   1  21
ATOM     21  O   LIG A   1      -4.994  -1.339 127.851  0.00  0.00    -0.364 OA
ATOM     22  C   LIG A   1      -4.708  -2.697 128.225  0.00  0.00    +0.195 C 
ENDBRANCH   1  21
BRANCH   2  23
ATOM     23  O   LIG A   1      -7.944  -1.786 128.492  0.00  0.00    -0.496 OA
ATOM     24  C   LIG A   1      -8.247  -3.032 129.153  0.00  0.00    +0.277 C 
ENDBRANCH   2  23
BRANCH   6  25
ATOM     25  C   LIG A   1      -5.490  -2.743 123.343  0.00  0.00    +0.065 C 
BRANCH  25  26
ATOM     26  C   LIG A   1      -4.300  -3.622 123.575  0.00  0.00    -0.030 C 
ATOM     27  C   LIG A   1      -4.380  -4.957 123.515  0.00  0.00    +0.004 C 
ENDBRANCH  25  26
ENDBRANCH   6  25
TORSDOF 9
ENDMDL
MODEL 3
REMARK VINA RESULT:      -6.3      3.176      5.438
REMARK  Name = NuBBE_2180
REMARK  14 active torsions:
REMARK  status: ('A' for Active; 'I' for Inactive)
REMARK    1  A    between atoms: C_1  and  C_3
REMARK    2  A    between atoms: C_1  and  C_14
REMARK    3  A    between atoms: C_1  and  C_15
REMARK    4  A    between atoms: C_3  and  C_4
REMARK    5  A    between atoms: C_6  and  O_7
REMARK    6  A    between atoms: O_7  and  C_8
REMARK    7  A    between atoms: C_9  and  O_12
REMARK    8  A    between atoms: O_12  and  C_13
REMARK    9  A    between atoms: C_15  and  O_16
REMARK   10  A    between atoms: O_16  and  C_17
REMARK   11  A    between atoms: C_18  and  O_27
REMARK   12  A    between atoms: C_22  and  C_24
REMARK   13  A    between atoms: C_24  and  C_25
REMARK   14  A    between atoms: O_27  and  C_28
REMARK                            x       y       z     vdW  Elec       q    Type
REMARK                         _______ _______ _______ _____ _____    ______ ____
ROOT
ATOM      1  C   LIG A   1      -6.834  -0.742 125.174  0.00  0.00    +0.147 C 
ATOM      2  C   LIG A   1      -8.280  -0.749 125.766  0.00  0.00    +0.137 C 
ATOM      3  C   LIG A   1      -9.112   0.295 125.617  0.00  0.00    +0.095 C 
ATOM      4  C   LIG A   1      -8.736   1.533 124.915  0.00  0.00    +0.185 C 
ATOM      5  O   LIG A   1      -9.509   2.519 124.970  0.00  0.00    -0.287 OA
ATOM      6  C   LIG A   1      -7.492   1.552 124.173  0.00  0.00    +0.002 C 
ATOM      7  C   LIG A   1      -6.631   0.514 124.305  0.00  0.00    +0.023 C 
ENDROOT
BRANCH   1   8
ATOM      8  C   LIG A   1      -5.706  -0.783 126.354  0.00  0.00    +0.034 C 
ATOM      9  C   LIG A   1      -5.481  -2.219 126.891  0.00  0.00    +0.011 C 
BRANCH   8  10
ATOM     10  C   LIG A   1      -5.945   0.166 127.583  0.00  0.00    +0.042 C 
BRANCH  10  11
ATOM     11  C   LIG A   1      -5.645   1.661 127.396  0.00  0.00    -0.043 A 
ATOM     12  C   LIG A   1      -4.408   2.067 126.879  0.00  0.00    +0.053 A 
ATOM     13  C   LIG A   1      -4.061   3.425 126.683  0.00  0.00    +0.162 A 
ATOM     14  C   LIG A   1      -4.949   4.434 127.117  0.00  0.00    +0.162 A 
ATOM     15  C   LIG A   1      -6.180   4.023 127.648  0.00  0.00    +0.050 A 
ATOM     16  C   LIG A   1      -6.536   2.667 127.757  0.00  0.00    +0.007 A 
BRANCH  13  17
ATOM     17  O   LIG A   1      -2.878   3.757 126.049  0.00  0.00    -0.491 OA
ATOM     18  C   LIG A   1      -1.722   3.079 126.573  0.00  0.00    +0.277 C 
ENDBRANCH  13  17
BRANCH  14  19
ATOM     19  O   LIG A   1      -4.593   5.763 127.042  0.00  0.00    -0.491 OA
ATOM     20  C   LIG A   1      -3.803   6.304 128.114  0.00  0.00    +0.277 C 
ENDBRANCH  14  19
ENDBRANCH  10  11
ENDBRANCH   8  10
ENDBRANCH   1   8
BRANCH   1  21
ATOM     21  O   LIG A   1      -6.616  -1.880 124.289  0.00  0.00    -0.364 OA
ATOM     22  C   LIG A   1      -7.002  -1.776 122.908  0.00  0.00    +0.195 C 
ENDBRANCH   1  21
BRANCH   2  23
ATOM     23  O   LIG A   1      -8.686  -1.844 126.530  0.00  0.00    -0.496 OA
ATOM     24  C   LIG A   1      -9.472  -2.813 125.804  0.00  0.00    +0.277 C 
ENDBRANCH   2  23
BRANCH   6  25
ATOM     25  C   LIG A   1      -7.316   2.691 123.213  0.00  0.00    +0.065 C 
BRANCH  25  26
ATOM     26  C   LIG A   1      -6.513   3.808 123.804  0.00  0.00    -0.030 C 
ATOM     27  C   LIG A   1      -5.401   4.272 123.219  0.00  0.00    +0.004 C 
ENDBRANCH  25  26
ENDBRANCH   6  25
TORSDOF 9
ENDMDL
MODEL 4
REMARK VINA RESULT:      -6.3      2.776      4.902
REMARK  Name = NuBBE_2180
REMARK  14 active torsions:
REMARK  status: ('A' for Active; 'I' for Inactive)
REMARK    1  A    between atoms: C_1  and  C_3
REMARK    2  A    between atoms: C_1  and  C_14
REMARK    3  A    between atoms: C_1  and  C_15
REMARK    4  A    between atoms: C_3  and  C_4
REMARK    5  A    between atoms: C_6  and  O_7
REMARK    6  A    between atoms: O_7  and  C_8
REMARK    7  A    between atoms: C_9  and  O_12
REMARK    8  A    between atoms: O_12  and  C_13
REMARK    9  A    between atoms: C_15  and  O_16
REMARK   10  A    between atoms: O_16  and  C_17
REMARK   11  A    between atoms: C_18  and  O_27
REMARK   12  A    between atoms: C_22  and  C_24
REMARK   13  A    between atoms: C_24  and  C_25
REMARK   14  A    between atoms: O_27  and  C_28
REMARK                            x       y       z     vdW  Elec       q    Type
REMARK                         _______ _______ _______ _____ _____    ______ ____
ROOT
ATOM      1  C   LIG A   1      -7.844  -0.670 126.175  0.00  0.00    +0.147 C 
ATOM      2  C   LIG A   1      -8.833  -1.671 125.496  0.00  0.00    +0.137 C 
ATOM      3  C   LIG A   1      -9.184  -2.828 126.082  0.00  0.00    +0.095 C 
ATOM      4  C   LIG A   1      -8.659  -3.265 127.386  0.00  0.00    +0.185 C 
ATOM      5  O   LIG A   1      -8.905  -4.430 127.778  0.00  0.00    -0.287 OA
ATOM      6  C   LIG A   1      -7.893  -2.319 128.170  0.00  0.00    +0.002 C 
ATOM      7  C   LIG A   1      -7.522  -1.144 127.606  0.00  0.00    +0.023 C 
ENDROOT
BRANCH   1   8
ATOM      8  C   LIG A   1      -6.461  -0.523 125.319  0.00  0.00    +0.034 C 
ATOM      9  C   LIG A   1      -6.064  -1.851 124.628  0.00  0.00    +0.011 C 
BRANCH   8  10
ATOM     10  C   LIG A   1      -5.209   0.014 126.101  0.00  0.00    +0.042 C 
BRANCH  10  11
ATOM     11  C   LIG A   1      -5.152   1.519 126.404  0.00  0.00    -0.043 A 
ATOM     12  C   LIG A   1      -5.487   2.446 125.408  0.00  0.00    +0.053 A 
ATOM     13  C   LIG A   1      -5.454   3.846 125.613  0.00  0.00    +0.162 A 
ATOM     14  C   LIG A   1      -4.965   4.352 126.838  0.00  0.00    +0.162 A 
ATOM     15  C   LIG A   1      -4.616   3.421 127.826  0.00  0.00    +0.050 A 
ATOM     16  C   LIG A   1      -4.735   2.035 127.628  0.00  0.00    +0.007 A 
BRANCH  13  17
ATOM     17  O   LIG A   1      -5.920   4.704 124.635  0.00  0.00    -0.491 OA
ATOM     18  C   LIG A   1      -5.693   4.241 123.292  0.00  0.00    +0.277 C 
ENDBRANCH  13  17
BRANCH  14  19
ATOM     19  O   LIG A   1      -4.815   5.709 127.027  0.00  0.00    -0.491 OA
ATOM     20  C   LIG A   1      -3.705   6.155 127.824  0.00  0.00    +0.277 C 
ENDBRANCH  14  19
ENDBRANCH  10  11
ENDBRANCH   8  10
ENDBRANCH   1   8
BRANCH   1  21
ATOM     21  O   LIG A   1      -8.441   0.653 126.318  0.00  0.00    -0.364 OA
ATOM     22  C   LIG A   1      -8.520   1.247 127.625  0.00  0.00    +0.195 C 
ENDBRANCH   1  21
BRANCH   2  23
ATOM     23  O   LIG A   1      -9.305  -1.382 124.214  0.00  0.00    -0.496 OA
ATOM     24  C   LIG A   1      -9.267  -2.501 123.304  0.00  0.00    +0.277 C 
ENDBRANCH   2  23
BRANCH   6  25
ATOM     25  C   LIG A   1      -7.673  -2.682 129.609  0.00  0.00    +0.065 C 
BRANCH  25  26
ATOM     26  C   LIG A   1      -6.275  -3.154 129.864  0.00  0.00    -0.030 C 
ATOM     27  C   LIG A   1      -6.017  -4.318 130.475  0.00  0.00    +0.004 C 
ENDBRANCH  25  26
ENDBRANCH   6  25
TORSDOF 9
ENDMDL
MODEL 5
REMARK VINA RESULT:      -6.3      1.900      6.321
REMARK  Name = NuBBE_2180
REMARK  14 active torsions:
REMARK  status: ('A' for Active; 'I' for Inactive)
REMARK    1  A    between atoms: C_1  and  C_3
REMARK    2  A    between atoms: C_1  and  C_14
REMARK    3  A    between atoms: C_1  and  C_15
REMARK    4  A    between atoms: C_3  and  C_4
REMARK    5  A    between atoms: C_6  and  O_7
REMARK    6  A    between atoms: O_7  and  C_8
REMARK    7  A    between atoms: C_9  and  O_12
REMARK    8  A    between atoms: O_12  and  C_13
REMARK    9  A    between atoms: C_15  and  O_16
REMARK   10  A    between atoms: O_16  and  C_17
REMARK   11  A    between atoms: C_18  and  O_27
REMARK   12  A    between atoms: C_22  and  C_24
REMARK   13  A    between atoms: C_24  and  C_25
REMARK   14  A    between atoms: O_27  and  C_28
REMARK                            x       y       z     vdW  Elec       q    Type
REMARK                         _______ _______ _______ _____ _____    ______ ____
ROOT
ATOM      1  C   LIG A   1      -8.342   1.044 125.694  0.00  0.00    +0.147 C 
ATOM      2  C   LIG A   1      -7.232   0.923 124.601  0.00  0.00    +0.137 C 
ATOM      3  C   LIG A   1      -6.828  -0.267 124.129  0.00  0.00    +0.095 C 
ATOM      4  C   LIG A   1      -7.368  -1.550 124.608  0.00  0.00    +0.185 C 
ATOM      5  O   LIG A   1      -6.817  -2.615 124.239  0.00  0.00    -0.287 OA
ATOM      6  C   LIG A   1      -8.528  -1.528 125.474  0.00  0.00    +0.002 C 
ATOM      7  C   LIG A   1      -8.959  -0.342 125.968  0.00  0.00    +0.023 C 
ENDROOT
BRANCH   1   8
ATOM      8  C   LIG A   1      -7.748   1.667 127.082  0.00  0.00    +0.034 C 
ATOM      9  C   LIG A   1      -7.632   3.210 127.020  0.00  0.00    +0.011 C 
BRANCH   8  10
ATOM     10  C   LIG A   1      -6.371   1.092 127.573  0.00  0.00    +0.042 C 
BRANCH  10  11
ATOM     11  C   LIG A   1      -6.393  -0.220 128.372  0.00  0.00    -0.043 A 
ATOM     12  C   LIG A   1      -5.401  -1.186 128.158  0.00  0.00    +0.053 A 
ATOM     13  C   LIG A   1      -5.359  -2.418 128.853  0.00  0.00    +0.162 A 
ATOM     14  C   LIG A   1      -6.414  -2.750 129.732  0.00  0.00    +0.162 A 
ATOM     15  C   LIG A   1      -7.413  -1.787 129.932  0.00  0.00    +0.050 A 
ATOM     16  C   LIG A   1      -7.389  -0.536 129.291  0.00  0.00    +0.007 A 
BRANCH  13  17
ATOM     17  O   LIG A   1      -4.284  -3.272 128.692  0.00  0.00    -0.491 OA
ATOM     18  C   LIG A   1      -3.140  -2.933 129.497  0.00  0.00    +0.277 C 
ENDBRANCH  13  17
BRANCH  14  19
ATOM     19  O   LIG A   1      -6.459  -3.987 130.338  0.00  0.00    -0.491 OA
ATOM     20  C   LIG A   1      -5.926  -4.098 131.669  0.00  0.00    +0.277 C 
ENDBRANCH  14  19
ENDBRANCH  10  11
ENDBRANCH   8  10
ENDBRANCH   1   8
BRANCH   1  21
ATOM     21  O   LIG A   1      -9.443   1.889 125.244  0.00  0.00    -0.364 OA
ATOM     22  C   LIG A   1     -10.205   1.490 124.092  0.00  0.00    +0.195 C 
ENDBRANCH   1  21
BRANCH   2  23
ATOM     23  O   LIG A   1      -6.597   2.086 124.160  0.00  0.00    -0.496 OA
ATOM     24  C   LIG A   1      -6.875   2.425 122.784  0.00  0.00    +0.277 C 
ENDBRANCH   2  23
BRANCH   6  25
ATOM     25  C   LIG A   1      -9.238  -2.837 125.657  0.00  0.00    +0.065 C 
BRANCH  25  26
ATOM     26  C   LIG A   1      -8.630  -3.659 126.752  0.00  0.00    -0.030 C 
ATOM     27  C   LIG A   1      -9.315  -3.998 127.851  0.00  0.00    +0.004 C 
ENDBRANCH  25  26
ENDBRANCH   6  25
TORSDOF 9
ENDMDL
MODEL 6
REMARK VINA RESULT:      -6.3      1.776      6.645
REMARK  Name = NuBBE_2180
REMARK  14 active torsions:
REMARK  status: ('A' for Active; 'I' for Inactive)
REMARK    1  A    between atoms: C_1  and  C_3
REMARK    2  A    between atoms: C_1  and  C_14
REMARK    3  A    between atoms: C_1  and  C_15
REMARK    4  A    between atoms: C_3  and  C_4
REMARK    5  A    between atoms: C_6  and  O_7
REMARK    6  A    between atoms: O_7  and  C_8
REMARK    7  A    between atoms: C_9  and  O_12
REMARK    8  A    between atoms: O_12  and  C_13
REMARK    9  A    between atoms: C_15  and  O_16
REMARK   10  A    between atoms: O_16  and  C_17
REMARK   11  A    between atoms: C_18  and  O_27
REMARK   12  A    between atoms: C_22  and  C_24
REMARK   13  A    between atoms: C_24  and  C_25
REMARK   14  A    between atoms: O_27  and  C_28
REMARK                            x       y       z     vdW  Elec       q    Type
REMARK                         _______ _______ _______ _____ _____    ______ ____
ROOT
ATOM      1  C   LIG A   1      -7.288   0.156 124.258  0.00  0.00    +0.147 C 
ATOM      2  C   LIG A   1      -8.825   0.299 124.496  0.00  0.00    +0.137 C 
ATOM      3  C   LIG A   1      -9.322   0.846 125.618  0.00  0.00    +0.095 C 
ATOM      4  C   LIG A   1      -8.477   1.331 126.721  0.00  0.00    +0.185 C 
ATOM      5  O   LIG A   1      -9.023   1.669 127.798  0.00  0.00    -0.287 OA
ATOM      6  C   LIG A   1      -7.047   1.416 126.506  0.00  0.00    +0.002 C 
ATOM      7  C   LIG A   1      -6.516   0.871 125.385  0.00  0.00    +0.023 C 
ENDROOT
BRANCH   1   8
ATOM      8  C   LIG A   1      -6.837  -1.412 124.191  0.00  0.00    +0.034 C 
ATOM      9  C   LIG A   1      -6.598  -1.884 122.735  0.00  0.00    +0.011 C 
BRANCH   8  10
ATOM     10  C   LIG A   1      -7.793  -2.445 124.888  0.00  0.00    +0.042 C 
BRANCH  10  11
ATOM     11  C   LIG A   1      -7.642  -2.643 126.405  0.00  0.00    -0.043 A 
ATOM     12  C   LIG A   1      -6.416  -2.371 127.026  0.00  0.00    +0.053 A 
ATOM     13  C   LIG A   1      -6.202  -2.533 128.416  0.00  0.00    +0.162 A 
ATOM     14  C   LIG A   1      -7.227  -3.091 129.211  0.00  0.00    +0.162 A 
ATOM     15  C   LIG A   1      -8.447  -3.377 128.582  0.00  0.00    +0.050 A 
ATOM     16  C   LIG A   1      -8.663  -3.129 127.215  0.00  0.00    +0.007 A 
BRANCH  13  17
ATOM     17  O   LIG A   1      -5.012  -2.125 128.989  0.00  0.00    -0.491 OA
ATOM     18  C   LIG A   1      -3.978  -3.126 128.970  0.00  0.00    +0.277 C 
ENDBRANCH  13  17
BRANCH  14  19
ATOM     19  O   LIG A   1      -7.011  -3.365 130.544  0.00  0.00    -0.491 OA
ATOM     20  C   LIG A   1      -7.478  -2.406 131.508  0.00  0.00    +0.277 C 
ENDBRANCH  14  19
ENDBRANCH  10  11
ENDBRANCH   8  10
ENDBRANCH   1   8
BRANCH   1  21
ATOM     21  O   LIG A   1      -6.878   0.807 123.019  0.00  0.00    -0.364 OA
ATOM     22  C   LIG A   1      -6.909   2.242 122.939  0.00  0.00    +0.195 C 
ENDBRANCH   1  21
BRANCH   2  23
ATOM     23  O   LIG A   1      -9.702  -0.224 123.543  0.00  0.00    -0.496 OA
ATOM     24  C   LIG A   1     -10.275   0.766 122.662  0.00  0.00    +0.277 C 
ENDBRANCH   2  23
BRANCH   6  25
ATOM     25  C   LIG A   1      -6.277   2.220 127.512  0.00  0.00    +0.065 C 
BRANCH  25  26
ATOM     26  C   LIG A   1      -5.304   1.379 128.280  0.00  0.00    -0.030 C 
ATOM     27  C   LIG A   1      -4.421   1.914 129.133  0.00  0.00    +0.004 C 
ENDBRANCH  25  26
ENDBRANCH   6  25
TORSDOF 9
ENDMDL
MODEL 7
REMARK VINA RESULT:      -6.2      2.573      5.259
REMARK  Name = NuBBE_2180
REMARK  14 active torsions:
REMARK  status: ('A' for Active; 'I' for Inactive)
REMARK    1  A    between atoms: C_1  and  C_3
REMARK    2  A    between atoms: C_1  and  C_14
REMARK    3  A    between atoms: C_1  and  C_15
REMARK    4  A    between atoms: C_3  and  C_4
REMARK    5  A    between atoms: C_6  and  O_7
REMARK    6  A    between atoms: O_7  and  C_8
REMARK    7  A    between atoms: C_9  and  O_12
REMARK    8  A    between atoms: O_12  and  C_13
REMARK    9  A    between atoms: C_15  and  O_16
REMARK   10  A    between atoms: O_16  and  C_17
REMARK   11  A    between atoms: C_18  and  O_27
REMARK   12  A    between atoms: C_22  and  C_24
REMARK   13  A    between atoms: C_24  and  C_25
REMARK   14  A    between atoms: O_27  and  C_28
REMARK                            x       y       z     vdW  Elec       q    Type
REMARK                         _______ _______ _______ _____ _____    ______ ____
ROOT
ATOM      1  C   LIG A   1      -8.416  -0.987 124.390  0.00  0.00    +0.147 C 
ATOM      2  C   LIG A   1      -6.971  -1.420 123.984  0.00  0.00    +0.137 C 
ATOM      3  C   LIG A   1      -6.044  -1.746 124.900  0.00  0.00    +0.095 C 
ATOM      4  C   LIG A   1      -6.292  -1.701 126.350  0.00  0.00    +0.185 C 
ATOM      5  O   LIG A   1      -5.326  -1.855 127.134  0.00  0.00    -0.287 OA
ATOM      6  C   LIG A   1      -7.650  -1.499 126.809  0.00  0.00    +0.002 C 
ATOM      7  C   LIG A   1      -8.607  -1.167 125.909  0.00  0.00    +0.023 C 
ENDROOT
BRANCH   1   8
ATOM      8  C   LIG A   1      -8.711   0.566 123.979  0.00  0.00    +0.034 C 
ATOM      9  C   LIG A   1      -9.868   0.683 122.955  0.00  0.00    +0.011 C 
BRANCH   8  10
ATOM     10  C   LIG A   1      -7.490   1.389 123.432  0.00  0.00    +0.042 C 
BRANCH  10  11
ATOM     11  C   LIG A   1      -6.842   2.413 124.377  0.00  0.00    -0.043 A 
ATOM     12  C   LIG A   1      -6.817   2.173 125.757  0.00  0.00    +0.053 A 
ATOM     13  C   LIG A   1      -6.242   3.071 126.687  0.00  0.00    +0.162 A 
ATOM     14  C   LIG A   1      -5.757   4.317 126.232  0.00  0.00    +0.162 A 
ATOM     15  C   LIG A   1      -5.797   4.560 124.852  0.00  0.00    +0.050 A 
ATOM     16  C   LIG A   1      -6.299   3.617 123.938  0.00  0.00    +0.007 A 
BRANCH  13  17
ATOM     17  O   LIG A   1      -6.133   2.719 128.019  0.00  0.00    -0.491 OA
ATOM     18  C   LIG A   1      -5.441   1.477 128.243  0.00  0.00    +0.277 C 
ENDBRANCH  13  17
BRANCH  14  19
ATOM     19  O   LIG A   1      -5.293   5.258 127.126  0.00  0.00    -0.491 OA
ATOM     20  C   LIG A   1      -3.885   5.264 127.419  0.00  0.00    +0.277 C 
ENDBRANCH  14  19
ENDBRANCH  10  11
ENDBRANCH   8  10
ENDBRANCH   1   8
BRANCH   1  21
ATOM     21  O   LIG A   1      -9.423  -1.831 123.757  0.00  0.00    -0.364 OA
ATOM     22  C   LIG A   1      -9.351  -3.255 123.932  0.00  0.00    +0.195 C 
ENDBRANCH   1  21
BRANCH   2  23
ATOM     23  O   LIG A   1      -6.619  -1.397 122.632  0.00  0.00    -0.496 OA
ATOM     24  C   LIG A   1      -5.650  -2.398 122.257  0.00  0.00    +0.277 C 
ENDBRANCH   2  23
BRANCH   6  25
ATOM     25  C   LIG A   1      -7.907  -1.796 128.257  0.00  0.00    +0.065 C 
BRANCH  25  26
ATOM     26  C   LIG A   1      -8.026  -3.267 128.518  0.00  0.00    -0.030 C 
ATOM     27  C   LIG A   1      -9.055  -3.990 128.059  0.00  0.00    +0.004 C 
ENDBRANCH  25  26
ENDBRANCH   6  25
TORSDOF 9
ENDMDL
MODEL 8
REMARK VINA RESULT:      -6.2      2.012      7.176
REMARK  Name = NuBBE_2180
REMARK  14 active torsions:
REMARK  status: ('A' for Active; 'I' for Inactive)
REMARK    1  A    between atoms: C_1  and  C_3
REMARK    2  A    between atoms: C_1  and  C_14
REMARK    3  A    between atoms: C_1  and  C_15
REMARK    4  A    between atoms: C_3  and  C_4
REMARK    5  A    between atoms: C_6  and  O_7
REMARK    6  A    between atoms: O_7  and  C_8
REMARK    7  A    between atoms: C_9  and  O_12
REMARK    8  A    between atoms: O_12  and  C_13
REMARK    9  A    between atoms: C_15  and  O_16
REMARK   10  A    between atoms: O_16  and  C_17
REMARK   11  A    between atoms: C_18  and  O_27
REMARK   12  A    between atoms: C_22  and  C_24
REMARK   13  A    between atoms: C_24  and  C_25
REMARK   14  A    between atoms: O_27  and  C_28
REMARK                            x       y       z     vdW  Elec       q    Type
REMARK                         _______ _______ _______ _____ _____    ______ ____
ROOT
ATOM      1  C   LIG A   1      -7.128  -1.796 126.109  0.00  0.00    +0.147 C 
ATOM      2  C   LIG A   1      -7.076  -2.499 124.715  0.00  0.00    +0.137 C 
ATOM      3  C   LIG A   1      -7.903  -2.154 123.714  0.00  0.00    +0.095 C 
ATOM      4  C   LIG A   1      -8.937  -1.114 123.845  0.00  0.00    +0.185 C 
ATOM      5  O   LIG A   1      -9.775  -0.974 122.923  0.00  0.00    -0.287 OA
ATOM      6  C   LIG A   1      -8.929  -0.282 125.031  0.00  0.00    +0.002 C 
ATOM      7  C   LIG A   1      -8.107  -0.607 126.058  0.00  0.00    +0.023 C 
ENDROOT
BRANCH   1   8
ATOM      8  C   LIG A   1      -7.584  -2.834 127.285  0.00  0.00    +0.034 C 
ATOM      9  C   LIG A   1      -8.876  -3.601 126.910  0.00  0.00    +0.011 C 
BRANCH   8  10
ATOM     10  C   LIG A   1      -7.777  -2.224 128.719  0.00  0.00    +0.042 C 
BRANCH  10  11
ATOM     11  C   LIG A   1      -6.890  -2.769 129.849  0.00  0.00    -0.043 A 
ATOM     12  C   LIG A   1      -5.542  -3.062 129.601  0.00  0.00    +0.053 A 
ATOM     13  C   LIG A   1      -4.668  -3.569 130.590  0.00  0.00    +0.162 A 
ATOM     14  C   LIG A   1      -5.183  -3.898 131.864  0.00  0.00    +0.162 A 
ATOM     15  C   LIG A   1      -6.535  -3.617 132.103  0.00  0.00    +0.050 A 
ATOM     16  C   LIG A   1      -7.365  -3.036 131.129  0.00  0.00    +0.007 A 
BRANCH  13  17
ATOM     17  O   LIG A   1      -3.320  -3.716 130.319  0.00  0.00    -0.491 OA
ATOM     18  C   LIG A   1      -2.998  -3.692 128.917  0.00  0.00    +0.277 C 
ENDBRANCH  13  17
BRANCH  14  19
ATOM     19  O   LIG A   1      -4.381  -4.497 132.812  0.00  0.00    -0.491 OA
ATOM     20  C   LIG A   1      -5.010  -5.380 133.756  0.00  0.00    +0.277 C 
ENDBRANCH  14  19
ENDBRANCH  10  11
ENDBRANCH   8  10
ENDBRANCH   1   8
BRANCH   1  21
ATOM     21  O   LIG A   1      -5.833  -1.231 126.470  0.00  0.00    -0.364 OA
ATOM     22  C   LIG A   1      -5.425   0.016 125.883  0.00  0.00    +0.195 C 
ENDBRANCH   1  21
BRANCH   2  23
ATOM     23  O   LIG A   1      -6.190  -3.563 124.534  0.00  0.00    -0.496 OA
ATOM     24  C   LIG A   1      -5.052  -3.250 123.704  0.00  0.00    +0.277 C 
ENDBRANCH   2  23
BRANCH   6  25
ATOM     25  C   LIG A   1      -9.767   0.960 124.968  0.00  0.00    +0.065 C 
BRANCH  25  26
ATOM     26  C   LIG A   1      -8.978   2.151 124.518  0.00  0.00    -0.030 C 
ATOM     27  C   LIG A   1      -8.878   2.492 123.227  0.00  0.00    +0.004 C 
ENDBRANCH  25  26
ENDBRANCH   6  25
TORSDOF 9
ENDMDL
MODEL 9
REMARK VINA RESULT:      -6.2      2.316      7.456
REMARK  Name = NuBBE_2180
REMARK  14 active torsions:
REMARK  status: ('A' for Active; 'I' for Inactive)
REMARK    1  A    between atoms: C_1  and  C_3
REMARK    2  A    between atoms: C_1  and  C_14
REMARK    3  A    between atoms: C_1  and  C_15
REMARK    4  A    between atoms: C_3  and  C_4
REMARK    5  A    between atoms: C_6  and  O_7
REMARK    6  A    between atoms: O_7  and  C_8
REMARK    7  A    between atoms: C_9  and  O_12
REMARK    8  A    between atoms: O_12  and  C_13
REMARK    9  A    between atoms: C_15  and  O_16
REMARK   10  A    between atoms: O_16  and  C_17
REMARK   11  A    between atoms: C_18  and  O_27
REMARK   12  A    between atoms: C_22  and  C_24
REMARK   13  A    between atoms: C_24  and  C_25
REMARK   14  A    between atoms: O_27  and  C_28
REMARK                            x       y       z     vdW  Elec       q    Type
REMARK                         _______ _______ _______ _____ _____    ______ ____
ROOT
ATOM      1  C   LIG A   1      -7.196  -1.761 126.515  0.00  0.00    +0.147 C 
ATOM      2  C   LIG A   1      -6.904  -2.389 125.114  0.00  0.00    +0.137 C 
ATOM      3  C   LIG A   1      -7.636  -2.080 124.032  0.00  0.00    +0.095 C 
ATOM      4  C   LIG A   1      -8.782  -1.156 124.070  0.00  0.00    +0.185 C 
ATOM      5  O   LIG A   1      -9.513  -1.056 123.056  0.00  0.00    -0.287 OA
ATOM      6  C   LIG A   1      -9.004  -0.385 125.275  0.00  0.00    +0.002 C 
ATOM      7  C   LIG A   1      -8.281  -0.674 126.384  0.00  0.00    +0.023 C 
ENDROOT
BRANCH   1   8
ATOM      8  C   LIG A   1      -7.678  -2.894 127.588  0.00  0.00    +0.034 C 
ATOM      9  C   LIG A   1      -8.973  -3.610 127.130  0.00  0.00    +0.011 C 
BRANCH   8  10
ATOM     10  C   LIG A   1      -7.885  -2.411 129.068  0.00  0.00    +0.042 C 
BRANCH  10  11
ATOM     11  C   LIG A   1      -7.126  -3.162 130.173  0.00  0.00    -0.043 A 
ATOM     12  C   LIG A   1      -7.288  -2.786 131.513  0.00  0.00    +0.053 A 
ATOM     13  C   LIG A   1      -6.619  -3.428 132.582  0.00  0.00    +0.162 A 
ATOM     14  C   LIG A   1      -5.664  -4.428 132.296  0.00  0.00    +0.162 A 
ATOM     15  C   LIG A   1      -5.493  -4.791 130.954  0.00  0.00    +0.050 A 
ATOM     16  C   LIG A   1      -6.230  -4.195 129.915  0.00  0.00    +0.007 A 
BRANCH  13  17
ATOM     17  O   LIG A   1      -6.919  -3.098 133.890  0.00  0.00    -0.491 OA
ATOM     18  C   LIG A   1      -8.303  -3.285 134.240  0.00  0.00    +0.277 C 
ENDBRANCH  13  17
BRANCH  14  19
ATOM     19  O   LIG A   1      -4.916  -4.994 133.307  0.00  0.00    -0.491 OA
ATOM     20  C   LIG A   1      -3.532  -4.619 133.404  0.00  0.00    +0.277 C 
ENDBRANCH  14  19
ENDBRANCH  10  11
ENDBRANCH   8  10
ENDBRANCH   1   8
BRANCH   1  21
ATOM     21  O   LIG A   1      -6.020  -1.088 127.053  0.00  0.00    -0.364 OA
ATOM     22  C   LIG A   1      -5.369  -0.078 126.264  0.00  0.00    +0.195 C 
ENDBRANCH   1  21
BRANCH   2  23
ATOM     23  O   LIG A   1      -5.896  -3.349 125.007  0.00  0.00    -0.496 OA
ATOM     24  C   LIG A   1      -5.267  -3.404 123.710  0.00  0.00    +0.277 C 
ENDBRANCH   2  23
BRANCH   6  25
ATOM     25  C   LIG A   1      -9.953   0.770 125.152  0.00  0.00    +0.065 C 
BRANCH  25  26
ATOM     26  C   LIG A   1      -9.253   2.040 124.777  0.00  0.00    -0.030 C 
ATOM     27  C   LIG A   1      -9.083   2.408 123.501  0.00  0.00    +0.004 C 
ENDBRANCH  25  26
ENDBRANCH   6  25
TORSDOF 9
ENDMDL
