MODEL 1
REMARK VINA RESULT:      -5.7      0.000      0.000
REMARK  Name = NuBBE_306
REMARK  17 active torsions:
REMARK  status: ('A' for Active; 'I' for Inactive)
REMARK    1  A    between atoms: CA_3  and  C_5
REMARK    2  A    between atoms: C_5  and  O_6
REMARK    3  A    between atoms: C_7  and  O_9
REMARK    4  A    between atoms: C_12  and  C_14
REMARK    5  A    between atoms: C_14  and  C_15
REMARK    6  A    between atoms: C_15  and  C_16
REMARK    7  A    between atoms: C_16  and  C_17
REMARK    8  A    between atoms: C_17  and  C_18
REMARK    9  A    between atoms: C_18  and  C_19
REMARK   10  A    between atoms: C_19  and  C_20
REMARK   11  A    between atoms: C_20  and  C_21
REMARK   12  A    between atoms: C_21  and  C_22
REMARK   13  A    between atoms: C_22  and  C_23
REMARK   14  A    between atoms: C_23  and  C_24
REMARK   15  A    between atoms: C_24  and  C_25
REMARK   16  A    between atoms: C_25  and  C_26
REMARK   17  A    between atoms: C_26  and  C_27
REMARK                            x       y       z     vdW  Elec       q    Type
REMARK                         _______ _______ _______ _____ _____    ______ ____
ROOT
ATOM      1  C   LIG A   1      -8.518   6.283 131.402  0.00  0.00    +0.002 C 
ENDROOT
BRANCH   1   2
ATOM      2  C   LIG A   1      -9.094   5.117 132.191  0.00  0.00    +0.000 C 
BRANCH   2   3
ATOM      3  C   LIG A   1      -8.199   3.913 132.459  0.00  0.00    -0.000 C 
BRANCH   3   4
ATOM      4  C   LIG A   1      -9.021   2.745 133.032  0.00  0.00    -0.000 C 
BRANCH   4   5
ATOM      5  C   LIG A   1      -9.816   1.961 131.978  0.00  0.00    -0.000 C 
BRANCH   5   6
ATOM      6  C   LIG A   1      -9.435   0.474 131.951  0.00  0.00    -0.000 C 
BRANCH   6   7
ATOM      7  C   LIG A   1      -7.979   0.298 131.516  0.00  0.00    -0.000 C 
BRANCH   7   8
ATOM      8  C   LIG A   1      -7.791  -0.578 130.285  0.00  0.00    +0.000 C 
BRANCH   8   9
ATOM      9  C   LIG A   1      -7.892   0.246 128.996  0.00  0.00    +0.000 C 
BRANCH   9  10
ATOM     10  C   LIG A   1      -7.434   1.709 129.067  0.00  0.00    +0.007 C 
BRANCH  10  11
ATOM     11  C   LIG A   1      -8.497   2.787 128.836  0.00  0.00    +0.074 C 
BRANCH  11  12
ATOM     12  C   LIG A   1      -7.943   4.162 128.460  0.00  0.00    +0.130 C 
ATOM     13  C   LIG A   1      -6.517   4.429 128.905  0.00  0.00    +0.086 C 
ATOM     14  O   LIG A   1      -8.556   4.983 127.839  0.00  0.00    -0.298 OA
ENDBRANCH  11  12
ENDBRANCH  10  11
ENDBRANCH   9  10
ENDBRANCH   8   9
ENDBRANCH   7   8
ENDBRANCH   6   7
ENDBRANCH   5   6
ENDBRANCH   4   5
ENDBRANCH   3   4
ENDBRANCH   2   3
ENDBRANCH   1   2
BRANCH   1  15
ATOM     15  C   LIG A   1      -9.565   6.960 130.492  0.00  0.00    +0.019 C 
BRANCH  15  22
ATOM     16  H   LIG A   1     -12.031   5.309 128.863  0.00  0.00    +0.123 HD
ATOM     17  N   LIG A   1     -11.369   6.089 128.839  0.00  0.00    -0.306 NA
ATOM     18  CA  LIG A   1     -12.043   7.171 128.092  0.00  0.00    +0.108 C 
ATOM     19  C   LIG A   1     -12.922   8.194 128.882  0.00  0.00    +0.134 C 
ATOM     20  C   LIG A   1     -12.748   8.229 130.388  0.00  0.00    +0.034 C 
ATOM     21  C   LIG A   1     -12.154   6.969 131.000  0.00  0.00    +0.021 C 
ATOM     22  C   LIG A   1     -10.984   6.368 130.227  0.00  0.00    +0.054 C 
BRANCH  19  23
ATOM     23  O   LIG A   1     -12.803   9.550 128.448  0.00  0.00    -0.390 OA
ATOM     24  H   LIG A   1     -13.494   9.704 127.779  0.00  0.00    +0.210 HD
ENDBRANCH  19  23
BRANCH  18  25
ATOM     25  C   LIG A   1     -11.111   7.594 126.931  0.00  0.00    +0.177 C 
BRANCH  25  26
ATOM     26  O   LIG A   1     -10.482   6.497 126.281  0.00  0.00    -0.393 OA
ATOM     27  H   LIG A   1     -10.188   5.905 126.998  0.00  0.00    +0.209 HD
ENDBRANCH  25  26
ENDBRANCH  18  25
ENDBRANCH  15  22
ENDBRANCH   1  15
TORSDOF 16
ENDMDL
MODEL 2
REMARK VINA RESULT:      -5.5      3.264      4.604
REMARK  Name = NuBBE_306
REMARK  17 active torsions:
REMARK  status: ('A' for Active; 'I' for Inactive)
REMARK    1  A    between atoms: CA_3  and  C_5
REMARK    2  A    between atoms: C_5  and  O_6
REMARK    3  A    between atoms: C_7  and  O_9
REMARK    4  A    between atoms: C_12  and  C_14
REMARK    5  A    between atoms: C_14  and  C_15
REMARK    6  A    between atoms: C_15  and  C_16
REMARK    7  A    between atoms: C_16  and  C_17
REMARK    8  A    between atoms: C_17  and  C_18
REMARK    9  A    between atoms: C_18  and  C_19
REMARK   10  A    between atoms: C_19  and  C_20
REMARK   11  A    between atoms: C_20  and  C_21
REMARK   12  A    between atoms: C_21  and  C_22
REMARK   13  A    between atoms: C_22  and  C_23
REMARK   14  A    between atoms: C_23  and  C_24
REMARK   15  A    between atoms: C_24  and  C_25
REMARK   16  A    between atoms: C_25  and  C_26
REMARK   17  A    between atoms: C_26  and  C_27
REMARK                            x       y       z     vdW  Elec       q    Type
REMARK                         _______ _______ _______ _____ _____    ______ ____
ROOT
ATOM      1  C   LIG A   1      -8.332   6.100 130.601  0.00  0.00    +0.002 C 
ENDROOT
BRANCH   1   2
ATOM      2  C   LIG A   1      -7.169   6.821 131.267  0.00  0.00    +0.000 C 
BRANCH   2   3
ATOM      3  C   LIG A   1      -6.361   6.072 132.320  0.00  0.00    -0.000 C 
BRANCH   3   4
ATOM      4  C   LIG A   1      -4.868   6.428 132.210  0.00  0.00    -0.000 C 
BRANCH   4   5
ATOM      5  C   LIG A   1      -4.540   7.410 131.075  0.00  0.00    -0.000 C 
BRANCH   5   6
ATOM      6  C   LIG A   1      -3.211   7.073 130.382  0.00  0.00    -0.000 C 
BRANCH   6   7
ATOM      7  C   LIG A   1      -3.299   7.351 128.881  0.00  0.00    -0.000 C 
BRANCH   7   8
ATOM      8  C   LIG A   1      -2.381   6.491 128.025  0.00  0.00    +0.000 C 
BRANCH   8   9
ATOM      9  C   LIG A   1      -2.574   5.000 128.327  0.00  0.00    +0.000 C 
BRANCH   9  10
ATOM     10  C   LIG A   1      -2.581   4.042 127.127  0.00  0.00    +0.007 C 
BRANCH  10  11
ATOM     11  C   LIG A   1      -3.919   3.393 126.760  0.00  0.00    +0.074 C 
BRANCH  11  12
ATOM     12  C   LIG A   1      -4.934   4.341 126.120  0.00  0.00    +0.130 C 
ATOM     13  C   LIG A   1      -5.219   4.089 124.651  0.00  0.00    +0.086 C 
ATOM     14  O   LIG A   1      -5.498   5.216 126.713  0.00  0.00    -0.298 OA
ENDBRANCH  11  12
ENDBRANCH  10  11
ENDBRANCH   9  10
ENDBRANCH   8   9
ENDBRANCH   7   8
ENDBRANCH   6   7
ENDBRANCH   5   6
ENDBRANCH   4   5
ENDBRANCH   3   4
ENDBRANCH   2   3
ENDBRANCH   1   2
BRANCH   1  15
ATOM     15  C   LIG A   1      -9.597   6.979 130.499  0.00  0.00    +0.019 C 
BRANCH  15  22
ATOM     16  H   LIG A   1     -12.066   5.406 128.799  0.00  0.00    +0.123 HD
ATOM     17  N   LIG A   1     -11.398   6.181 128.806  0.00  0.00    -0.306 NA
ATOM     18  CA  LIG A   1     -12.060   7.294 128.095  0.00  0.00    +0.108 C 
ATOM     19  C   LIG A   1     -12.936   8.294 128.917  0.00  0.00    +0.134 C 
ATOM     20  C   LIG A   1     -12.770   8.274 130.424  0.00  0.00    +0.034 C 
ATOM     21  C   LIG A   1     -12.189   6.989 130.994  0.00  0.00    +0.021 C 
ATOM     22  C   LIG A   1     -11.019   6.407 130.205  0.00  0.00    +0.054 C 
BRANCH  19  23
ATOM     23  O   LIG A   1     -12.805   9.664 128.533  0.00  0.00    -0.390 OA
ATOM     24  H   LIG A   1     -13.185   9.755 127.640  0.00  0.00    +0.210 HD
ENDBRANCH  19  23
BRANCH  18  25
ATOM     25  C   LIG A   1     -11.118   7.751 126.955  0.00  0.00    +0.177 C 
BRANCH  25  26
ATOM     26  O   LIG A   1     -10.400   6.684 126.351  0.00  0.00    -0.393 OA
ATOM     27  H   LIG A   1      -9.715   7.110 125.803  0.00  0.00    +0.209 HD
ENDBRANCH  25  26
ENDBRANCH  18  25
ENDBRANCH  15  22
ENDBRANCH   1  15
TORSDOF 16
ENDMDL
MODEL 3
REMARK VINA RESULT:      -5.5      2.101      3.891
REMARK  Name = NuBBE_306
REMARK  17 active torsions:
REMARK  status: ('A' for Active; 'I' for Inactive)
REMARK    1  A    between atoms: CA_3  and  C_5
REMARK    2  A    between atoms: C_5  and  O_6
REMARK    3  A    between atoms: C_7  and  O_9
REMARK    4  A    between atoms: C_12  and  C_14
REMARK    5  A    between atoms: C_14  and  C_15
REMARK    6  A    between atoms: C_15  and  C_16
REMARK    7  A    between atoms: C_16  and  C_17
REMARK    8  A    between atoms: C_17  and  C_18
REMARK    9  A    between atoms: C_18  and  C_19
REMARK   10  A    between atoms: C_19  and  C_20
REMARK   11  A    between atoms: C_20  and  C_21
REMARK   12  A    between atoms: C_21  and  C_22
REMARK   13  A    between atoms: C_22  and  C_23
REMARK   14  A    between atoms: C_23  and  C_24
REMARK   15  A    between atoms: C_24  and  C_25
REMARK   16  A    between atoms: C_25  and  C_26
REMARK   17  A    between atoms: C_26  and  C_27
REMARK                            x       y       z     vdW  Elec       q    Type
REMARK                         _______ _______ _______ _____ _____    ______ ____
ROOT
ATOM      1  C   LIG A   1      -8.858   6.628 131.370  0.00  0.00    +0.002 C 
ENDROOT
BRANCH   1   2
ATOM      2  C   LIG A   1      -7.384   6.901 131.108  0.00  0.00    +0.000 C 
BRANCH   2   3
ATOM      3  C   LIG A   1      -6.385   5.777 131.357  0.00  0.00    -0.000 C 
BRANCH   3   4
ATOM      4  C   LIG A   1      -5.247   6.259 132.273  0.00  0.00    -0.000 C 
BRANCH   4   5
ATOM      5  C   LIG A   1      -4.790   5.217 133.306  0.00  0.00    -0.000 C 
BRANCH   5   6
ATOM      6  C   LIG A   1      -4.946   5.722 134.747  0.00  0.00    -0.000 C 
BRANCH   6   7
ATOM      7  C   LIG A   1      -5.884   4.810 135.540  0.00  0.00    -0.000 C 
BRANCH   7   8
ATOM      8  C   LIG A   1      -6.808   3.958 134.682  0.00  0.00    +0.000 C 
BRANCH   8   9
ATOM      9  C   LIG A   1      -8.250   4.477 134.733  0.00  0.00    +0.000 C 
BRANCH   9  10
ATOM     10  C   LIG A   1      -9.234   3.901 133.705  0.00  0.00    +0.007 C 
BRANCH  10  11
ATOM     11  C   LIG A   1      -8.867   2.562 133.060  0.00  0.00    +0.074 C 
BRANCH  11  12
ATOM     12  C   LIG A   1      -8.535   2.641 131.569  0.00  0.00    +0.130 C 
ATOM     13  C   LIG A   1      -9.702   2.983 130.662  0.00  0.00    +0.086 C 
ATOM     14  O   LIG A   1      -7.437   2.471 131.118  0.00  0.00    -0.298 OA
ENDBRANCH  11  12
ENDBRANCH  10  11
ENDBRANCH   9  10
ENDBRANCH   8   9
ENDBRANCH   7   8
ENDBRANCH   6   7
ENDBRANCH   5   6
ENDBRANCH   4   5
ENDBRANCH   3   4
ENDBRANCH   2   3
ENDBRANCH   1   2
BRANCH   1  15
ATOM     15  C   LIG A   1      -9.717   6.726 130.091  0.00  0.00    +0.019 C 
BRANCH  15  22
ATOM     16  H   LIG A   1     -12.546   5.356 128.833  0.00  0.00    +0.123 HD
ATOM     17  N   LIG A   1     -11.812   6.058 128.709  0.00  0.00    -0.306 NA
ATOM     18  CA  LIG A   1     -12.459   7.208 128.043  0.00  0.00    +0.108 C 
ATOM     19  C   LIG A   1     -13.106   8.321 128.929  0.00  0.00    +0.134 C 
ATOM     20  C   LIG A   1     -12.727   8.337 130.396  0.00  0.00    +0.034 C 
ATOM     21  C   LIG A   1     -12.198   7.020 130.942  0.00  0.00    +0.021 C 
ATOM     22  C   LIG A   1     -11.215   6.293 130.028  0.00  0.00    +0.054 C 
BRANCH  19  23
ATOM     23  O   LIG A   1     -12.901   9.656 128.462  0.00  0.00    -0.390 OA
ATOM     24  H   LIG A   1     -13.755   9.984 128.130  0.00  0.00    +0.210 HD
ENDBRANCH  19  23
BRANCH  18  25
ATOM     25  C   LIG A   1     -11.652   7.525 126.761  0.00  0.00    +0.177 C 
BRANCH  25  26
ATOM     26  O   LIG A   1     -10.821   6.453 126.334  0.00  0.00    -0.393 OA
ATOM     27  H   LIG A   1     -11.420   5.693 126.215  0.00  0.00    +0.209 HD
ENDBRANCH  25  26
ENDBRANCH  18  25
ENDBRANCH  15  22
ENDBRANCH   1  15
TORSDOF 16
ENDMDL
MODEL 4
REMARK VINA RESULT:      -5.4      6.219      8.183
REMARK  Name = NuBBE_306
REMARK  17 active torsions:
REMARK  status: ('A' for Active; 'I' for Inactive)
REMARK    1  A    between atoms: CA_3  and  C_5
REMARK    2  A    between atoms: C_5  and  O_6
REMARK    3  A    between atoms: C_7  and  O_9
REMARK    4  A    between atoms: C_12  and  C_14
REMARK    5  A    between atoms: C_14  and  C_15
REMARK    6  A    between atoms: C_15  and  C_16
REMARK    7  A    between atoms: C_16  and  C_17
REMARK    8  A    between atoms: C_17  and  C_18
REMARK    9  A    between atoms: C_18  and  C_19
REMARK   10  A    between atoms: C_19  and  C_20
REMARK   11  A    between atoms: C_20  and  C_21
REMARK   12  A    between atoms: C_21  and  C_22
REMARK   13  A    between atoms: C_22  and  C_23
REMARK   14  A    between atoms: C_23  and  C_24
REMARK   15  A    between atoms: C_24  and  C_25
REMARK   16  A    between atoms: C_25  and  C_26
REMARK   17  A    between atoms: C_26  and  C_27
REMARK                            x       y       z     vdW  Elec       q    Type
REMARK                         _______ _______ _______ _____ _____    ______ ____
ROOT
ATOM      1  C   LIG A   1      -5.446  -0.796 125.554  0.00  0.00    +0.002 C 
ENDROOT
BRANCH   1   2
ATOM      2  C   LIG A   1      -5.828  -2.261 125.410  0.00  0.00    +0.000 C 
BRANCH   2   3
ATOM      3  C   LIG A   1      -6.422  -2.727 124.086  0.00  0.00    -0.000 C 
BRANCH   3   4
ATOM      4  C   LIG A   1      -7.947  -2.892 124.205  0.00  0.00    -0.000 C 
BRANCH   4   5
ATOM      5  C   LIG A   1      -8.385  -3.927 125.253  0.00  0.00    -0.000 C 
BRANCH   5   6
ATOM      6  C   LIG A   1      -9.093  -3.276 126.450  0.00  0.00    -0.000 C 
BRANCH   6   7
ATOM      7  C   LIG A   1      -8.795  -4.048 127.737  0.00  0.00    -0.000 C 
BRANCH   7   8
ATOM      8  C   LIG A   1      -8.472  -3.171 128.938  0.00  0.00    +0.000 C 
BRANCH   8   9
ATOM      9  C   LIG A   1      -7.467  -2.072 128.570  0.00  0.00    +0.000 C 
BRANCH   9  10
ATOM     10  C   LIG A   1      -6.216  -1.950 129.452  0.00  0.00    +0.007 C 
BRANCH  10  11
ATOM     11  C   LIG A   1      -4.975  -2.734 129.015  0.00  0.00    +0.074 C 
BRANCH  11  12
ATOM     12  C   LIG A   1      -4.401  -3.668 130.082  0.00  0.00    +0.130 C 
ATOM     13  C   LIG A   1      -5.385  -4.662 130.670  0.00  0.00    +0.086 C 
ATOM     14  O   LIG A   1      -3.256  -3.655 130.436  0.00  0.00    -0.298 OA
ENDBRANCH  11  12
ENDBRANCH  10  11
ENDBRANCH   9  10
ENDBRANCH   8   9
ENDBRANCH   7   8
ENDBRANCH   6   7
ENDBRANCH   5   6
ENDBRANCH   4   5
ENDBRANCH   3   4
ENDBRANCH   2   3
ENDBRANCH   1   2
BRANCH   1  15
ATOM     15  C   LIG A   1      -6.521   0.158 124.989  0.00  0.00    +0.019 C 
BRANCH  15  22
ATOM     16  H   LIG A   1      -8.696   2.531 126.036  0.00  0.00    +0.123 HD
ATOM     17  N   LIG A   1      -8.229   2.098 125.234  0.00  0.00    -0.306 NA
ATOM     18  CA  LIG A   1      -8.022   3.182 124.251  0.00  0.00    +0.108 C 
ATOM     19  C   LIG A   1      -6.704   4.018 124.324  0.00  0.00    +0.134 C 
ATOM     20  C   LIG A   1      -5.574   3.448 125.157  0.00  0.00    +0.034 C 
ATOM     21  C   LIG A   1      -5.995   2.436 126.212  0.00  0.00    +0.021 C 
ATOM     22  C   LIG A   1      -7.035   1.420 125.749  0.00  0.00    +0.054 C 
BRANCH  19  23
ATOM     23  O   LIG A   1      -6.126   4.339 123.056  0.00  0.00    -0.390 OA
ATOM     24  H   LIG A   1      -5.197   4.587 123.213  0.00  0.00    +0.210 HD
ENDBRANCH  19  23
BRANCH  18  25
ATOM     25  C   LIG A   1      -8.652   2.730 122.912  0.00  0.00    +0.177 C 
BRANCH  25  26
ATOM     26  O   LIG A   1      -8.680   3.752 121.925  0.00  0.00    -0.393 OA
ATOM     27  H   LIG A   1      -9.582   3.728 121.554  0.00  0.00    +0.209 HD
ENDBRANCH  25  26
ENDBRANCH  18  25
ENDBRANCH  15  22
ENDBRANCH   1  15
TORSDOF 16
ENDMDL
MODEL 5
REMARK VINA RESULT:      -5.4      1.686      3.207
REMARK  Name = NuBBE_306
REMARK  17 active torsions:
REMARK  status: ('A' for Active; 'I' for Inactive)
REMARK    1  A    between atoms: CA_3  and  C_5
REMARK    2  A    between atoms: C_5  and  O_6
REMARK    3  A    between atoms: C_7  and  O_9
REMARK    4  A    between atoms: C_12  and  C_14
REMARK    5  A    between atoms: C_14  and  C_15
REMARK    6  A    between atoms: C_15  and  C_16
REMARK    7  A    between atoms: C_16  and  C_17
REMARK    8  A    between atoms: C_17  and  C_18
REMARK    9  A    between atoms: C_18  and  C_19
REMARK   10  A    between atoms: C_19  and  C_20
REMARK   11  A    between atoms: C_20  and  C_21
REMARK   12  A    between atoms: C_21  and  C_22
REMARK   13  A    between atoms: C_22  and  C_23
REMARK   14  A    between atoms: C_23  and  C_24
REMARK   15  A    between atoms: C_24  and  C_25
REMARK   16  A    between atoms: C_25  and  C_26
REMARK   17  A    between atoms: C_26  and  C_27
REMARK                            x       y       z     vdW  Elec       q    Type
REMARK                         _______ _______ _______ _____ _____    ______ ____
ROOT
ATOM      1  C   LIG A   1      -8.397   6.490 131.394  0.00  0.00    +0.002 C 
ENDROOT
BRANCH   1   2
ATOM      2  C   LIG A   1      -7.000   7.041 131.153  0.00  0.00    +0.000 C 
BRANCH   2   3
ATOM      3  C   LIG A   1      -5.810   6.116 131.376  0.00  0.00    -0.000 C 
BRANCH   3   4
ATOM      4  C   LIG A   1      -6.247   4.643 131.300  0.00  0.00    -0.000 C 
BRANCH   4   5
ATOM      5  C   LIG A   1      -5.267   3.737 130.539  0.00  0.00    -0.000 C 
BRANCH   5   6
ATOM      6  C   LIG A   1      -5.766   3.397 129.128  0.00  0.00    -0.000 C 
BRANCH   6   7
ATOM      7  C   LIG A   1      -7.113   4.070 128.855  0.00  0.00    -0.000 C 
BRANCH   7   8
ATOM      8  C   LIG A   1      -8.235   3.109 128.490  0.00  0.00    +0.000 C 
BRANCH   8   9
ATOM      9  C   LIG A   1      -8.650   2.254 129.694  0.00  0.00    +0.000 C 
BRANCH   9  10
ATOM     10  C   LIG A   1      -9.654   2.876 130.676  0.00  0.00    +0.007 C 
BRANCH  10  11
ATOM     11  C   LIG A   1      -9.836   2.176 132.026  0.00  0.00    +0.074 C 
BRANCH  11  12
ATOM     12  C   LIG A   1      -8.979   2.742 133.159  0.00  0.00    +0.130 C 
ATOM     13  C   LIG A   1      -7.619   2.091 133.331  0.00  0.00    +0.086 C 
ATOM     14  O   LIG A   1      -9.319   3.649 133.865  0.00  0.00    -0.298 OA
ENDBRANCH  11  12
ENDBRANCH  10  11
ENDBRANCH   9  10
ENDBRANCH   8   9
ENDBRANCH   7   8
ENDBRANCH   6   7
ENDBRANCH   5   6
ENDBRANCH   4   5
ENDBRANCH   3   4
ENDBRANCH   2   3
ENDBRANCH   1   2
BRANCH   1  15
ATOM     15  C   LIG A   1      -9.424   6.999 130.360  0.00  0.00    +0.019 C 
BRANCH  15  22
ATOM     16  H   LIG A   1     -11.947   5.294 128.880  0.00  0.00    +0.123 HD
ATOM     17  N   LIG A   1     -11.304   6.089 128.817  0.00  0.00    -0.306 NA
ATOM     18  CA  LIG A   1     -12.046   7.156 128.113  0.00  0.00    +0.108 C 
ATOM     19  C   LIG A   1     -12.898   8.158 128.957  0.00  0.00    +0.134 C 
ATOM     20  C   LIG A   1     -12.635   8.197 130.449  0.00  0.00    +0.034 C 
ATOM     21  C   LIG A   1     -11.978   6.951 131.023  0.00  0.00    +0.021 C 
ATOM     22  C   LIG A   1     -10.843   6.376 130.179  0.00  0.00    +0.054 C 
BRANCH  19  23
ATOM     23  O   LIG A   1     -12.836   9.517 128.518  0.00  0.00    -0.390 OA
ATOM     24  H   LIG A   1     -13.712   9.914 128.672  0.00  0.00    +0.210 HD
ENDBRANCH  19  23
BRANCH  18  25
ATOM     25  C   LIG A   1     -11.195   7.599 126.899  0.00  0.00    +0.177 C 
BRANCH  25  26
ATOM     26  O   LIG A   1     -10.558   6.519 126.228  0.00  0.00    -0.393 OA
ATOM     27  H   LIG A   1     -10.677   5.746 126.811  0.00  0.00    +0.209 HD
ENDBRANCH  25  26
ENDBRANCH  18  25
ENDBRANCH  15  22
ENDBRANCH   1  15
TORSDOF 16
ENDMDL
MODEL 6
REMARK VINA RESULT:      -5.4      6.025      8.887
REMARK  Name = NuBBE_306
REMARK  17 active torsions:
REMARK  status: ('A' for Active; 'I' for Inactive)
REMARK    1  A    between atoms: CA_3  and  C_5
REMARK    2  A    between atoms: C_5  and  O_6
REMARK    3  A    between atoms: C_7  and  O_9
REMARK    4  A    between atoms: C_12  and  C_14
REMARK    5  A    between atoms: C_14  and  C_15
REMARK    6  A    between atoms: C_15  and  C_16
REMARK    7  A    between atoms: C_16  and  C_17
REMARK    8  A    between atoms: C_17  and  C_18
REMARK    9  A    between atoms: C_18  and  C_19
REMARK   10  A    between atoms: C_19  and  C_20
REMARK   11  A    between atoms: C_20  and  C_21
REMARK   12  A    between atoms: C_21  and  C_22
REMARK   13  A    between atoms: C_22  and  C_23
REMARK   14  A    between atoms: C_23  and  C_24
REMARK   15  A    between atoms: C_24  and  C_25
REMARK   16  A    between atoms: C_25  and  C_26
REMARK   17  A    between atoms: C_26  and  C_27
REMARK                            x       y       z     vdW  Elec       q    Type
REMARK                         _______ _______ _______ _____ _____    ______ ____
ROOT
ATOM      1  C   LIG A   1      -8.930  -4.002 127.969  0.00  0.00    +0.002 C 
ENDROOT
BRANCH   1   2
ATOM      2  C   LIG A   1      -8.263  -3.197 129.074  0.00  0.00    +0.000 C 
BRANCH   2   3
ATOM      3  C   LIG A   1      -6.743  -3.087 129.073  0.00  0.00    -0.000 C 
BRANCH   3   4
ATOM      4  C   LIG A   1      -6.307  -1.619 128.926  0.00  0.00    -0.000 C 
BRANCH   4   5
ATOM      5  C   LIG A   1      -7.472  -0.617 128.915  0.00  0.00    -0.000 C 
BRANCH   5   6
ATOM      6  C   LIG A   1      -7.448   0.313 130.137  0.00  0.00    -0.000 C 
BRANCH   6   7
ATOM      7  C   LIG A   1      -8.625   0.012 131.067  0.00  0.00    -0.000 C 
BRANCH   7   8
ATOM      8  C   LIG A   1      -8.268  -0.830 132.284  0.00  0.00    +0.000 C 
BRANCH   8   9
ATOM      9  C   LIG A   1      -6.756  -0.819 132.543  0.00  0.00    +0.000 C 
BRANCH   9  10
ATOM     10  C   LIG A   1      -6.057  -2.182 132.642  0.00  0.00    +0.007 C 
BRANCH  10  11
ATOM     11  C   LIG A   1      -4.576  -2.237 132.256  0.00  0.00    +0.074 C 
BRANCH  11  12
ATOM     12  C   LIG A   1      -4.134  -3.549 131.604  0.00  0.00    +0.130 C 
ATOM     13  C   LIG A   1      -4.986  -4.759 131.940  0.00  0.00    +0.086 C 
ATOM     14  O   LIG A   1      -3.200  -3.644 130.859  0.00  0.00    -0.298 OA
ENDBRANCH  11  12
ENDBRANCH  10  11
ENDBRANCH   9  10
ENDBRANCH   8   9
ENDBRANCH   7   8
ENDBRANCH   6   7
ENDBRANCH   5   6
ENDBRANCH   4   5
ENDBRANCH   3   4
ENDBRANCH   2   3
ENDBRANCH   1   2
BRANCH   1  15
ATOM     15  C   LIG A   1      -9.142  -3.180 126.679  0.00  0.00    +0.019 C 
BRANCH  15  22
ATOM     16  H   LIG A   1      -6.551  -1.691 125.088  0.00  0.00    +0.123 HD
ATOM     17  N   LIG A   1      -7.522  -1.603 125.400  0.00  0.00    -0.306 NA
ATOM     18  CA  LIG A   1      -8.202  -0.772 124.385  0.00  0.00    +0.108 C 
ATOM     19  C   LIG A   1      -8.862  -1.478 123.157  0.00  0.00    +0.134 C 
ATOM     20  C   LIG A   1      -9.074  -2.976 123.258  0.00  0.00    +0.034 C 
ATOM     21  C   LIG A   1      -8.190  -3.687 124.271  0.00  0.00    +0.021 C 
ATOM     22  C   LIG A   1      -8.030  -2.964 125.606  0.00  0.00    +0.054 C 
BRANCH  19  23
ATOM     23  O   LIG A   1     -10.123  -0.936 122.758  0.00  0.00    -0.390 OA
ATOM     24  H   LIG A   1     -10.671  -1.675 122.440  0.00  0.00    +0.210 HD
ENDBRANCH  19  23
BRANCH  18  25
ATOM     25  C   LIG A   1      -8.863   0.419 125.118  0.00  0.00    +0.177 C 
BRANCH  25  26
ATOM     26  O   LIG A   1     -10.203   0.165 125.521  0.00  0.00    -0.393 OA
ATOM     27  H   LIG A   1     -10.440  -0.686 125.107  0.00  0.00    +0.209 HD
ENDBRANCH  25  26
ENDBRANCH  18  25
ENDBRANCH  15  22
ENDBRANCH   1  15
TORSDOF 16
ENDMDL
MODEL 7
REMARK VINA RESULT:      -5.4      6.214      8.771
REMARK  Name = NuBBE_306
REMARK  17 active torsions:
REMARK  status: ('A' for Active; 'I' for Inactive)
REMARK    1  A    between atoms: CA_3  and  C_5
REMARK    2  A    between atoms: C_5  and  O_6
REMARK    3  A    between atoms: C_7  and  O_9
REMARK    4  A    between atoms: C_12  and  C_14
REMARK    5  A    between atoms: C_14  and  C_15
REMARK    6  A    between atoms: C_15  and  C_16
REMARK    7  A    between atoms: C_16  and  C_17
REMARK    8  A    between atoms: C_17  and  C_18
REMARK    9  A    between atoms: C_18  and  C_19
REMARK   10  A    between atoms: C_19  and  C_20
REMARK   11  A    between atoms: C_20  and  C_21
REMARK   12  A    between atoms: C_21  and  C_22
REMARK   13  A    between atoms: C_22  and  C_23
REMARK   14  A    between atoms: C_23  and  C_24
REMARK   15  A    between atoms: C_24  and  C_25
REMARK   16  A    between atoms: C_25  and  C_26
REMARK   17  A    between atoms: C_26  and  C_27
REMARK                            x       y       z     vdW  Elec       q    Type
REMARK                         _______ _______ _______ _____ _____    ______ ____
ROOT
ATOM      1  C   LIG A   1      -6.471  -1.788 122.518  0.00  0.00    +0.002 C 
ENDROOT
BRANCH   1   2
ATOM      2  C   LIG A   1      -5.377  -2.437 123.353  0.00  0.00    +0.000 C 
BRANCH   2   3
ATOM      3  C   LIG A   1      -5.699  -3.738 124.079  0.00  0.00    -0.000 C 
BRANCH   3   4
ATOM      4  C   LIG A   1      -6.737  -3.495 125.190  0.00  0.00    -0.000 C 
BRANCH   4   5
ATOM      5  C   LIG A   1      -8.179  -3.833 124.784  0.00  0.00    -0.000 C 
BRANCH   5   6
ATOM      6  C   LIG A   1      -9.209  -3.257 125.766  0.00  0.00    -0.000 C 
BRANCH   6   7
ATOM      7  C   LIG A   1      -8.525  -2.792 127.053  0.00  0.00    -0.000 C 
BRANCH   7   8
ATOM      8  C   LIG A   1      -8.740  -3.709 128.249  0.00  0.00    +0.000 C 
BRANCH   8   9
ATOM      9  C   LIG A   1      -8.017  -3.179 129.493  0.00  0.00    +0.000 C 
BRANCH   9  10
ATOM     10  C   LIG A   1      -6.723  -3.896 129.904  0.00  0.00    +0.007 C 
BRANCH  10  11
ATOM     11  C   LIG A   1      -5.636  -3.047 130.571  0.00  0.00    +0.074 C 
BRANCH  11  12
ATOM     12  C   LIG A   1      -4.536  -3.851 131.266  0.00  0.00    +0.130 C 
ATOM     13  C   LIG A   1      -5.023  -4.959 132.181  0.00  0.00    +0.086 C 
ATOM     14  O   LIG A   1      -3.364  -3.659 131.105  0.00  0.00    -0.298 OA
ENDBRANCH  11  12
ENDBRANCH  10  11
ENDBRANCH   9  10
ENDBRANCH   8   9
ENDBRANCH   7   8
ENDBRANCH   6   7
ENDBRANCH   5   6
ENDBRANCH   4   5
ENDBRANCH   3   4
ENDBRANCH   2   3
ENDBRANCH   1   2
BRANCH   1  15
ATOM     15  C   LIG A   1      -6.850  -0.380 123.026  0.00  0.00    +0.019 C 
BRANCH  15  22
ATOM     16  H   LIG A   1      -8.839  -0.213 125.761  0.00  0.00    +0.123 HD
ATOM     17  N   LIG A   1      -8.694   0.090 124.794  0.00  0.00    -0.306 NA
ATOM     18  CA  LIG A   1      -9.243   1.459 124.711  0.00  0.00    +0.108 C 
ATOM     19  C   LIG A   1      -8.300   2.665 125.027  0.00  0.00    +0.134 C 
ATOM     20  C   LIG A   1      -6.811   2.384 125.052  0.00  0.00    +0.034 C 
ATOM     21  C   LIG A   1      -6.431   0.929 125.279  0.00  0.00    +0.021 C 
ATOM     22  C   LIG A   1      -7.267  -0.082 124.500  0.00  0.00    +0.054 C 
BRANCH  19  23
ATOM     23  O   LIG A   1      -8.466   3.797 124.171  0.00  0.00    -0.390 OA
ATOM     24  H   LIG A   1      -7.732   4.411 124.354  0.00  0.00    +0.210 HD
ENDBRANCH  19  23
BRANCH  18  25
ATOM     25  C   LIG A   1     -10.273   1.485 123.557  0.00  0.00    +0.177 C 
BRANCH  25  26
ATOM     26  O   LIG A   1     -11.612   1.277 123.986  0.00  0.00    -0.393 OA
ATOM     27  H   LIG A   1     -11.812   0.347 123.770  0.00  0.00    +0.209 HD
ENDBRANCH  25  26
ENDBRANCH  18  25
ENDBRANCH  15  22
ENDBRANCH   1  15
TORSDOF 16
ENDMDL
MODEL 8
REMARK VINA RESULT:      -5.4      5.383      9.649
REMARK  Name = NuBBE_306
REMARK  17 active torsions:
REMARK  status: ('A' for Active; 'I' for Inactive)
REMARK    1  A    between atoms: CA_3  and  C_5
REMARK    2  A    between atoms: C_5  and  O_6
REMARK    3  A    between atoms: C_7  and  O_9
REMARK    4  A    between atoms: C_12  and  C_14
REMARK    5  A    between atoms: C_14  and  C_15
REMARK    6  A    between atoms: C_15  and  C_16
REMARK    7  A    between atoms: C_16  and  C_17
REMARK    8  A    between atoms: C_17  and  C_18
REMARK    9  A    between atoms: C_18  and  C_19
REMARK   10  A    between atoms: C_19  and  C_20
REMARK   11  A    between atoms: C_20  and  C_21
REMARK   12  A    between atoms: C_21  and  C_22
REMARK   13  A    between atoms: C_22  and  C_23
REMARK   14  A    between atoms: C_23  and  C_24
REMARK   15  A    between atoms: C_24  and  C_25
REMARK   16  A    between atoms: C_25  and  C_26
REMARK   17  A    between atoms: C_26  and  C_27
REMARK                            x       y       z     vdW  Elec       q    Type
REMARK                         _______ _______ _______ _____ _____    ______ ____
ROOT
ATOM      1  C   LIG A   1      -8.686  -3.526 128.260  0.00  0.00    +0.002 C 
ENDROOT
BRANCH   1   2
ATOM      2  C   LIG A   1      -8.415  -3.706 126.774  0.00  0.00    +0.000 C 
BRANCH   2   3
ATOM      3  C   LIG A   1      -9.398  -3.100 125.781  0.00  0.00    -0.000 C 
BRANCH   3   4
ATOM      4  C   LIG A   1      -9.011  -3.475 124.339  0.00  0.00    -0.000 C 
BRANCH   4   5
ATOM      5  C   LIG A   1      -9.123  -2.314 123.339  0.00  0.00    -0.000 C 
BRANCH   5   6
ATOM      6  C   LIG A   1      -7.748  -1.756 122.942  0.00  0.00    -0.000 C 
BRANCH   6   7
ATOM      7  C   LIG A   1      -6.628  -2.576 123.583  0.00  0.00    -0.000 C 
BRANCH   7   8
ATOM      8  C   LIG A   1      -5.698  -1.777 124.485  0.00  0.00    +0.000 C 
BRANCH   8   9
ATOM      9  C   LIG A   1      -6.323  -0.433 124.877  0.00  0.00    +0.000 C 
BRANCH   9  10
ATOM     10  C   LIG A   1      -6.841  -0.299 126.316  0.00  0.00    +0.007 C 
BRANCH  10  11
ATOM     11  C   LIG A   1      -8.279   0.194 126.498  0.00  0.00    +0.074 C 
BRANCH  11  12
ATOM     12  C   LIG A   1      -8.408   1.532 127.229  0.00  0.00    +0.130 C 
ATOM     13  C   LIG A   1      -8.332   1.453 128.743  0.00  0.00    +0.086 C 
ATOM     14  O   LIG A   1      -8.539   2.586 126.675  0.00  0.00    -0.298 OA
ENDBRANCH  11  12
ENDBRANCH  10  11
ENDBRANCH   9  10
ENDBRANCH   8   9
ENDBRANCH   7   8
ENDBRANCH   6   7
ENDBRANCH   5   6
ENDBRANCH   4   5
ENDBRANCH   3   4
ENDBRANCH   2   3
ENDBRANCH   1   2
BRANCH   1  15
ATOM     15  C   LIG A   1      -7.612  -2.665 128.960  0.00  0.00    +0.019 C 
BRANCH  15  22
ATOM     16  H   LIG A   1      -6.507  -2.275 132.136  0.00  0.00    +0.123 HD
ATOM     17  N   LIG A   1      -6.427  -1.967 131.163  0.00  0.00    -0.306 NA
ATOM     18  CA  LIG A   1      -5.010  -1.598 130.969  0.00  0.00    +0.108 C 
ATOM     19  C   LIG A   1      -4.006  -2.700 130.500  0.00  0.00    +0.134 C 
ATOM     20  C   LIG A   1      -4.599  -3.976 129.938  0.00  0.00    +0.034 C 
ATOM     21  C   LIG A   1      -6.036  -4.259 130.353  0.00  0.00    +0.021 C 
ATOM     22  C   LIG A   1      -6.962  -3.046 130.327  0.00  0.00    +0.054 C 
BRANCH  19  23
ATOM     23  O   LIG A   1      -3.043  -2.265 129.537  0.00  0.00    -0.390 OA
ATOM     24  H   LIG A   1      -2.428  -3.004 129.385  0.00  0.00    +0.210 HD
ENDBRANCH  19  23
BRANCH  18  25
ATOM     25  C   LIG A   1      -4.971  -0.148 130.429  0.00  0.00    +0.177 C 
BRANCH  25  26
ATOM     26  O   LIG A   1      -4.619  -0.064 129.054  0.00  0.00    -0.393 OA
ATOM     27  H   LIG A   1      -3.661   0.118 129.043  0.00  0.00    +0.209 HD
ENDBRANCH  25  26
ENDBRANCH  18  25
ENDBRANCH  15  22
ENDBRANCH   1  15
TORSDOF 16
ENDMDL
MODEL 9
REMARK VINA RESULT:      -5.3      5.952      8.619
REMARK  Name = NuBBE_306
REMARK  17 active torsions:
REMARK  status: ('A' for Active; 'I' for Inactive)
REMARK    1  A    between atoms: CA_3  and  C_5
REMARK    2  A    between atoms: C_5  and  O_6
REMARK    3  A    between atoms: C_7  and  O_9
REMARK    4  A    between atoms: C_12  and  C_14
REMARK    5  A    between atoms: C_14  and  C_15
REMARK    6  A    between atoms: C_15  and  C_16
REMARK    7  A    between atoms: C_16  and  C_17
REMARK    8  A    between atoms: C_17  and  C_18
REMARK    9  A    between atoms: C_18  and  C_19
REMARK   10  A    between atoms: C_19  and  C_20
REMARK   11  A    between atoms: C_20  and  C_21
REMARK   12  A    between atoms: C_21  and  C_22
REMARK   13  A    between atoms: C_22  and  C_23
REMARK   14  A    between atoms: C_23  and  C_24
REMARK   15  A    between atoms: C_24  and  C_25
REMARK   16  A    between atoms: C_25  and  C_26
REMARK   17  A    between atoms: C_26  and  C_27
REMARK                            x       y       z     vdW  Elec       q    Type
REMARK                         _______ _______ _______ _____ _____    ______ ____
ROOT
ATOM      1  C   LIG A   1      -8.911  -4.022 127.975  0.00  0.00    +0.002 C 
ENDROOT
BRANCH   1   2
ATOM      2  C   LIG A   1      -8.535  -3.204 129.201  0.00  0.00    +0.000 C 
BRANCH   2   3
ATOM      3  C   LIG A   1      -7.080  -3.207 129.654  0.00  0.00    -0.000 C 
BRANCH   3   4
ATOM      4  C   LIG A   1      -6.257  -2.195 128.837  0.00  0.00    -0.000 C 
BRANCH   4   5
ATOM      5  C   LIG A   1      -4.873  -2.710 128.414  0.00  0.00    -0.000 C 
BRANCH   5   6
ATOM      6  C   LIG A   1      -3.881  -2.740 129.586  0.00  0.00    -0.000 C 
BRANCH   6   7
ATOM      7  C   LIG A   1      -3.833  -1.381 130.286  0.00  0.00    -0.000 C 
BRANCH   7   8
ATOM      8  C   LIG A   1      -3.771  -1.457 131.805  0.00  0.00    +0.000 C 
BRANCH   8   9
ATOM      9  C   LIG A   1      -5.126  -1.864 132.397  0.00  0.00    +0.000 C 
BRANCH   9  10
ATOM     10  C   LIG A   1      -6.117  -0.734 132.710  0.00  0.00    +0.007 C 
BRANCH  10  11
ATOM     11  C   LIG A   1      -7.609  -1.062 132.599  0.00  0.00    +0.074 C 
BRANCH  11  12
ATOM     12  C   LIG A   1      -8.414  -0.094 131.730  0.00  0.00    +0.130 C 
ATOM     13  C   LIG A   1      -7.618   0.632 130.661  0.00  0.00    +0.086 C 
ATOM     14  O   LIG A   1      -9.593   0.086 131.845  0.00  0.00    -0.298 OA
ENDBRANCH  11  12
ENDBRANCH  10  11
ENDBRANCH   9  10
ENDBRANCH   8   9
ENDBRANCH   7   8
ENDBRANCH   6   7
ENDBRANCH   5   6
ENDBRANCH   4   5
ENDBRANCH   3   4
ENDBRANCH   2   3
ENDBRANCH   1   2
BRANCH   1  15
ATOM     15  C   LIG A   1      -9.118  -3.148 126.719  0.00  0.00    +0.019 C 
BRANCH  15  22
ATOM     16  H   LIG A   1      -6.569  -1.636 125.082  0.00  0.00    +0.123 HD
ATOM     17  N   LIG A   1      -7.540  -1.563 125.399  0.00  0.00    -0.306 NA
ATOM     18  CA  LIG A   1      -8.243  -0.764 124.375  0.00  0.00    +0.108 C 
ATOM     19  C   LIG A   1      -8.898  -1.505 123.165  0.00  0.00    +0.134 C 
ATOM     20  C   LIG A   1      -9.079  -3.004 123.294  0.00  0.00    +0.034 C 
ATOM     21  C   LIG A   1      -8.173  -3.679 124.313  0.00  0.00    +0.021 C 
ATOM     22  C   LIG A   1      -8.019  -2.929 125.633  0.00  0.00    +0.054 C 
BRANCH  19  23
ATOM     23  O   LIG A   1     -10.172  -0.995 122.766  0.00  0.00    -0.390 OA
ATOM     24  H   LIG A   1     -10.163  -0.033 122.920  0.00  0.00    +0.210 HD
ENDBRANCH  19  23
BRANCH  18  25
ATOM     25  C   LIG A   1      -8.923   0.427 125.092  0.00  0.00    +0.177 C 
BRANCH  25  26
ATOM     26  O   LIG A   1     -10.243   0.143 125.536  0.00  0.00    -0.393 OA
ATOM     27  H   LIG A   1     -10.760   0.947 125.342  0.00  0.00    +0.209 HD
ENDBRANCH  25  26
ENDBRANCH  18  25
ENDBRANCH  15  22
ENDBRANCH   1  15
TORSDOF 16
ENDMDL
