MODEL 1
REMARK VINA RESULT:      -9.8      0.000      0.000
REMARK  Name = NuBBE_255
REMARK  9 active torsions:
REMARK  status: ('A' for Active; 'I' for Inactive)
REMARK    1  A    between atoms: C_3  and  O_4
REMARK    2  A    between atoms: C_5  and  C_6
REMARK    3  A    between atoms: C_11  and  C_28
REMARK    4  A    between atoms: C_14  and  C_15
REMARK    5  A    between atoms: C_19  and  C_21
REMARK    6  A    between atoms: C_22  and  O_24
REMARK    7  A    between atoms: C_25  and  O_27
REMARK    8  A    between atoms: C_29  and  C_30
REMARK    9  A    between atoms: C_33  and  C_34
REMARK                            x       y       z     vdW  Elec       q    Type
REMARK                         _______ _______ _______ _____ _____    ______ ____
ROOT
ATOM      1  O   LIG A   1     -10.072  -2.516 123.156  0.00  0.00    -0.284 OA
ATOM      2  C   LIG A   1      -9.165  -1.734 123.297  0.00  0.00    +0.221 C 
ATOM      3  C   LIG A   1      -9.393  -0.266 123.186  0.00  0.00    +0.167 C 
ATOM      4  C   LIG A   1      -8.422   0.629 123.479  0.00  0.00    +0.002 C 
ATOM      5  C   LIG A   1      -8.694   2.081 123.246  0.00  0.00    +0.048 C 
ATOM      6  C   LIG A   1      -7.152   0.165 124.154  0.00  0.00    -0.014 C 
ATOM      7  C   LIG A   1      -6.234   0.957 124.777  0.00  0.00    +0.008 C 
ATOM      8  C   LIG A   1      -5.348   0.536 125.943  0.00  0.00    +0.001 C 
ATOM      9  C   LIG A   1      -5.478  -0.700 126.489  0.00  0.00    -0.053 C 
ATOM     10  C   LIG A   1      -5.642  -1.192 128.174  0.00  0.00    -0.004 C 
ATOM     11  C   LIG A   1      -5.259  -0.883 129.778  0.00  0.00    +0.012 C 
ATOM     12  C   LIG A   1      -6.086  -0.116 130.893  0.00  0.00    +0.010 C 
ATOM     13  C   LIG A   1      -7.554   0.314 130.612  0.00  0.00    -0.000 C 
ATOM     14  C   LIG A   1      -8.674  -0.686 130.992  0.00  0.00    +0.014 C 
ATOM     15  C   LIG A   1      -7.487   0.477 129.074  0.00  0.00    +0.004 C 
ATOM     16  C   LIG A   1      -8.432   1.574 128.517  0.00  0.00    +0.010 C 
ATOM     17  C   LIG A   1      -8.746   2.822 129.428  0.00  0.00    +0.017 C 
ATOM     18  C   LIG A   1      -7.805   4.046 129.335  0.00  0.00    +0.010 C 
ATOM     19  C   LIG A   1      -8.992   2.450 130.891  0.00  0.00    +0.146 C 
ATOM     20  C   LIG A   1      -7.864   1.588 131.465  0.00  0.00    +0.149 C 
ATOM     21  C   LIG A   1      -4.815  -2.540 128.148  0.00  0.00    +0.016 C 
ATOM     22  C   LIG A   1      -7.264  -1.061 128.338  0.00  0.00    -0.019 C 
ATOM     23  C   LIG A   1      -7.917  -2.336 128.987  0.00  0.00    +0.012 C 
ATOM     24  C   LIG A   1      -7.937  -1.185 126.987  0.00  0.00    +0.009 C 
ATOM     25  C   LIG A   1      -7.200  -2.388 126.292  0.00  0.00    +0.016 C 
ATOM     26  C   LIG A   1      -6.099  -1.776 125.438  0.00  0.00    +0.015 C 
ATOM     27  C   LIG A   1      -5.066  -2.705 124.758  0.00  0.00    +0.021 C 
ATOM     28  C   LIG A   1      -6.984  -1.267 124.289  0.00  0.00    -0.026 C 
ATOM     29  C   LIG A   1      -7.805  -2.156 123.678  0.00  0.00    +0.059 C 
ENDROOT
BRANCH   3  30
ATOM     30  O   LIG A   1     -10.682   0.087 122.819  0.00  0.00    -0.503 OA
ATOM     31  H   LIG A   1     -10.570   0.845 122.197  0.00  0.00    +0.292 HD
ENDBRANCH   3  30
BRANCH  19  32
ATOM     32  O   LIG A   1      -9.152   3.627 131.702  0.00  0.00    -0.389 OA
ATOM     33  H   LIG A   1      -9.007   4.410 131.135  0.00  0.00    +0.210 HD
ENDBRANCH  19  32
BRANCH  20  34
ATOM     34  O   LIG A   1      -8.230   1.246 132.825  0.00  0.00    -0.389 OA
ATOM     35  H   LIG A   1      -9.176   0.994 132.834  0.00  0.00    +0.210 HD
ENDBRANCH  20  34
TORSDOF 3
ENDMDL
MODEL 2
REMARK VINA RESULT:      -8.8      2.135      3.242
REMARK  Name = NuBBE_255
REMARK  9 active torsions:
REMARK  status: ('A' for Active; 'I' for Inactive)
REMARK    1  A    between atoms: C_3  and  O_4
REMARK    2  A    between atoms: C_5  and  C_6
REMARK    3  A    between atoms: C_11  and  C_28
REMARK    4  A    between atoms: C_14  and  C_15
REMARK    5  A    between atoms: C_19  and  C_21
REMARK    6  A    between atoms: C_22  and  O_24
REMARK    7  A    between atoms: C_25  and  O_27
REMARK    8  A    between atoms: C_29  and  C_30
REMARK    9  A    between atoms: C_33  and  C_34
REMARK                            x       y       z     vdW  Elec       q    Type
REMARK                         _______ _______ _______ _____ _____    ______ ____
ROOT
ATOM      1  O   LIG A   1      -9.858  -0.450 125.182  0.00  0.00    -0.284 OA
ATOM      2  C   LIG A   1      -8.903   0.248 125.414  0.00  0.00    +0.221 C 
ATOM      3  C   LIG A   1      -8.928   1.707 125.113  0.00  0.00    +0.167 C 
ATOM      4  C   LIG A   1      -7.924   2.529 125.493  0.00  0.00    +0.002 C 
ATOM      5  C   LIG A   1      -7.971   3.962 125.066  0.00  0.00    +0.048 C 
ATOM      6  C   LIG A   1      -6.859   2.026 126.440  0.00  0.00    -0.014 C 
ATOM      7  C   LIG A   1      -5.978   2.793 127.144  0.00  0.00    +0.008 C 
ATOM      8  C   LIG A   1      -5.371   2.431 128.494  0.00  0.00    +0.001 C 
ATOM      9  C   LIG A   1      -5.745   1.289 129.128  0.00  0.00    -0.053 C 
ATOM     10  C   LIG A   1      -6.264   1.026 130.792  0.00  0.00    -0.004 C 
ATOM     11  C   LIG A   1      -6.138   1.489 132.400  0.00  0.00    +0.012 C 
ATOM     12  C   LIG A   1      -7.051   2.465 133.253  0.00  0.00    +0.010 C 
ATOM     13  C   LIG A   1      -8.382   3.003 132.655  0.00  0.00    -0.000 C 
ATOM     14  C   LIG A   1      -9.665   2.174 132.915  0.00  0.00    +0.014 C 
ATOM     15  C   LIG A   1      -8.023   2.969 131.150  0.00  0.00    +0.004 C 
ATOM     16  C   LIG A   1      -8.715   4.079 130.315  0.00  0.00    +0.010 C 
ATOM     17  C   LIG A   1      -9.032   5.455 131.017  0.00  0.00    +0.017 C 
ATOM     18  C   LIG A   1      -7.948   6.557 130.981  0.00  0.00    +0.010 C 
ATOM     19  C   LIG A   1      -9.577   5.291 132.437  0.00  0.00    +0.146 C 
ATOM     20  C   LIG A   1      -8.683   4.396 133.300  0.00  0.00    +0.149 C 
ATOM     21  C   LIG A   1      -5.616  -0.391 131.061  0.00  0.00    +0.016 C 
ATOM     22  C   LIG A   1      -7.862   1.338 130.629  0.00  0.00    -0.019 C 
ATOM     23  C   LIG A   1      -8.769   0.224 131.268  0.00  0.00    +0.012 C 
ATOM     24  C   LIG A   1      -8.294   1.118 129.194  0.00  0.00    +0.009 C 
ATOM     25  C   LIG A   1      -7.596  -0.228 128.779  0.00  0.00    +0.016 C 
ATOM     26  C   LIG A   1      -6.295   0.161 128.092  0.00  0.00    +0.015 C 
ATOM     27  C   LIG A   1      -5.278  -0.942 127.719  0.00  0.00    +0.021 C 
ATOM     28  C   LIG A   1      -6.893   0.612 126.750  0.00  0.00    -0.026 C 
ATOM     29  C   LIG A   1      -7.694  -0.258 126.087  0.00  0.00    +0.059 C 
ENDROOT
BRANCH   3  30
ATOM     30  O   LIG A   1     -10.078   2.141 124.473  0.00  0.00    -0.503 OA
ATOM     31  H   LIG A   1      -9.758   2.665 123.701  0.00  0.00    +0.292 HD
ENDBRANCH   3  30
BRANCH  19  32
ATOM     32  O   LIG A   1      -9.736   6.568 133.079  0.00  0.00    -0.389 OA
ATOM     33  H   LIG A   1      -8.956   6.722 133.648  0.00  0.00    +0.210 HD
ENDBRANCH  19  32
BRANCH  20  34
ATOM     34  O   LIG A   1      -9.324   4.262 134.593  0.00  0.00    -0.389 OA
ATOM     35  H   LIG A   1      -9.221   3.335 134.891  0.00  0.00    +0.210 HD
ENDBRANCH  20  34
TORSDOF 3
ENDMDL
MODEL 3
REMARK VINA RESULT:      -8.5      3.112      5.050
REMARK  Name = NuBBE_255
REMARK  9 active torsions:
REMARK  status: ('A' for Active; 'I' for Inactive)
REMARK    1  A    between atoms: C_3  and  O_4
REMARK    2  A    between atoms: C_5  and  C_6
REMARK    3  A    between atoms: C_11  and  C_28
REMARK    4  A    between atoms: C_14  and  C_15
REMARK    5  A    between atoms: C_19  and  C_21
REMARK    6  A    between atoms: C_22  and  O_24
REMARK    7  A    between atoms: C_25  and  O_27
REMARK    8  A    between atoms: C_29  and  C_30
REMARK    9  A    between atoms: C_33  and  C_34
REMARK                            x       y       z     vdW  Elec       q    Type
REMARK                         _______ _______ _______ _____ _____    ______ ____
ROOT
ATOM      1  O   LIG A   1      -5.731  -0.770 126.229  0.00  0.00    -0.284 OA
ATOM      2  C   LIG A   1      -5.656   0.401 125.957  0.00  0.00    +0.221 C 
ATOM      3  C   LIG A   1      -6.787   1.109 125.294  0.00  0.00    +0.167 C 
ATOM      4  C   LIG A   1      -6.778   2.449 125.108  0.00  0.00    +0.002 C 
ATOM      5  C   LIG A   1      -7.902   3.073 124.345  0.00  0.00    +0.048 C 
ATOM      6  C   LIG A   1      -5.720   3.292 125.781  0.00  0.00    -0.014 C 
ATOM      7  C   LIG A   1      -5.751   4.646 125.943  0.00  0.00    +0.008 C 
ATOM      8  C   LIG A   1      -5.100   5.416 127.086  0.00  0.00    +0.001 C 
ATOM      9  C   LIG A   1      -4.472   4.749 128.089  0.00  0.00    -0.053 C 
ATOM     10  C   LIG A   1      -4.623   4.914 129.838  0.00  0.00    -0.004 C 
ATOM     11  C   LIG A   1      -4.916   5.931 131.140  0.00  0.00    +0.012 C 
ATOM     12  C   LIG A   1      -6.260   6.208 131.933  0.00  0.00    +0.010 C 
ATOM     13  C   LIG A   1      -7.520   5.341 131.652  0.00  0.00    -0.000 C 
ATOM     14  C   LIG A   1      -7.710   4.064 132.508  0.00  0.00    +0.014 C 
ATOM     15  C   LIG A   1      -7.246   4.955 130.178  0.00  0.00    +0.004 C 
ATOM     16  C   LIG A   1      -8.531   4.772 129.328  0.00  0.00    +0.010 C 
ATOM     17  C   LIG A   1      -9.798   5.638 129.693  0.00  0.00    +0.017 C 
ATOM     18  C   LIG A   1      -9.947   7.025 129.027  0.00  0.00    +0.010 C 
ATOM     19  C   LIG A   1     -10.039   5.742 131.200  0.00  0.00    +0.146 C 
ATOM     20  C   LIG A   1      -8.789   6.204 131.954  0.00  0.00    +0.149 C 
ATOM     21  C   LIG A   1      -3.123   4.656 130.268  0.00  0.00    +0.016 C 
ATOM     22  C   LIG A   1      -5.885   3.906 130.097  0.00  0.00    -0.019 C 
ATOM     23  C   LIG A   1      -5.621   2.883 131.261  0.00  0.00    +0.012 C 
ATOM     24  C   LIG A   1      -5.977   2.887 128.981  0.00  0.00    +0.009 C 
ATOM     25  C   LIG A   1      -4.492   2.424 128.752  0.00  0.00    +0.016 C 
ATOM     26  C   LIG A   1      -3.947   3.282 127.620  0.00  0.00    +0.015 C 
ATOM     27  C   LIG A   1      -2.444   3.202 127.267  0.00  0.00    +0.021 C 
ATOM     28  C   LIG A   1      -4.661   2.574 126.459  0.00  0.00    -0.026 C 
ATOM     29  C   LIG A   1      -4.500   1.232 126.336  0.00  0.00    +0.059 C 
ENDROOT
BRANCH   3  30
ATOM     30  O   LIG A   1      -7.851   0.291 124.947  0.00  0.00    -0.503 OA
ATOM     31  H   LIG A   1      -7.548  -0.192 124.142  0.00  0.00    +0.292 HD
ENDBRANCH   3  30
BRANCH  19  32
ATOM     32  O   LIG A   1     -11.127   6.636 131.487  0.00  0.00    -0.389 OA
ATOM     33  H   LIG A   1     -10.784   7.367 132.039  0.00  0.00    +0.210 HD
ENDBRANCH  19  32
BRANCH  20  34
ATOM     34  O   LIG A   1      -9.112   6.206 133.367  0.00  0.00    -0.389 OA
ATOM     35  H   LIG A   1      -8.597   6.919 133.798  0.00  0.00    +0.210 HD
ENDBRANCH  20  34
TORSDOF 3
ENDMDL
MODEL 4
REMARK VINA RESULT:      -8.5      2.948      6.496
REMARK  Name = NuBBE_255
REMARK  9 active torsions:
REMARK  status: ('A' for Active; 'I' for Inactive)
REMARK    1  A    between atoms: C_3  and  O_4
REMARK    2  A    between atoms: C_5  and  C_6
REMARK    3  A    between atoms: C_11  and  C_28
REMARK    4  A    between atoms: C_14  and  C_15
REMARK    5  A    between atoms: C_19  and  C_21
REMARK    6  A    between atoms: C_22  and  O_24
REMARK    7  A    between atoms: C_25  and  O_27
REMARK    8  A    between atoms: C_29  and  C_30
REMARK    9  A    between atoms: C_33  and  C_34
REMARK                            x       y       z     vdW  Elec       q    Type
REMARK                         _______ _______ _______ _____ _____    ______ ____
ROOT
ATOM      1  O   LIG A   1      -3.110  -3.984 128.767  0.00  0.00    -0.284 OA
ATOM      2  C   LIG A   1      -3.937  -3.223 129.203  0.00  0.00    +0.221 C 
ATOM      3  C   LIG A   1      -3.541  -1.908 129.781  0.00  0.00    +0.167 C 
ATOM      4  C   LIG A   1      -4.459  -0.985 130.145  0.00  0.00    +0.002 C 
ATOM      5  C   LIG A   1      -3.989   0.268 130.812  0.00  0.00    +0.048 C 
ATOM      6  C   LIG A   1      -5.907  -1.172 129.756  0.00  0.00    -0.014 C 
ATOM      7  C   LIG A   1      -6.878  -0.216 129.775  0.00  0.00    +0.008 C 
ATOM      8  C   LIG A   1      -8.092  -0.167 128.855  0.00  0.00    +0.001 C 
ATOM      9  C   LIG A   1      -8.246  -1.095 127.876  0.00  0.00    -0.053 C 
ATOM     10  C   LIG A   1      -8.609  -0.896 126.162  0.00  0.00    -0.004 C 
ATOM     11  C   LIG A   1      -9.392   0.002 124.981  0.00  0.00    +0.012 C 
ATOM     12  C   LIG A   1      -8.836   1.153 124.042  0.00  0.00    +0.010 C 
ATOM     13  C   LIG A   1      -7.313   1.465 124.014  0.00  0.00    -0.000 C 
ATOM     14  C   LIG A   1      -6.450   0.707 122.975  0.00  0.00    +0.014 C 
ATOM     15  C   LIG A   1      -6.931   1.021 125.447  0.00  0.00    +0.004 C 
ATOM     16  C   LIG A   1      -5.762   1.832 126.065  0.00  0.00    +0.010 C 
ATOM     17  C   LIG A   1      -5.592   3.340 125.637  0.00  0.00    +0.017 C 
ATOM     18  C   LIG A   1      -6.342   4.417 126.455  0.00  0.00    +0.010 C 
ATOM     19  C   LIG A   1      -5.803   3.566 124.139  0.00  0.00    +0.146 C 
ATOM     20  C   LIG A   1      -7.127   2.974 123.647  0.00  0.00    +0.149 C 
ATOM     21  C   LIG A   1      -9.527  -2.162 125.927  0.00  0.00    +0.016 C 
ATOM     22  C   LIG A   1      -7.092  -0.686 125.586  0.00  0.00    -0.019 C 
ATOM     23  C   LIG A   1      -6.778  -1.601 124.346  0.00  0.00    +0.012 C 
ATOM     24  C   LIG A   1      -6.084  -1.311 126.528  0.00  0.00    +0.009 C 
ATOM     25  C   LIG A   1      -6.716  -2.700 126.909  0.00  0.00    +0.016 C 
ATOM     26  C   LIG A   1      -7.467  -2.484 128.215  0.00  0.00    +0.015 C 
ATOM     27  C   LIG A   1      -8.357  -3.619 128.772  0.00  0.00    +0.021 C 
ATOM     28  C   LIG A   1      -6.250  -2.444 129.152  0.00  0.00    -0.026 C 
ATOM     29  C   LIG A   1      -5.384  -3.487 129.114  0.00  0.00    +0.059 C 
ENDROOT
BRANCH   3  30
ATOM     30  O   LIG A   1      -2.172  -1.703 129.853  0.00  0.00    -0.503 OA
ATOM     31  H   LIG A   1      -2.066  -0.727 129.956  0.00  0.00    +0.292 HD
ENDBRANCH   3  30
BRANCH  19  32
ATOM     32  O   LIG A   1      -5.758   4.967 123.818  0.00  0.00    -0.389 OA
ATOM     33  H   LIG A   1      -5.735   5.471 124.655  0.00  0.00    +0.210 HD
ENDBRANCH  19  32
BRANCH  20  34
ATOM     34  O   LIG A   1      -7.192   3.190 122.216  0.00  0.00    -0.389 OA
ATOM     35  H   LIG A   1      -6.592   2.549 121.781  0.00  0.00    +0.210 HD
ENDBRANCH  20  34
TORSDOF 3
ENDMDL
MODEL 5
REMARK VINA RESULT:      -8.3      3.420      6.508
REMARK  Name = NuBBE_255
REMARK  9 active torsions:
REMARK  status: ('A' for Active; 'I' for Inactive)
REMARK    1  A    between atoms: C_3  and  O_4
REMARK    2  A    between atoms: C_5  and  C_6
REMARK    3  A    between atoms: C_11  and  C_28
REMARK    4  A    between atoms: C_14  and  C_15
REMARK    5  A    between atoms: C_19  and  C_21
REMARK    6  A    between atoms: C_22  and  O_24
REMARK    7  A    between atoms: C_25  and  O_27
REMARK    8  A    between atoms: C_29  and  C_30
REMARK    9  A    between atoms: C_33  and  C_34
REMARK                            x       y       z     vdW  Elec       q    Type
REMARK                         _______ _______ _______ _____ _____    ______ ____
ROOT
ATOM      1  O   LIG A   1      -2.988  -4.040 130.361  0.00  0.00    -0.284 OA
ATOM      2  C   LIG A   1      -3.970  -3.475 130.773  0.00  0.00    +0.221 C 
ATOM      3  C   LIG A   1      -3.880  -2.504 131.899  0.00  0.00    +0.167 C 
ATOM      4  C   LIG A   1      -4.941  -1.756 132.281  0.00  0.00    +0.002 C 
ATOM      5  C   LIG A   1      -4.802  -0.879 133.484  0.00  0.00    +0.048 C 
ATOM      6  C   LIG A   1      -6.182  -1.720 131.420  0.00  0.00    -0.014 C 
ATOM      7  C   LIG A   1      -7.191  -0.806 131.498  0.00  0.00    +0.008 C 
ATOM      8  C   LIG A   1      -8.070  -0.357 130.337  0.00  0.00    +0.001 C 
ATOM      9  C   LIG A   1      -7.840  -0.826 129.083  0.00  0.00    -0.053 C 
ATOM     10  C   LIG A   1      -7.684   0.036 127.554  0.00  0.00    -0.004 C 
ATOM     11  C   LIG A   1      -8.147   1.352 126.621  0.00  0.00    +0.012 C 
ATOM     12  C   LIG A   1      -7.434   2.753 126.413  0.00  0.00    +0.010 C 
ATOM     13  C   LIG A   1      -6.006   2.990 126.982  0.00  0.00    -0.000 C 
ATOM     14  C   LIG A   1      -4.808   2.658 126.057  0.00  0.00    +0.014 C 
ATOM     15  C   LIG A   1      -6.038   2.010 128.180  0.00  0.00    +0.004 C 
ATOM     16  C   LIG A   1      -5.184   2.470 129.391  0.00  0.00    +0.010 C 
ATOM     17  C   LIG A   1      -5.022   4.019 129.644  0.00  0.00    +0.017 C 
ATOM     18  C   LIG A   1      -6.072   4.725 130.532  0.00  0.00    +0.010 C 
ATOM     19  C   LIG A   1      -4.789   4.815 128.359  0.00  0.00    +0.146 C 
ATOM     20  C   LIG A   1      -5.846   4.514 127.293  0.00  0.00    +0.149 C 
ATOM     21  C   LIG A   1      -8.377  -1.002 126.582  0.00  0.00    +0.016 C 
ATOM     22  C   LIG A   1      -6.088   0.390 127.603  0.00  0.00    -0.019 C 
ATOM     23  C   LIG A   1      -5.338   0.015 126.274  0.00  0.00    +0.012 C 
ATOM     24  C   LIG A   1      -5.363  -0.591 128.500  0.00  0.00    +0.009 C 
ATOM     25  C   LIG A   1      -5.959  -1.992 128.108  0.00  0.00    +0.016 C 
ATOM     26  C   LIG A   1      -7.085  -2.268 129.094  0.00  0.00    +0.015 C 
ATOM     27  C   LIG A   1      -8.002  -3.493 128.871  0.00  0.00    +0.021 C 
ATOM     28  C   LIG A   1      -6.217  -2.643 130.304  0.00  0.00    -0.026 C 
ATOM     29  C   LIG A   1      -5.294  -3.625 130.145  0.00  0.00    +0.059 C 
ENDROOT
BRANCH   3  30
ATOM     30  O   LIG A   1      -2.620  -2.398 132.466  0.00  0.00    -0.503 OA
ATOM     31  H   LIG A   1      -1.993  -2.457 131.705  0.00  0.00    +0.292 HD
ENDBRANCH   3  30
BRANCH  19  32
ATOM     32  O   LIG A   1      -4.768   6.228 128.625  0.00  0.00    -0.389 OA
ATOM     33  H   LIG A   1      -4.177   6.652 127.972  0.00  0.00    +0.210 HD
ENDBRANCH  19  32
BRANCH  20  34
ATOM     34  O   LIG A   1      -5.494   5.270 126.108  0.00  0.00    -0.389 OA
ATOM     35  H   LIG A   1      -6.052   4.956 125.367  0.00  0.00    +0.210 HD
ENDBRANCH  20  34
TORSDOF 3
ENDMDL
MODEL 6
REMARK VINA RESULT:      -8.2      3.640      6.310
REMARK  Name = NuBBE_255
REMARK  9 active torsions:
REMARK  status: ('A' for Active; 'I' for Inactive)
REMARK    1  A    between atoms: C_3  and  O_4
REMARK    2  A    between atoms: C_5  and  C_6
REMARK    3  A    between atoms: C_11  and  C_28
REMARK    4  A    between atoms: C_14  and  C_15
REMARK    5  A    between atoms: C_19  and  C_21
REMARK    6  A    between atoms: C_22  and  O_24
REMARK    7  A    between atoms: C_25  and  O_27
REMARK    8  A    between atoms: C_29  and  C_30
REMARK    9  A    between atoms: C_33  and  C_34
REMARK                            x       y       z     vdW  Elec       q    Type
REMARK                         _______ _______ _______ _____ _____    ______ ____
ROOT
ATOM      1  O   LIG A   1      -5.780  -3.330 129.215  0.00  0.00    -0.284 OA
ATOM      2  C   LIG A   1      -6.519  -2.404 129.434  0.00  0.00    +0.221 C 
ATOM      3  C   LIG A   1      -6.620  -1.809 130.796  0.00  0.00    +0.167 C 
ATOM      4  C   LIG A   1      -7.335  -0.685 131.030  0.00  0.00    +0.002 C 
ATOM      5  C   LIG A   1      -7.472  -0.205 132.440  0.00  0.00    +0.048 C 
ATOM      6  C   LIG A   1      -7.858   0.128 129.869  0.00  0.00    -0.014 C 
ATOM      7  C   LIG A   1      -8.318   1.410 129.924  0.00  0.00    +0.008 C 
ATOM      8  C   LIG A   1      -8.250   2.424 128.788  0.00  0.00    +0.001 C 
ATOM      9  C   LIG A   1      -7.640   2.101 127.618  0.00  0.00    -0.053 C 
ATOM     10  C   LIG A   1      -6.425   2.975 126.686  0.00  0.00    -0.004 C 
ATOM     11  C   LIG A   1      -5.804   4.462 126.220  0.00  0.00    +0.012 C 
ATOM     12  C   LIG A   1      -4.594   5.294 126.819  0.00  0.00    +0.010 C 
ATOM     13  C   LIG A   1      -3.674   4.656 127.899  0.00  0.00    -0.000 C 
ATOM     14  C   LIG A   1      -2.421   3.892 127.404  0.00  0.00    +0.014 C 
ATOM     15  C   LIG A   1      -4.676   3.670 128.546  0.00  0.00    +0.004 C 
ATOM     16  C   LIG A   1      -4.428   3.424 130.058  0.00  0.00    +0.010 C 
ATOM     17  C   LIG A   1      -3.814   4.598 130.914  0.00  0.00    +0.017 C 
ATOM     18  C   LIG A   1      -4.787   5.605 131.570  0.00  0.00    +0.010 C 
ATOM     19  C   LIG A   1      -2.686   5.338 130.194  0.00  0.00    +0.146 C 
ATOM     20  C   LIG A   1      -3.100   5.803 128.795  0.00  0.00    +0.149 C 
ATOM     21  C   LIG A   1      -6.894   2.616 125.219  0.00  0.00    +0.016 C 
ATOM     22  C   LIG A   1      -5.072   2.427 127.425  0.00  0.00    -0.019 C 
ATOM     23  C   LIG A   1      -3.984   1.921 126.408  0.00  0.00    +0.012 C 
ATOM     24  C   LIG A   1      -5.340   1.088 128.080  0.00  0.00    +0.009 C 
ATOM     25  C   LIG A   1      -6.163   0.286 127.007  0.00  0.00    +0.016 C 
ATOM     26  C   LIG A   1      -7.630   0.496 127.351  0.00  0.00    +0.015 C 
ATOM     27  C   LIG A   1      -8.716  -0.016 126.377  0.00  0.00    +0.021 C 
ATOM     28  C   LIG A   1      -7.701  -0.458 128.553  0.00  0.00    -0.026 C 
ATOM     29  C   LIG A   1      -7.296  -1.740 128.373  0.00  0.00    +0.059 C 
ENDROOT
BRANCH   3  30
ATOM     30  O   LIG A   1      -5.880  -2.467 131.765  0.00  0.00    -0.503 OA
ATOM     31  H   LIG A   1      -6.404  -3.276 131.980  0.00  0.00    +0.292 HD
ENDBRANCH   3  30
BRANCH  19  32
ATOM     32  O   LIG A   1      -2.242   6.471 130.961  0.00  0.00    -0.389 OA
ATOM     33  H   LIG A   1      -1.288   6.360 131.143  0.00  0.00    +0.210 HD
ENDBRANCH  19  32
BRANCH  20  34
ATOM     34  O   LIG A   1      -1.944   6.431 128.188  0.00  0.00    -0.389 OA
ATOM     35  H   LIG A   1      -1.595   7.099 128.813  0.00  0.00    +0.210 HD
ENDBRANCH  20  34
TORSDOF 3
ENDMDL
MODEL 7
REMARK VINA RESULT:      -8.2      2.954      3.976
REMARK  Name = NuBBE_255
REMARK  9 active torsions:
REMARK  status: ('A' for Active; 'I' for Inactive)
REMARK    1  A    between atoms: C_3  and  O_4
REMARK    2  A    between atoms: C_5  and  C_6
REMARK    3  A    between atoms: C_11  and  C_28
REMARK    4  A    between atoms: C_14  and  C_15
REMARK    5  A    between atoms: C_19  and  C_21
REMARK    6  A    between atoms: C_22  and  O_24
REMARK    7  A    between atoms: C_25  and  O_27
REMARK    8  A    between atoms: C_29  and  C_30
REMARK    9  A    between atoms: C_33  and  C_34
REMARK                            x       y       z     vdW  Elec       q    Type
REMARK                         _______ _______ _______ _____ _____    ______ ____
ROOT
ATOM      1  O   LIG A   1     -10.896   1.228 124.562  0.00  0.00    -0.284 OA
ATOM      2  C   LIG A   1      -9.824   0.679 124.511  0.00  0.00    +0.221 C 
ATOM      3  C   LIG A   1      -8.780   1.122 123.546  0.00  0.00    +0.167 C 
ATOM      4  C   LIG A   1      -7.527   0.613 123.569  0.00  0.00    +0.002 C 
ATOM      5  C   LIG A   1      -6.564   1.032 122.504  0.00  0.00    +0.048 C 
ATOM      6  C   LIG A   1      -7.089  -0.251 124.729  0.00  0.00    -0.014 C 
ATOM      7  C   LIG A   1      -5.806  -0.580 125.051  0.00  0.00    +0.008 C 
ATOM      8  C   LIG A   1      -5.293  -0.873 126.456  0.00  0.00    +0.001 C 
ATOM      9  C   LIG A   1      -6.122  -0.756 127.525  0.00  0.00    -0.053 C 
ATOM     10  C   LIG A   1      -5.895   0.082 129.059  0.00  0.00    -0.004 C 
ATOM     11  C   LIG A   1      -4.823   0.576 130.252  0.00  0.00    +0.012 C 
ATOM     12  C   LIG A   1      -4.092   1.970 130.450  0.00  0.00    +0.010 C 
ATOM     13  C   LIG A   1      -4.478   3.182 129.555  0.00  0.00    -0.000 C 
ATOM     14  C   LIG A   1      -5.601   4.117 130.069  0.00  0.00    +0.014 C 
ATOM     15  C   LIG A   1      -4.951   2.430 128.288  0.00  0.00    +0.004 C 
ATOM     16  C   LIG A   1      -4.693   3.201 126.967  0.00  0.00    +0.010 C 
ATOM     17  C   LIG A   1      -3.440   4.157 126.893  0.00  0.00    +0.017 C 
ATOM     18  C   LIG A   1      -2.094   3.556 126.425  0.00  0.00    +0.010 C 
ATOM     19  C   LIG A   1      -3.242   4.984 128.164  0.00  0.00    +0.146 C 
ATOM     20  C   LIG A   1      -3.228   4.113 129.424  0.00  0.00    +0.149 C 
ATOM     21  C   LIG A   1      -6.647  -0.915 130.031  0.00  0.00    +0.016 C 
ATOM     22  C   LIG A   1      -6.405   1.576 128.631  0.00  0.00    -0.019 C 
ATOM     23  C   LIG A   1      -7.442   2.181 129.645  0.00  0.00    +0.012 C 
ATOM     24  C   LIG A   1      -7.344   1.487 127.446  0.00  0.00    +0.009 C 
ATOM     25  C   LIG A   1      -8.292   0.280 127.789  0.00  0.00    +0.016 C 
ATOM     26  C   LIG A   1      -7.686  -0.943 127.115  0.00  0.00    +0.015 C 
ATOM     27  C   LIG A   1      -8.281  -2.339 127.407  0.00  0.00    +0.021 C 
ATOM     28  C   LIG A   1      -8.120  -0.624 125.676  0.00  0.00    -0.026 C 
ATOM     29  C   LIG A   1      -9.437  -0.392 125.446  0.00  0.00    +0.059 C 
ENDROOT
BRANCH   3  30
ATOM     30  O   LIG A   1      -9.187   2.124 122.680  0.00  0.00    -0.503 OA
ATOM     31  H   LIG A   1     -10.131   1.917 122.477  0.00  0.00    +0.292 HD
ENDBRANCH   3  30
BRANCH  19  32
ATOM     32  O   LIG A   1      -2.025   5.747 128.098  0.00  0.00    -0.389 OA
ATOM     33  H   LIG A   1      -2.038   6.406 128.820  0.00  0.00    +0.210 HD
ENDBRANCH  19  32
BRANCH  20  34
ATOM     34  O   LIG A   1      -3.098   5.001 130.562  0.00  0.00    -0.389 OA
ATOM     35  H   LIG A   1      -2.283   4.759 131.048  0.00  0.00    +0.210 HD
ENDBRANCH  20  34
TORSDOF 3
ENDMDL
MODEL 8
REMARK VINA RESULT:      -8.1      2.088      6.891
REMARK  Name = NuBBE_255
REMARK  9 active torsions:
REMARK  status: ('A' for Active; 'I' for Inactive)
REMARK    1  A    between atoms: C_3  and  O_4
REMARK    2  A    between atoms: C_5  and  C_6
REMARK    3  A    between atoms: C_11  and  C_28
REMARK    4  A    between atoms: C_14  and  C_15
REMARK    5  A    between atoms: C_19  and  C_21
REMARK    6  A    between atoms: C_22  and  O_24
REMARK    7  A    between atoms: C_25  and  O_27
REMARK    8  A    between atoms: C_29  and  C_30
REMARK    9  A    between atoms: C_33  and  C_34
REMARK                            x       y       z     vdW  Elec       q    Type
REMARK                         _______ _______ _______ _____ _____    ______ ____
ROOT
ATOM      1  O   LIG A   1      -3.425   3.207 131.231  0.00  0.00    -0.284 OA
ATOM      2  C   LIG A   1      -4.612   3.040 131.351  0.00  0.00    +0.221 C 
ATOM      3  C   LIG A   1      -5.586   3.905 130.627  0.00  0.00    +0.167 C 
ATOM      4  C   LIG A   1      -6.913   3.646 130.637  0.00  0.00    +0.002 C 
ATOM      5  C   LIG A   1      -7.837   4.616 129.972  0.00  0.00    +0.048 C 
ATOM      6  C   LIG A   1      -7.417   2.334 131.192  0.00  0.00    -0.014 C 
ATOM      7  C   LIG A   1      -8.658   1.801 131.001  0.00  0.00    +0.008 C 
ATOM      8  C   LIG A   1      -8.989   0.314 130.980  0.00  0.00    +0.001 C 
ATOM      9  C   LIG A   1      -7.999  -0.609 131.099  0.00  0.00    -0.053 C 
ATOM     10  C   LIG A   1      -7.648  -2.036 130.126  0.00  0.00    -0.004 C 
ATOM     11  C   LIG A   1      -8.253  -3.287 129.186  0.00  0.00    +0.012 C 
ATOM     12  C   LIG A   1      -8.402  -3.397 127.611  0.00  0.00    +0.010 C 
ATOM     13  C   LIG A   1      -7.777  -2.307 126.694  0.00  0.00    -0.000 C 
ATOM     14  C   LIG A   1      -6.326  -2.537 126.203  0.00  0.00    +0.014 C 
ATOM     15  C   LIG A   1      -7.826  -1.098 127.659  0.00  0.00    +0.004 C 
ATOM     16  C   LIG A   1      -8.023   0.266 126.946  0.00  0.00    +0.010 C 
ATOM     17  C   LIG A   1      -8.852   0.295 125.605  0.00  0.00    +0.017 C 
ATOM     18  C   LIG A   1     -10.383   0.493 125.701  0.00  0.00    +0.010 C 
ATOM     19  C   LIG A   1      -8.524  -0.871 124.672  0.00  0.00    +0.146 C 
ATOM     20  C   LIG A   1      -8.623  -2.225 125.381  0.00  0.00    +0.149 C 
ATOM     21  C   LIG A   1      -7.138  -3.020 131.255  0.00  0.00    +0.016 C 
ATOM     22  C   LIG A   1      -6.729  -1.350 128.960  0.00  0.00    -0.019 C 
ATOM     23  C   LIG A   1      -5.386  -2.126 128.705  0.00  0.00    +0.012 C 
ATOM     24  C   LIG A   1      -6.101  -0.071 129.474  0.00  0.00    +0.009 C 
ATOM     25  C   LIG A   1      -5.594  -0.439 130.916  0.00  0.00    +0.016 C 
ATOM     26  C   LIG A   1      -6.697  -0.019 131.877  0.00  0.00    +0.015 C 
ATOM     27  C   LIG A   1      -6.589  -0.409 133.369  0.00  0.00    +0.021 C 
ATOM     28  C   LIG A   1      -6.436   1.494 131.847  0.00  0.00    -0.026 C 
ATOM     29  C   LIG A   1      -5.183   1.929 132.133  0.00  0.00    +0.059 C 
ENDROOT
BRANCH   3  30
ATOM     30  O   LIG A   1      -5.009   4.942 129.911  0.00  0.00    -0.503 OA
ATOM     31  H   LIG A   1      -4.101   5.037 130.288  0.00  0.00    +0.292 HD
ENDBRANCH   3  30
BRANCH  19  32
ATOM     32  O   LIG A   1      -9.387  -0.870 123.522  0.00  0.00    -0.389 OA
ATOM     33  H   LIG A   1     -10.272  -0.566 123.806  0.00  0.00    +0.210 HD
ENDBRANCH  19  32
BRANCH  20  34
ATOM     34  O   LIG A   1      -8.234  -3.243 124.427  0.00  0.00    -0.389 OA
ATOM     35  H   LIG A   1      -7.746  -2.809 123.697  0.00  0.00    +0.210 HD
ENDBRANCH  20  34
TORSDOF 3
ENDMDL
MODEL 9
REMARK VINA RESULT:      -8.1      1.888      7.130
REMARK  Name = NuBBE_255
REMARK  9 active torsions:
REMARK  status: ('A' for Active; 'I' for Inactive)
REMARK    1  A    between atoms: C_3  and  O_4
REMARK    2  A    between atoms: C_5  and  C_6
REMARK    3  A    between atoms: C_11  and  C_28
REMARK    4  A    between atoms: C_14  and  C_15
REMARK    5  A    between atoms: C_19  and  C_21
REMARK    6  A    between atoms: C_22  and  O_24
REMARK    7  A    between atoms: C_25  and  O_27
REMARK    8  A    between atoms: C_29  and  C_30
REMARK    9  A    between atoms: C_33  and  C_34
REMARK                            x       y       z     vdW  Elec       q    Type
REMARK                         _______ _______ _______ _____ _____    ______ ____
ROOT
ATOM      1  O   LIG A   1      -7.906  -0.690 133.379  0.00  0.00    -0.284 OA
ATOM      2  C   LIG A   1      -7.057  -1.097 132.626  0.00  0.00    +0.221 C 
ATOM      3  C   LIG A   1      -7.011  -2.531 132.224  0.00  0.00    +0.167 C 
ATOM      4  C   LIG A   1      -6.157  -2.977 131.275  0.00  0.00    +0.002 C 
ATOM      5  C   LIG A   1      -6.099  -4.446 130.999  0.00  0.00    +0.048 C 
ATOM      6  C   LIG A   1      -5.389  -1.987 130.431  0.00  0.00    -0.014 C 
ATOM      7  C   LIG A   1      -4.741  -2.256 129.262  0.00  0.00    +0.008 C 
ATOM      8  C   LIG A   1      -4.524  -1.267 128.123  0.00  0.00    +0.001 C 
ATOM      9  C   LIG A   1      -5.047  -0.016 128.194  0.00  0.00    -0.053 C 
ATOM     10  C   LIG A   1      -6.000   0.891 127.021  0.00  0.00    -0.004 C 
ATOM     11  C   LIG A   1      -6.323   1.203 125.404  0.00  0.00    +0.012 C 
ATOM     12  C   LIG A   1      -7.444   0.604 124.456  0.00  0.00    +0.010 C 
ATOM     13  C   LIG A   1      -8.565  -0.295 125.051  0.00  0.00    -0.000 C 
ATOM     14  C   LIG A   1      -9.862   0.407 125.525  0.00  0.00    +0.014 C 
ATOM     15  C   LIG A   1      -7.807  -0.886 126.264  0.00  0.00    +0.004 C 
ATOM     16  C   LIG A   1      -8.254  -2.323 126.643  0.00  0.00    +0.010 C 
ATOM     17  C   LIG A   1      -8.763  -3.275 125.494  0.00  0.00    +0.017 C 
ATOM     18  C   LIG A   1      -7.721  -4.144 124.753  0.00  0.00    +0.010 C 
ATOM     19  C   LIG A   1      -9.675  -2.567 124.490  0.00  0.00    +0.146 C 
ATOM     20  C   LIG A   1      -9.044  -1.285 123.939  0.00  0.00    +0.149 C 
ATOM     21  C   LIG A   1      -5.437   2.347 127.277  0.00  0.00    +0.016 C 
ATOM     22  C   LIG A   1      -7.495   0.355 127.413  0.00  0.00    -0.019 C 
ATOM     23  C   LIG A   1      -8.532   1.521 127.600  0.00  0.00    +0.012 C 
ATOM     24  C   LIG A   1      -7.515  -0.133 128.847  0.00  0.00    +0.009 C 
ATOM     25  C   LIG A   1      -6.717   0.963 129.644  0.00  0.00    +0.016 C 
ATOM     26  C   LIG A   1      -5.282   0.467 129.731  0.00  0.00    +0.015 C 
ATOM     27  C   LIG A   1      -4.192   1.404 130.300  0.00  0.00    +0.021 C 
ATOM     28  C   LIG A   1      -5.493  -0.596 130.820  0.00  0.00    -0.026 C 
ATOM     29  C   LIG A   1      -6.074  -0.208 131.982  0.00  0.00    +0.059 C 
ENDROOT
BRANCH   3  30
ATOM     30  O   LIG A   1      -7.947  -3.334 132.858  0.00  0.00    -0.503 OA
ATOM     31  H   LIG A   1      -8.210  -2.830 133.665  0.00  0.00    +0.292 HD
ENDBRANCH   3  30
BRANCH  19  32
ATOM     32  O   LIG A   1     -10.015  -3.439 123.398  0.00  0.00    -0.389 OA
ATOM     33  H   LIG A   1      -9.566  -4.295 123.541  0.00  0.00    +0.210 HD
ENDBRANCH  19  32
BRANCH  20  34
ATOM     34  O   LIG A   1     -10.013  -0.671 123.054  0.00  0.00    -0.389 OA
ATOM     35  H   LIG A   1      -9.531  -0.280 122.296  0.00  0.00    +0.210 HD
ENDBRANCH  20  34
TORSDOF 3
ENDMDL
