MODEL 1
REMARK VINA RESULT:      -6.7      0.000      0.000
REMARK  Name = NuBBE_1499
REMARK  3 active torsions:
REMARK  status: ('A' for Active; 'I' for Inactive)
REMARK    1  A    between atoms: C_1  and  C_2
REMARK    2  A    between atoms: C_2  and  C_3
REMARK    3  A    between atoms: C_14  and  C_17
REMARK                            x       y       z     vdW  Elec       q    Type
REMARK                         _______ _______ _______ _____ _____    ______ ____
ROOT
ATOM      1  C   LIG A   1      -4.818  -2.889 128.843  0.00  0.00    +0.011 C 
ATOM      2  C   LIG A   1      -5.907  -1.930 128.372  0.00  0.00    -0.031 C 
ATOM      3  C   LIG A   1      -5.549  -0.504 128.843  0.00  0.00    +0.011 C 
ATOM      4  C   LIG A   1      -6.278  -2.279 126.852  0.00  0.00    +0.002 C 
ATOM      5  C   LIG A   1      -7.589  -1.490 127.147  0.00  0.00    +0.019 C 
ATOM      6  C   LIG A   1      -7.482  -2.180 128.557  0.00  0.00    +0.014 C 
ATOM      7  C   LIG A   1      -8.742  -1.655 126.227  0.00  0.00    -0.073 C 
ATOM      8  C   LIG A   1      -9.115  -0.556 125.533  0.00  0.00    +0.008 C 
ATOM      9  C   LIG A   1      -9.380  -2.989 125.938  0.00  0.00    +0.034 C 
ATOM     10  C   LIG A   1      -8.628  -3.835 124.891  0.00  0.00    +0.031 C 
ATOM     11  C   LIG A   1      -8.072  -3.014 123.755  0.00  0.00    -0.027 C 
ATOM     12  C   LIG A   1      -6.796  -2.570 123.617  0.00  0.00    -0.076 C 
ATOM     13  C   LIG A   1      -5.639  -2.945 124.514  0.00  0.00    +0.030 C 
ATOM     14  C   LIG A   1      -5.369  -1.961 125.675  0.00  0.00    +0.009 C 
ATOM     15  C   LIG A   1      -6.439  -1.602 122.522  0.00  0.00    +0.038 C 
ENDROOT
TORSDOF 0
ENDMDL
MODEL 2
REMARK VINA RESULT:      -6.5      2.161      4.485
REMARK  Name = NuBBE_1499
REMARK  3 active torsions:
REMARK  status: ('A' for Active; 'I' for Inactive)
REMARK    1  A    between atoms: C_1  and  C_2
REMARK    2  A    between atoms: C_2  and  C_3
REMARK    3  A    between atoms: C_14  and  C_17
REMARK                            x       y       z     vdW  Elec       q    Type
REMARK                         _______ _______ _______ _____ _____    ______ ____
ROOT
ATOM      1  C   LIG A   1      -8.621   2.717 124.621  0.00  0.00    +0.011 C 
ATOM      2  C   LIG A   1      -7.473   1.724 124.466  0.00  0.00    -0.031 C 
ATOM      3  C   LIG A   1      -6.232   2.284 125.194  0.00  0.00    +0.011 C 
ATOM      4  C   LIG A   1      -8.037   0.244 124.716  0.00  0.00    +0.002 C 
ATOM      5  C   LIG A   1      -6.750  -0.212 123.965  0.00  0.00    +0.019 C 
ATOM      6  C   LIG A   1      -7.029   1.056 123.076  0.00  0.00    +0.014 C 
ATOM      7  C   LIG A   1      -6.687  -1.598 123.437  0.00  0.00    -0.073 C 
ATOM      8  C   LIG A   1      -5.755  -2.406 123.989  0.00  0.00    +0.008 C 
ATOM      9  C   LIG A   1      -7.689  -2.153 122.458  0.00  0.00    +0.034 C 
ATOM     10  C   LIG A   1      -9.006  -2.629 123.105  0.00  0.00    +0.031 C 
ATOM     11  C   LIG A   1      -8.799  -3.318 124.430  0.00  0.00    -0.027 C 
ATOM     12  C   LIG A   1      -8.943  -2.772 125.665  0.00  0.00    -0.076 C 
ATOM     13  C   LIG A   1      -9.490  -1.393 125.952  0.00  0.00    +0.030 C 
ATOM     14  C   LIG A   1      -8.422  -0.284 126.089  0.00  0.00    +0.009 C 
ATOM     15  C   LIG A   1      -8.518  -3.534 126.891  0.00  0.00    +0.038 C 
ENDROOT
TORSDOF 0
ENDMDL
MODEL 3
REMARK VINA RESULT:      -6.5      2.011      3.081
REMARK  Name = NuBBE_1499
REMARK  3 active torsions:
REMARK  status: ('A' for Active; 'I' for Inactive)
REMARK    1  A    between atoms: C_1  and  C_2
REMARK    2  A    between atoms: C_2  and  C_3
REMARK    3  A    between atoms: C_14  and  C_17
REMARK                            x       y       z     vdW  Elec       q    Type
REMARK                         _______ _______ _______ _____ _____    ______ ____
ROOT
ATOM      1  C   LIG A   1      -7.863   1.187 127.440  0.00  0.00    +0.011 C 
ATOM      2  C   LIG A   1      -8.230   0.858 125.995  0.00  0.00    -0.031 C 
ATOM      3  C   LIG A   1      -8.079   2.137 125.143  0.00  0.00    +0.011 C 
ATOM      4  C   LIG A   1      -7.554  -0.540 125.598  0.00  0.00    +0.002 C 
ATOM      5  C   LIG A   1      -8.611  -0.556 124.454  0.00  0.00    +0.019 C 
ATOM      6  C   LIG A   1      -9.553   0.066 125.551  0.00  0.00    +0.014 C 
ATOM      7  C   LIG A   1      -8.885  -1.837 123.754  0.00  0.00    -0.073 C 
ATOM      8  C   LIG A   1      -8.556  -1.884 122.444  0.00  0.00    +0.008 C 
ATOM      9  C   LIG A   1      -9.350  -3.080 124.466  0.00  0.00    +0.034 C 
ATOM     10  C   LIG A   1      -8.220  -3.878 125.148  0.00  0.00    +0.031 C 
ATOM     11  C   LIG A   1      -6.949  -3.916 124.337  0.00  0.00    -0.027 C 
ATOM     12  C   LIG A   1      -5.852  -3.132 124.502  0.00  0.00    -0.076 C 
ATOM     13  C   LIG A   1      -5.635  -2.163 125.641  0.00  0.00    +0.030 C 
ATOM     14  C   LIG A   1      -6.063  -0.707 125.348  0.00  0.00    +0.009 C 
ATOM     15  C   LIG A   1      -4.736  -3.160 123.495  0.00  0.00    +0.038 C 
ENDROOT
TORSDOF 0
ENDMDL
MODEL 4
REMARK VINA RESULT:      -6.4      2.171      4.118
REMARK  Name = NuBBE_1499
REMARK  3 active torsions:
REMARK  status: ('A' for Active; 'I' for Inactive)
REMARK    1  A    between atoms: C_1  and  C_2
REMARK    2  A    between atoms: C_2  and  C_3
REMARK    3  A    between atoms: C_14  and  C_17
REMARK                            x       y       z     vdW  Elec       q    Type
REMARK                         _______ _______ _______ _____ _____    ______ ____
ROOT
ATOM      1  C   LIG A   1      -6.884   2.345 122.923  0.00  0.00    +0.011 C 
ATOM      2  C   LIG A   1      -7.325   1.700 124.234  0.00  0.00    -0.031 C 
ATOM      3  C   LIG A   1      -8.422   2.577 124.873  0.00  0.00    +0.011 C 
ATOM      4  C   LIG A   1      -7.495   0.123 123.999  0.00  0.00    +0.002 C 
ATOM      5  C   LIG A   1      -7.389   0.031 125.551  0.00  0.00    +0.019 C 
ATOM      6  C   LIG A   1      -6.322   1.175 125.372  0.00  0.00    +0.014 C 
ATOM      7  C   LIG A   1      -7.098  -1.287 126.169  0.00  0.00    -0.073 C 
ATOM      8  C   LIG A   1      -8.071  -1.810 126.946  0.00  0.00    +0.008 C 
ATOM      9  C   LIG A   1      -5.868  -2.094 125.843  0.00  0.00    +0.034 C 
ATOM     10  C   LIG A   1      -5.976  -2.909 124.537  0.00  0.00    +0.031 C 
ATOM     11  C   LIG A   1      -7.342  -3.513 124.327  0.00  0.00    -0.027 C 
ATOM     12  C   LIG A   1      -8.339  -3.023 123.546  0.00  0.00    -0.076 C 
ATOM     13  C   LIG A   1      -8.217  -1.844 122.610  0.00  0.00    +0.030 C 
ATOM     14  C   LIG A   1      -8.645  -0.486 123.212  0.00  0.00    +0.009 C 
ATOM     15  C   LIG A   1      -9.712  -3.638 123.586  0.00  0.00    +0.038 C 
ENDROOT
TORSDOF 0
ENDMDL
MODEL 5
REMARK VINA RESULT:      -6.3      1.225      3.139
REMARK  Name = NuBBE_1499
REMARK  3 active torsions:
REMARK  status: ('A' for Active; 'I' for Inactive)
REMARK    1  A    between atoms: C_1  and  C_2
REMARK    2  A    between atoms: C_2  and  C_3
REMARK    3  A    between atoms: C_14  and  C_17
REMARK                            x       y       z     vdW  Elec       q    Type
REMARK                         _______ _______ _______ _____ _____    ______ ____
ROOT
ATOM      1  C   LIG A   1      -7.894  -1.804 129.957  0.00  0.00    +0.011 C 
ATOM      2  C   LIG A   1      -6.902  -2.328 128.923  0.00  0.00    -0.031 C 
ATOM      3  C   LIG A   1      -6.318  -3.665 129.429  0.00  0.00    +0.011 C 
ATOM      4  C   LIG A   1      -7.541  -2.153 127.463  0.00  0.00    +0.002 C 
ATOM      5  C   LIG A   1      -6.071  -2.294 126.966  0.00  0.00    +0.019 C 
ATOM      6  C   LIG A   1      -5.739  -1.450 128.252  0.00  0.00    +0.014 C 
ATOM      7  C   LIG A   1      -5.743  -1.864 125.583  0.00  0.00    -0.073 C 
ATOM      8  C   LIG A   1      -5.339  -2.836 124.736  0.00  0.00    +0.008 C 
ATOM      9  C   LIG A   1      -5.986  -0.467 125.076  0.00  0.00    +0.034 C 
ATOM     10  C   LIG A   1      -7.441  -0.196 124.643  0.00  0.00    +0.031 C 
ATOM     11  C   LIG A   1      -8.075  -1.367 123.935  0.00  0.00    -0.027 C 
ATOM     12  C   LIG A   1      -8.908  -2.294 124.475  0.00  0.00    -0.076 C 
ATOM     13  C   LIG A   1      -9.485  -2.243 125.871  0.00  0.00    +0.030 C 
ATOM     14  C   LIG A   1      -8.677  -3.017 126.938  0.00  0.00    +0.009 C 
ATOM     15  C   LIG A   1      -9.309  -3.511 123.687  0.00  0.00    +0.038 C 
ENDROOT
TORSDOF 0
ENDMDL
MODEL 6
REMARK VINA RESULT:      -6.0      1.687      4.327
REMARK  Name = NuBBE_1499
REMARK  3 active torsions:
REMARK  status: ('A' for Active; 'I' for Inactive)
REMARK    1  A    between atoms: C_1  and  C_2
REMARK    2  A    between atoms: C_2  and  C_3
REMARK    3  A    between atoms: C_14  and  C_17
REMARK                            x       y       z     vdW  Elec       q    Type
REMARK                         _______ _______ _______ _____ _____    ______ ____
ROOT
ATOM      1  C   LIG A   1      -8.444   2.234 123.197  0.00  0.00    +0.011 C 
ATOM      2  C   LIG A   1      -9.141   0.984 123.725  0.00  0.00    -0.031 C 
ATOM      3  C   LIG A   1     -10.277   0.602 122.752  0.00  0.00    +0.011 C 
ATOM      4  C   LIG A   1      -8.027  -0.058 124.217  0.00  0.00    +0.002 C 
ATOM      5  C   LIG A   1      -9.196  -0.704 125.018  0.00  0.00    +0.019 C 
ATOM      6  C   LIG A   1      -9.640   0.790 125.239  0.00  0.00    +0.014 C 
ATOM      7  C   LIG A   1      -8.871  -1.645 126.120  0.00  0.00    -0.073 C 
ATOM      8  C   LIG A   1      -9.267  -2.925 125.948  0.00  0.00    +0.008 C 
ATOM      9  C   LIG A   1      -8.014  -1.266 127.300  0.00  0.00    +0.034 C 
ATOM     10  C   LIG A   1      -6.498  -1.319 127.021  0.00  0.00    +0.031 C 
ATOM     11  C   LIG A   1      -6.096  -2.483 126.152  0.00  0.00    -0.027 C 
ATOM     12  C   LIG A   1      -5.861  -2.460 124.814  0.00  0.00    -0.076 C 
ATOM     13  C   LIG A   1      -5.810  -1.216 123.958  0.00  0.00    +0.030 C 
ATOM     14  C   LIG A   1      -7.142  -0.848 123.265  0.00  0.00    +0.009 C 
ATOM     15  C   LIG A   1      -5.651  -3.741 124.054  0.00  0.00    +0.038 C 
ENDROOT
TORSDOF 0
ENDMDL
MODEL 7
REMARK VINA RESULT:      -6.0      7.638     10.171
REMARK  Name = NuBBE_1499
REMARK  3 active torsions:
REMARK  status: ('A' for Active; 'I' for Inactive)
REMARK    1  A    between atoms: C_1  and  C_2
REMARK    2  A    between atoms: C_2  and  C_3
REMARK    3  A    between atoms: C_14  and  C_17
REMARK                            x       y       z     vdW  Elec       q    Type
REMARK                         _______ _______ _______ _____ _____    ______ ____
ROOT
ATOM      1  C   LIG A   1     -12.371   6.536 128.459  0.00  0.00    +0.011 C 
ATOM      2  C   LIG A   1     -11.722   6.780 129.818  0.00  0.00    -0.031 C 
ATOM      3  C   LIG A   1     -12.805   7.270 130.803  0.00  0.00    +0.011 C 
ATOM      4  C   LIG A   1     -10.735   5.560 130.143  0.00  0.00    +0.002 C 
ATOM      5  C   LIG A   1     -10.093   6.545 131.165  0.00  0.00    +0.019 C 
ATOM      6  C   LIG A   1     -10.369   7.614 130.043  0.00  0.00    +0.014 C 
ATOM      7  C   LIG A   1      -8.744   6.236 131.703  0.00  0.00    -0.073 C 
ATOM      8  C   LIG A   1      -8.674   5.984 133.028  0.00  0.00    +0.008 C 
ATOM      9  C   LIG A   1      -7.533   6.048 130.827  0.00  0.00    +0.034 C 
ATOM     10  C   LIG A   1      -7.425   4.648 130.190  0.00  0.00    +0.031 C 
ATOM     11  C   LIG A   1      -7.851   3.540 131.121  0.00  0.00    -0.027 C 
ATOM     12  C   LIG A   1      -9.057   2.915 131.147  0.00  0.00    -0.076 C 
ATOM     13  C   LIG A   1     -10.164   3.111 130.138  0.00  0.00    +0.030 C 
ATOM     14  C   LIG A   1     -11.221   4.171 130.528  0.00  0.00    +0.009 C 
ATOM     15  C   LIG A   1      -9.396   1.958 132.257  0.00  0.00    +0.038 C 
ENDROOT
TORSDOF 0
ENDMDL
MODEL 8
REMARK VINA RESULT:      -5.9      2.318      4.665
REMARK  Name = NuBBE_1499
REMARK  3 active torsions:
REMARK  status: ('A' for Active; 'I' for Inactive)
REMARK    1  A    between atoms: C_1  and  C_2
REMARK    2  A    between atoms: C_2  and  C_3
REMARK    3  A    between atoms: C_14  and  C_17
REMARK                            x       y       z     vdW  Elec       q    Type
REMARK                         _______ _______ _______ _____ _____    ______ ____
ROOT
ATOM      1  C   LIG A   1      -4.862  -3.090 123.486  0.00  0.00    +0.011 C 
ATOM      2  C   LIG A   1      -6.281  -2.615 123.786  0.00  0.00    -0.031 C 
ATOM      3  C   LIG A   1      -7.090  -3.799 124.356  0.00  0.00    +0.011 C 
ATOM      4  C   LIG A   1      -6.203  -1.185 124.506  0.00  0.00    +0.002 C 
ATOM      5  C   LIG A   1      -7.692  -1.049 124.068  0.00  0.00    +0.019 C 
ATOM      6  C   LIG A   1      -7.195  -1.778 122.765  0.00  0.00    +0.014 C 
ATOM      7  C   LIG A   1      -8.318   0.297 124.079  0.00  0.00    -0.073 C 
ATOM      8  C   LIG A   1      -9.332   0.477 124.954  0.00  0.00    +0.008 C 
ATOM      9  C   LIG A   1      -7.778   1.462 123.291  0.00  0.00    +0.034 C 
ATOM     10  C   LIG A   1      -6.592   2.184 123.963  0.00  0.00    +0.031 C 
ATOM     11  C   LIG A   1      -6.742   2.301 125.460  0.00  0.00    -0.027 C 
ATOM     12  C   LIG A   1      -6.177   1.503 126.401  0.00  0.00    -0.076 C 
ATOM     13  C   LIG A   1      -5.156   0.422 126.132  0.00  0.00    +0.030 C 
ATOM     14  C   LIG A   1      -5.743  -0.996 125.943  0.00  0.00    +0.009 C 
ATOM     15  C   LIG A   1      -6.571   1.632 127.847  0.00  0.00    +0.038 C 
ENDROOT
TORSDOF 0
ENDMDL
MODEL 9
REMARK VINA RESULT:      -5.8      1.439      2.816
REMARK  Name = NuBBE_1499
REMARK  3 active torsions:
REMARK  status: ('A' for Active; 'I' for Inactive)
REMARK    1  A    between atoms: C_1  and  C_2
REMARK    2  A    between atoms: C_2  and  C_3
REMARK    3  A    between atoms: C_14  and  C_17
REMARK                            x       y       z     vdW  Elec       q    Type
REMARK                         _______ _______ _______ _____ _____    ______ ____
ROOT
ATOM      1  C   LIG A   1      -5.573   0.298 127.999  0.00  0.00    +0.011 C 
ATOM      2  C   LIG A   1      -6.358  -0.967 127.665  0.00  0.00    -0.031 C 
ATOM      3  C   LIG A   1      -7.372  -1.234 128.798  0.00  0.00    +0.011 C 
ATOM      4  C   LIG A   1      -6.771  -0.922 126.117  0.00  0.00    +0.002 C 
ATOM      5  C   LIG A   1      -6.969  -2.459 126.278  0.00  0.00    +0.019 C 
ATOM      6  C   LIG A   1      -5.695  -2.352 127.195  0.00  0.00    +0.014 C 
ATOM      7  C   LIG A   1      -7.045  -3.300 125.057  0.00  0.00    -0.073 C 
ATOM      8  C   LIG A   1      -8.224  -3.921 124.831  0.00  0.00    +0.008 C 
ATOM      9  C   LIG A   1      -5.948  -3.353 124.026  0.00  0.00    +0.034 C 
ATOM     10  C   LIG A   1      -5.964  -2.179 123.025  0.00  0.00    +0.031 C 
ATOM     11  C   LIG A   1      -7.357  -1.773 122.612  0.00  0.00    -0.027 C 
ATOM     12  C   LIG A   1      -8.086  -0.741 123.108  0.00  0.00    -0.076 C 
ATOM     13  C   LIG A   1      -7.578   0.303 124.075  0.00  0.00    +0.030 C 
ATOM     14  C   LIG A   1      -7.850  -0.003 125.566  0.00  0.00    +0.009 C 
ATOM     15  C   LIG A   1      -9.532  -0.576 122.727  0.00  0.00    +0.038 C 
ENDROOT
TORSDOF 0
ENDMDL
