MODEL 1
REMARK VINA RESULT:      -6.4      0.000      0.000
REMARK  Name = NuBBE_1645
REMARK  21 active torsions:
REMARK  status: ('A' for Active; 'I' for Inactive)
REMARK    1  A    between atoms: C_1  and  C_2
REMARK    2  A    between atoms: C_1  and  C_21
REMARK    3  A    between atoms: C_2  and  C_3
REMARK    4  A    between atoms: C_3  and  C_4
REMARK    5  A    between atoms: C_3  and  C_20
REMARK    6  A    between atoms: C_4  and  C_5
REMARK    7  A    between atoms: C_5  and  C_6
REMARK    8  A    between atoms: C_6  and  C_7
REMARK    9  A    between atoms: C_7  and  C_8
REMARK   10  A    between atoms: C_7  and  C_19
REMARK   11  A    between atoms: C_8  and  C_9
REMARK   12  A    between atoms: C_9  and  C_10
REMARK   13  A    between atoms: C_10  and  C_11
REMARK   14  A    between atoms: C_11  and  C_12
REMARK   15  A    between atoms: C_11  and  C_18
REMARK   16  A    between atoms: C_12  and  C_13
REMARK   17  A    between atoms: C_13  and  C_14
REMARK   18  A    between atoms: C_14  and  C_15
REMARK   19  A    between atoms: C_15  and  C_16
REMARK   20  A    between atoms: C_15  and  C_17
REMARK   21  A    between atoms: C_29  and  O_31
REMARK                            x       y       z     vdW  Elec       q    Type
REMARK                         _______ _______ _______ _____ _____    ______ ____
ROOT
ATOM      1  C   LIG A   1      -3.742   3.722 127.398  0.00  0.00    -0.014 C 
ATOM      2  C   LIG A   1      -2.564   3.187 126.586  0.00  0.00    +0.007 C 
ENDROOT
BRANCH   1   3
ATOM      3  C   LIG A   1      -3.982   2.742 128.576  0.00  0.00    +0.003 C 
BRANCH   3   4
ATOM      4  C   LIG A   1      -5.441   2.439 128.903  0.00  0.00    +0.000 C 
BRANCH   4   5
ATOM      5  C   LIG A   1      -5.769   0.942 128.940  0.00  0.00    +0.003 C 
BRANCH   5   6
ATOM      6  C   LIG A   1      -7.089   0.583 128.224  0.00  0.00    -0.014 C 
ATOM      7  C   LIG A   1      -8.003   1.803 128.088  0.00  0.00    +0.007 C 
BRANCH   6   8
ATOM      8  C   LIG A   1      -7.863  -0.554 128.926  0.00  0.00    +0.003 C 
BRANCH   8   9
ATOM      9  C   LIG A   1      -7.017  -1.794 129.194  0.00  0.00    +0.000 C 
BRANCH   9  10
ATOM     10  C   LIG A   1      -7.022  -2.757 127.989  0.00  0.00    +0.003 C 
BRANCH  10  11
ATOM     11  C   LIG A   1      -8.427  -3.043 127.404  0.00  0.00    -0.014 C 
ATOM     12  C   LIG A   1      -9.164  -3.995 128.349  0.00  0.00    +0.007 C 
BRANCH  11  13
ATOM     13  C   LIG A   1      -8.453  -3.583 125.929  0.00  0.00    +0.003 C 
BRANCH  13  14
ATOM     14  C   LIG A   1      -8.618  -2.516 124.826  0.00  0.00    +0.000 C 
BRANCH  14  15
ATOM     15  C   LIG A   1      -8.242  -1.041 125.154  0.00  0.00    +0.003 C 
BRANCH  15  16
ATOM     16  C   LIG A   1      -6.913  -0.453 124.605  0.00  0.00    -0.017 C 
ATOM     17  C   LIG A   1      -5.676  -1.237 125.095  0.00  0.00    +0.007 C 
ATOM     18  C   LIG A   1      -6.847  -0.415 123.078  0.00  0.00    +0.007 C 
ENDBRANCH  15  16
ENDBRANCH  14  15
ENDBRANCH  13  14
ENDBRANCH  11  13
ENDBRANCH  10  11
ENDBRANCH   9  10
ENDBRANCH   8   9
ENDBRANCH   6   8
ENDBRANCH   5   6
ENDBRANCH   4   5
ENDBRANCH   3   4
ENDBRANCH   1   3
BRANCH   1  19
ATOM     19  C   LIG A   1      -5.022   3.949 126.550  0.00  0.00    +0.008 C 
BRANCH  19  20
ATOM     20  C   LIG A   1      -4.966   3.598 125.038  0.00  0.00    +0.039 C 
BRANCH  20  21
ATOM     21  C   LIG A   1      -6.257   3.468 124.257  0.00  0.00    -0.001 A 
ATOM     22  C   LIG A   1      -6.337   3.654 122.883  0.00  0.00    +0.139 A 
ATOM     23  C   LIG A   1      -7.499   3.382 122.158  0.00  0.00    +0.009 A 
ATOM     24  C   LIG A   1      -7.274   3.749 120.753  0.00  0.00    +0.160 C 
ATOM     25  C   LIG A   1      -5.825   4.220 120.802  0.00  0.00    +0.317 C 
ATOM     26  O   LIG A   1      -5.201   4.595 119.857  0.00  0.00    -0.250 OA
ATOM     27  O   LIG A   1      -5.312   4.161 122.105  0.00  0.00    -0.425 OA
ATOM     28  C   LIG A   1      -8.636   2.886 122.744  0.00  0.00    +0.053 A 
ATOM     29  C   LIG A   1      -8.605   2.753 124.115  0.00  0.00    +0.118 A 
ATOM     30  C   LIG A   1      -7.454   3.069 124.853  0.00  0.00    +0.052 A 
BRANCH  29  31
ATOM     31  O   LIG A   1      -9.736   2.334 124.746  0.00  0.00    -0.507 OA
ATOM     32  H   LIG A   1     -10.494   2.728 124.282  0.00  0.00    +0.292 HD
ENDBRANCH  29  31
ENDBRANCH  20  21
ENDBRANCH  19  20
ENDBRANCH   1  19
TORSDOF 16
ENDMDL
MODEL 2
REMARK VINA RESULT:      -6.4      2.306      6.117
REMARK  Name = NuBBE_1645
REMARK  21 active torsions:
REMARK  status: ('A' for Active; 'I' for Inactive)
REMARK    1  A    between atoms: C_1  and  C_2
REMARK    2  A    between atoms: C_1  and  C_21
REMARK    3  A    between atoms: C_2  and  C_3
REMARK    4  A    between atoms: C_3  and  C_4
REMARK    5  A    between atoms: C_3  and  C_20
REMARK    6  A    between atoms: C_4  and  C_5
REMARK    7  A    between atoms: C_5  and  C_6
REMARK    8  A    between atoms: C_6  and  C_7
REMARK    9  A    between atoms: C_7  and  C_8
REMARK   10  A    between atoms: C_7  and  C_19
REMARK   11  A    between atoms: C_8  and  C_9
REMARK   12  A    between atoms: C_9  and  C_10
REMARK   13  A    between atoms: C_10  and  C_11
REMARK   14  A    between atoms: C_11  and  C_12
REMARK   15  A    between atoms: C_11  and  C_18
REMARK   16  A    between atoms: C_12  and  C_13
REMARK   17  A    between atoms: C_13  and  C_14
REMARK   18  A    between atoms: C_14  and  C_15
REMARK   19  A    between atoms: C_15  and  C_16
REMARK   20  A    between atoms: C_15  and  C_17
REMARK   21  A    between atoms: C_29  and  O_31
REMARK                            x       y       z     vdW  Elec       q    Type
REMARK                         _______ _______ _______ _____ _____    ______ ____
ROOT
ATOM      1  C   LIG A   1      -8.499  -3.688 124.678  0.00  0.00    -0.014 C 
ATOM      2  C   LIG A   1      -9.360  -3.194 123.517  0.00  0.00    +0.007 C 
ENDROOT
BRANCH   1   3
ATOM      3  C   LIG A   1      -8.975  -2.953 125.959  0.00  0.00    +0.003 C 
BRANCH   3   4
ATOM      4  C   LIG A   1      -9.038  -3.799 127.227  0.00  0.00    +0.000 C 
BRANCH   4   5
ATOM      5  C   LIG A   1      -8.318  -3.170 128.425  0.00  0.00    +0.003 C 
BRANCH   5   6
ATOM      6  C   LIG A   1      -7.342  -2.040 128.032  0.00  0.00    -0.014 C 
ATOM      7  C   LIG A   1      -5.908  -2.362 128.463  0.00  0.00    +0.007 C 
BRANCH   6   8
ATOM      8  C   LIG A   1      -7.748  -0.667 128.610  0.00  0.00    +0.003 C 
BRANCH   8   9
ATOM      9  C   LIG A   1      -6.759  -0.117 129.632  0.00  0.00    +0.000 C 
BRANCH   9  10
ATOM     10  C   LIG A   1      -6.792   1.425 129.683  0.00  0.00    +0.003 C 
BRANCH  10  11
ATOM     11  C   LIG A   1      -5.448   2.081 130.083  0.00  0.00    -0.014 C 
ATOM     12  C   LIG A   1      -5.036   1.550 131.458  0.00  0.00    +0.007 C 
BRANCH  11  13
ATOM     13  C   LIG A   1      -5.422   3.651 130.056  0.00  0.00    +0.003 C 
BRANCH  13  14
ATOM     14  C   LIG A   1      -4.187   4.292 129.389  0.00  0.00    +0.000 C 
BRANCH  14  15
ATOM     15  C   LIG A   1      -3.221   3.380 128.578  0.00  0.00    +0.003 C 
BRANCH  15  16
ATOM     16  C   LIG A   1      -2.696   3.862 127.198  0.00  0.00    -0.017 C 
ATOM     17  C   LIG A   1      -1.595   2.938 126.632  0.00  0.00    +0.007 C 
ATOM     18  C   LIG A   1      -3.788   3.968 126.132  0.00  0.00    +0.007 C 
ENDBRANCH  15  16
ENDBRANCH  14  15
ENDBRANCH  13  14
ENDBRANCH  11  13
ENDBRANCH  10  11
ENDBRANCH   9  10
ENDBRANCH   8   9
ENDBRANCH   6   8
ENDBRANCH   5   6
ENDBRANCH   4   5
ENDBRANCH   3   4
ENDBRANCH   1   3
BRANCH   1  19
ATOM     19  C   LIG A   1      -6.976  -3.518 124.432  0.00  0.00    +0.008 C 
BRANCH  19  20
ATOM     20  C   LIG A   1      -6.503  -2.275 123.631  0.00  0.00    +0.039 C 
BRANCH  20  21
ATOM     21  C   LIG A   1      -6.409  -0.933 124.328  0.00  0.00    -0.001 A 
ATOM     22  C   LIG A   1      -7.323   0.093 124.129  0.00  0.00    +0.139 A 
ATOM     23  C   LIG A   1      -7.310   1.264 124.892  0.00  0.00    +0.009 A 
ATOM     24  C   LIG A   1      -8.354   2.166 124.386  0.00  0.00    +0.160 C 
ATOM     25  C   LIG A   1      -8.961   1.317 123.274  0.00  0.00    +0.317 C 
ATOM     26  O   LIG A   1      -9.882   1.649 122.593  0.00  0.00    -0.250 OA
ATOM     27  O   LIG A   1      -8.297   0.089 123.148  0.00  0.00    -0.425 OA
ATOM     28  C   LIG A   1      -6.413   1.473 125.908  0.00  0.00    +0.053 A 
ATOM     29  C   LIG A   1      -5.455   0.499 126.084  0.00  0.00    +0.118 A 
ATOM     30  C   LIG A   1      -5.435  -0.657 125.289  0.00  0.00    +0.052 A 
BRANCH  29  31
ATOM     31  O   LIG A   1      -4.499   0.701 127.033  0.00  0.00    -0.507 OA
ATOM     32  H   LIG A   1      -3.969  -0.112 127.093  0.00  0.00    +0.292 HD
ENDBRANCH  29  31
ENDBRANCH  20  21
ENDBRANCH  19  20
ENDBRANCH   1  19
TORSDOF 16
ENDMDL
MODEL 3
REMARK VINA RESULT:      -6.4      4.992      8.360
REMARK  Name = NuBBE_1645
REMARK  21 active torsions:
REMARK  status: ('A' for Active; 'I' for Inactive)
REMARK    1  A    between atoms: C_1  and  C_2
REMARK    2  A    between atoms: C_1  and  C_21
REMARK    3  A    between atoms: C_2  and  C_3
REMARK    4  A    between atoms: C_3  and  C_4
REMARK    5  A    between atoms: C_3  and  C_20
REMARK    6  A    between atoms: C_4  and  C_5
REMARK    7  A    between atoms: C_5  and  C_6
REMARK    8  A    between atoms: C_6  and  C_7
REMARK    9  A    between atoms: C_7  and  C_8
REMARK   10  A    between atoms: C_7  and  C_19
REMARK   11  A    between atoms: C_8  and  C_9
REMARK   12  A    between atoms: C_9  and  C_10
REMARK   13  A    between atoms: C_10  and  C_11
REMARK   14  A    between atoms: C_11  and  C_12
REMARK   15  A    between atoms: C_11  and  C_18
REMARK   16  A    between atoms: C_12  and  C_13
REMARK   17  A    between atoms: C_13  and  C_14
REMARK   18  A    between atoms: C_14  and  C_15
REMARK   19  A    between atoms: C_15  and  C_16
REMARK   20  A    between atoms: C_15  and  C_17
REMARK   21  A    between atoms: C_29  and  O_31
REMARK                            x       y       z     vdW  Elec       q    Type
REMARK                         _______ _______ _______ _____ _____    ______ ____
ROOT
ATOM      1  C   LIG A   1      -8.095   2.213 130.719  0.00  0.00    -0.014 C 
ATOM      2  C   LIG A   1      -8.098   0.714 130.424  0.00  0.00    +0.007 C 
ENDROOT
BRANCH   1   3
ATOM      3  C   LIG A   1      -9.180   2.868 129.825  0.00  0.00    +0.003 C 
BRANCH   3   4
ATOM      4  C   LIG A   1     -10.450   3.318 130.541  0.00  0.00    +0.000 C 
BRANCH   4   5
ATOM      5  C   LIG A   1     -10.857   4.762 130.227  0.00  0.00    +0.003 C 
BRANCH   5   6
ATOM      6  C   LIG A   1     -10.541   5.752 131.370  0.00  0.00    -0.014 C 
ATOM      7  C   LIG A   1     -11.751   6.629 131.703  0.00  0.00    +0.007 C 
BRANCH   6   8
ATOM      8  C   LIG A   1      -9.328   6.656 131.063  0.00  0.00    +0.003 C 
BRANCH   8   9
ATOM      9  C   LIG A   1      -8.067   6.267 131.826  0.00  0.00    +0.000 C 
BRANCH   9  10
ATOM     10  C   LIG A   1      -8.373   5.939 133.302  0.00  0.00    +0.003 C 
BRANCH  10  11
ATOM     11  C   LIG A   1      -7.814   4.579 133.785  0.00  0.00    -0.014 C 
ATOM     12  C   LIG A   1      -8.979   3.597 133.931  0.00  0.00    +0.007 C 
BRANCH  11  13
ATOM     13  C   LIG A   1      -6.949   4.624 135.095  0.00  0.00    +0.003 C 
BRANCH  13  14
ATOM     14  C   LIG A   1      -5.426   4.472 134.901  0.00  0.00    +0.000 C 
BRANCH  14  15
ATOM     15  C   LIG A   1      -4.900   3.907 133.549  0.00  0.00    +0.003 C 
BRANCH  15  16
ATOM     16  C   LIG A   1      -4.310   4.881 132.493  0.00  0.00    -0.017 C 
ATOM     17  C   LIG A   1      -4.371   6.354 132.952  0.00  0.00    +0.007 C 
ATOM     18  C   LIG A   1      -2.854   4.581 132.132  0.00  0.00    +0.007 C 
ENDBRANCH  15  16
ENDBRANCH  14  15
ENDBRANCH  13  14
ENDBRANCH  11  13
ENDBRANCH  10  11
ENDBRANCH   9  10
ENDBRANCH   8   9
ENDBRANCH   6   8
ENDBRANCH   5   6
ENDBRANCH   4   5
ENDBRANCH   3   4
ENDBRANCH   1   3
BRANCH   1  19
ATOM     19  C   LIG A   1      -6.702   2.873 130.535  0.00  0.00    +0.008 C 
BRANCH  19  20
ATOM     20  C   LIG A   1      -6.567   4.006 129.481  0.00  0.00    +0.039 C 
BRANCH  20  21
ATOM     21  C   LIG A   1      -5.241   4.210 128.777  0.00  0.00    -0.001 A 
ATOM     22  C   LIG A   1      -4.492   5.374 128.890  0.00  0.00    +0.139 A 
ATOM     23  C   LIG A   1      -3.204   5.488 128.360  0.00  0.00    +0.009 A 
ATOM     24  C   LIG A   1      -2.722   6.857 128.588  0.00  0.00    +0.160 C 
ATOM     25  C   LIG A   1      -3.900   7.461 129.344  0.00  0.00    +0.317 C 
ATOM     26  O   LIG A   1      -3.937   8.577 129.763  0.00  0.00    -0.250 OA
ATOM     27  O   LIG A   1      -4.944   6.537 129.485  0.00  0.00    -0.425 OA
ATOM     28  C   LIG A   1      -2.576   4.453 127.716  0.00  0.00    +0.053 A 
ATOM     29  C   LIG A   1      -3.321   3.308 127.535  0.00  0.00    +0.118 A 
ATOM     30  C   LIG A   1      -4.632   3.205 128.024  0.00  0.00    +0.052 A 
BRANCH  29  31
ATOM     31  O   LIG A   1      -2.762   2.281 126.836  0.00  0.00    -0.507 OA
ATOM     32  H   LIG A   1      -2.213   2.669 126.135  0.00  0.00    +0.292 HD
ENDBRANCH  29  31
ENDBRANCH  20  21
ENDBRANCH  19  20
ENDBRANCH   1  19
TORSDOF 16
ENDMDL
MODEL 4
REMARK VINA RESULT:      -6.4      3.756      6.450
REMARK  Name = NuBBE_1645
REMARK  21 active torsions:
REMARK  status: ('A' for Active; 'I' for Inactive)
REMARK    1  A    between atoms: C_1  and  C_2
REMARK    2  A    between atoms: C_1  and  C_21
REMARK    3  A    between atoms: C_2  and  C_3
REMARK    4  A    between atoms: C_3  and  C_4
REMARK    5  A    between atoms: C_3  and  C_20
REMARK    6  A    between atoms: C_4  and  C_5
REMARK    7  A    between atoms: C_5  and  C_6
REMARK    8  A    between atoms: C_6  and  C_7
REMARK    9  A    between atoms: C_7  and  C_8
REMARK   10  A    between atoms: C_7  and  C_19
REMARK   11  A    between atoms: C_8  and  C_9
REMARK   12  A    between atoms: C_9  and  C_10
REMARK   13  A    between atoms: C_10  and  C_11
REMARK   14  A    between atoms: C_11  and  C_12
REMARK   15  A    between atoms: C_11  and  C_18
REMARK   16  A    between atoms: C_12  and  C_13
REMARK   17  A    between atoms: C_13  and  C_14
REMARK   18  A    between atoms: C_14  and  C_15
REMARK   19  A    between atoms: C_15  and  C_16
REMARK   20  A    between atoms: C_15  and  C_17
REMARK   21  A    between atoms: C_29  and  O_31
REMARK                            x       y       z     vdW  Elec       q    Type
REMARK                         _______ _______ _______ _____ _____    ______ ____
ROOT
ATOM      1  C   LIG A   1      -7.845   1.068 128.806  0.00  0.00    -0.014 C 
ATOM      2  C   LIG A   1      -6.684   1.211 129.789  0.00  0.00    +0.007 C 
ENDROOT
BRANCH   1   3
ATOM      3  C   LIG A   1      -7.242   0.994 127.379  0.00  0.00    +0.003 C 
BRANCH   3   4
ATOM      4  C   LIG A   1      -8.174   0.475 126.287  0.00  0.00    +0.000 C 
BRANCH   4   5
ATOM      5  C   LIG A   1      -8.327   1.431 125.100  0.00  0.00    +0.003 C 
BRANCH   5   6
ATOM      6  C   LIG A   1      -8.060   0.763 123.734  0.00  0.00    -0.014 C 
ATOM      7  C   LIG A   1      -9.343   0.189 123.129  0.00  0.00    +0.007 C 
BRANCH   6   8
ATOM      8  C   LIG A   1      -6.992  -0.350 123.808  0.00  0.00    +0.003 C 
BRANCH   8   9
ATOM      9  C   LIG A   1      -7.460  -1.684 123.239  0.00  0.00    +0.000 C 
BRANCH   9  10
ATOM     10  C   LIG A   1      -7.291  -2.829 124.258  0.00  0.00    +0.003 C 
BRANCH  10  11
ATOM     11  C   LIG A   1      -8.618  -3.484 124.712  0.00  0.00    -0.014 C 
ATOM     12  C   LIG A   1      -9.604  -3.450 123.542  0.00  0.00    +0.007 C 
BRANCH  11  13
ATOM     13  C   LIG A   1      -9.266  -2.882 126.010  0.00  0.00    +0.003 C 
BRANCH  13  14
ATOM     14  C   LIG A   1      -8.641  -3.337 127.346  0.00  0.00    +0.000 C 
BRANCH  14  15
ATOM     15  C   LIG A   1      -7.265  -2.741 127.766  0.00  0.00    +0.003 C 
BRANCH  15  16
ATOM     16  C   LIG A   1      -6.920  -2.609 129.274  0.00  0.00    -0.017 C 
ATOM     17  C   LIG A   1      -8.158  -2.274 130.134  0.00  0.00    +0.007 C 
ATOM     18  C   LIG A   1      -6.286  -3.868 129.868  0.00  0.00    +0.007 C 
ENDBRANCH  15  16
ENDBRANCH  14  15
ENDBRANCH  13  14
ENDBRANCH  11  13
ENDBRANCH  10  11
ENDBRANCH   9  10
ENDBRANCH   8   9
ENDBRANCH   6   8
ENDBRANCH   5   6
ENDBRANCH   4   5
ENDBRANCH   3   4
ENDBRANCH   1   3
BRANCH   1  19
ATOM     19  C   LIG A   1      -8.908   2.191 128.939  0.00  0.00    +0.008 C 
BRANCH  19  20
ATOM     20  C   LIG A   1      -8.413   3.663 128.953  0.00  0.00    +0.039 C 
BRANCH  20  21
ATOM     21  C   LIG A   1      -9.064   4.657 129.893  0.00  0.00    -0.001 A 
ATOM     22  C   LIG A   1      -9.728   5.796 129.456  0.00  0.00    +0.139 A 
ATOM     23  C   LIG A   1     -10.452   6.618 130.323  0.00  0.00    +0.009 A 
ATOM     24  C   LIG A   1     -10.967   7.764 129.562  0.00  0.00    +0.160 C 
ATOM     25  C   LIG A   1     -10.461   7.438 128.161  0.00  0.00    +0.317 C 
ATOM     26  O   LIG A   1     -10.673   8.100 127.192  0.00  0.00    -0.250 OA
ATOM     27  O   LIG A   1      -9.708   6.256 128.152  0.00  0.00    -0.425 OA
ATOM     28  C   LIG A   1     -10.584   6.346 131.661  0.00  0.00    +0.053 A 
ATOM     29  C   LIG A   1      -9.883   5.258 132.132  0.00  0.00    +0.118 A 
ATOM     30  C   LIG A   1      -9.116   4.456 131.273  0.00  0.00    +0.052 A 
BRANCH  29  31
ATOM     31  O   LIG A   1      -9.926   4.995 133.467  0.00  0.00    -0.507 OA
ATOM     32  H   LIG A   1      -9.686   4.061 133.590  0.00  0.00    +0.292 HD
ENDBRANCH  29  31
ENDBRANCH  20  21
ENDBRANCH  19  20
ENDBRANCH   1  19
TORSDOF 16
ENDMDL
MODEL 5
REMARK VINA RESULT:      -6.3      1.520      3.711
REMARK  Name = NuBBE_1645
REMARK  21 active torsions:
REMARK  status: ('A' for Active; 'I' for Inactive)
REMARK    1  A    between atoms: C_1  and  C_2
REMARK    2  A    between atoms: C_1  and  C_21
REMARK    3  A    between atoms: C_2  and  C_3
REMARK    4  A    between atoms: C_3  and  C_4
REMARK    5  A    between atoms: C_3  and  C_20
REMARK    6  A    between atoms: C_4  and  C_5
REMARK    7  A    between atoms: C_5  and  C_6
REMARK    8  A    between atoms: C_6  and  C_7
REMARK    9  A    between atoms: C_7  and  C_8
REMARK   10  A    between atoms: C_7  and  C_19
REMARK   11  A    between atoms: C_8  and  C_9
REMARK   12  A    between atoms: C_9  and  C_10
REMARK   13  A    between atoms: C_10  and  C_11
REMARK   14  A    between atoms: C_11  and  C_12
REMARK   15  A    between atoms: C_11  and  C_18
REMARK   16  A    between atoms: C_12  and  C_13
REMARK   17  A    between atoms: C_13  and  C_14
REMARK   18  A    between atoms: C_14  and  C_15
REMARK   19  A    between atoms: C_15  and  C_16
REMARK   20  A    between atoms: C_15  and  C_17
REMARK   21  A    between atoms: C_29  and  O_31
REMARK                            x       y       z     vdW  Elec       q    Type
REMARK                         _______ _______ _______ _____ _____    ______ ____
ROOT
ATOM      1  C   LIG A   1      -5.415   1.581 127.433  0.00  0.00    -0.014 C 
ATOM      2  C   LIG A   1      -4.585   1.984 128.651  0.00  0.00    +0.007 C 
ENDROOT
BRANCH   1   3
ATOM      3  C   LIG A   1      -5.558   0.036 127.456  0.00  0.00    +0.003 C 
BRANCH   3   4
ATOM      4  C   LIG A   1      -5.482  -0.659 126.099  0.00  0.00    +0.000 C 
BRANCH   4   5
ATOM      5  C   LIG A   1      -6.025  -2.092 126.109  0.00  0.00    +0.003 C 
BRANCH   5   6
ATOM      6  C   LIG A   1      -7.493  -2.197 125.641  0.00  0.00    -0.014 C 
ATOM      7  C   LIG A   1      -7.860  -1.059 124.685  0.00  0.00    +0.007 C 
BRANCH   6   8
ATOM      8  C   LIG A   1      -8.497  -2.218 126.814  0.00  0.00    +0.003 C 
BRANCH   8   9
ATOM      9  C   LIG A   1      -8.549  -3.552 127.550  0.00  0.00    +0.000 C 
BRANCH   9  10
ATOM     10  C   LIG A   1      -8.387  -3.369 129.073  0.00  0.00    +0.003 C 
BRANCH  10  11
ATOM     11  C   LIG A   1      -6.966  -2.947 129.519  0.00  0.00    -0.014 C 
ATOM     12  C   LIG A   1      -6.299  -4.136 130.214  0.00  0.00    +0.007 C 
BRANCH  11  13
ATOM     13  C   LIG A   1      -6.887  -1.657 130.412  0.00  0.00    +0.003 C 
BRANCH  13  14
ATOM     14  C   LIG A   1      -8.188  -0.834 130.521  0.00  0.00    +0.000 C 
BRANCH  14  15
ATOM     15  C   LIG A   1      -8.162   0.662 130.090  0.00  0.00    +0.003 C 
BRANCH  15  16
ATOM     16  C   LIG A   1      -8.367   1.767 131.162  0.00  0.00    -0.017 C 
ATOM     17  C   LIG A   1      -8.320   3.188 130.558  0.00  0.00    +0.007 C 
ATOM     18  C   LIG A   1      -9.689   1.643 131.921  0.00  0.00    +0.007 C 
ENDBRANCH  15  16
ENDBRANCH  14  15
ENDBRANCH  13  14
ENDBRANCH  11  13
ENDBRANCH  10  11
ENDBRANCH   9  10
ENDBRANCH   8   9
ENDBRANCH   6   8
ENDBRANCH   5   6
ENDBRANCH   4   5
ENDBRANCH   3   4
ENDBRANCH   1   3
BRANCH   1  19
ATOM     19  C   LIG A   1      -4.833   2.100 126.091  0.00  0.00    +0.008 C 
BRANCH  19  20
ATOM     20  C   LIG A   1      -5.454   3.382 125.475  0.00  0.00    +0.039 C 
BRANCH  20  21
ATOM     21  C   LIG A   1      -6.635   3.257 124.533  0.00  0.00    -0.001 A 
ATOM     22  C   LIG A   1      -6.549   3.504 123.170  0.00  0.00    +0.139 A 
ATOM     23  C   LIG A   1      -7.605   3.236 122.294  0.00  0.00    +0.009 A 
ATOM     24  C   LIG A   1      -7.219   3.672 120.946  0.00  0.00    +0.160 C 
ATOM     25  C   LIG A   1      -5.802   4.177 121.195  0.00  0.00    +0.317 C 
ATOM     26  O   LIG A   1      -5.078   4.610 120.352  0.00  0.00    -0.250 OA
ATOM     27  O   LIG A   1      -5.452   4.070 122.548  0.00  0.00    -0.425 OA
ATOM     28  C   LIG A   1      -8.790   2.686 122.712  0.00  0.00    +0.053 A 
ATOM     29  C   LIG A   1      -8.924   2.490 124.069  0.00  0.00    +0.118 A 
ATOM     30  C   LIG A   1      -7.884   2.801 124.958  0.00  0.00    +0.052 A 
BRANCH  29  31
ATOM     31  O   LIG A   1     -10.112   2.015 124.536  0.00  0.00    -0.507 OA
ATOM     32  H   LIG A   1     -10.489   2.693 125.122  0.00  0.00    +0.292 HD
ENDBRANCH  29  31
ENDBRANCH  20  21
ENDBRANCH  19  20
ENDBRANCH   1  19
TORSDOF 16
ENDMDL
MODEL 6
REMARK VINA RESULT:      -6.2      6.112      8.910
REMARK  Name = NuBBE_1645
REMARK  21 active torsions:
REMARK  status: ('A' for Active; 'I' for Inactive)
REMARK    1  A    between atoms: C_1  and  C_2
REMARK    2  A    between atoms: C_1  and  C_21
REMARK    3  A    between atoms: C_2  and  C_3
REMARK    4  A    between atoms: C_3  and  C_4
REMARK    5  A    between atoms: C_3  and  C_20
REMARK    6  A    between atoms: C_4  and  C_5
REMARK    7  A    between atoms: C_5  and  C_6
REMARK    8  A    between atoms: C_6  and  C_7
REMARK    9  A    between atoms: C_7  and  C_8
REMARK   10  A    between atoms: C_7  and  C_19
REMARK   11  A    between atoms: C_8  and  C_9
REMARK   12  A    between atoms: C_9  and  C_10
REMARK   13  A    between atoms: C_10  and  C_11
REMARK   14  A    between atoms: C_11  and  C_12
REMARK   15  A    between atoms: C_11  and  C_18
REMARK   16  A    between atoms: C_12  and  C_13
REMARK   17  A    between atoms: C_13  and  C_14
REMARK   18  A    between atoms: C_14  and  C_15
REMARK   19  A    between atoms: C_15  and  C_16
REMARK   20  A    between atoms: C_15  and  C_17
REMARK   21  A    between atoms: C_29  and  O_31
REMARK                            x       y       z     vdW  Elec       q    Type
REMARK                         _______ _______ _______ _____ _____    ______ ____
ROOT
ATOM      1  C   LIG A   1      -8.947   3.152 129.846  0.00  0.00    -0.014 C 
ATOM      2  C   LIG A   1     -10.210   3.072 130.703  0.00  0.00    +0.007 C 
ENDROOT
BRANCH   1   3
ATOM      3  C   LIG A   1      -7.744   2.772 130.748  0.00  0.00    +0.003 C 
BRANCH   3   4
ATOM      4  C   LIG A   1      -8.043   2.652 132.240  0.00  0.00    +0.000 C 
BRANCH   4   5
ATOM      5  C   LIG A   1      -7.041   3.393 133.132  0.00  0.00    +0.003 C 
BRANCH   5   6
ATOM      6  C   LIG A   1      -7.576   4.734 133.678  0.00  0.00    -0.014 C 
ATOM      7  C   LIG A   1      -9.103   4.804 133.594  0.00  0.00    +0.007 C 
BRANCH   6   8
ATOM      8  C   LIG A   1      -6.972   5.959 132.957  0.00  0.00    +0.003 C 
BRANCH   8   9
ATOM      9  C   LIG A   1      -5.788   5.619 132.060  0.00  0.00    +0.000 C 
BRANCH   9  10
ATOM     10  C   LIG A   1      -5.551   6.706 130.992  0.00  0.00    +0.003 C 
BRANCH  10  11
ATOM     11  C   LIG A   1      -4.157   7.376 131.059  0.00  0.00    -0.014 C 
ATOM     12  C   LIG A   1      -4.077   8.445 129.967  0.00  0.00    +0.007 C 
BRANCH  11  13
ATOM     13  C   LIG A   1      -2.928   6.401 130.982  0.00  0.00    +0.003 C 
BRANCH  13  14
ATOM     14  C   LIG A   1      -2.299   6.005 132.334  0.00  0.00    +0.000 C 
BRANCH  14  15
ATOM     15  C   LIG A   1      -1.701   4.576 132.487  0.00  0.00    +0.003 C 
BRANCH  15  16
ATOM     16  C   LIG A   1      -2.590   3.433 133.048  0.00  0.00    -0.017 C 
ATOM     17  C   LIG A   1      -3.456   3.892 134.241  0.00  0.00    +0.007 C 
ATOM     18  C   LIG A   1      -3.537   2.830 132.009  0.00  0.00    +0.007 C 
ENDBRANCH  15  16
ENDBRANCH  14  15
ENDBRANCH  13  14
ENDBRANCH  11  13
ENDBRANCH  10  11
ENDBRANCH   9  10
ENDBRANCH   8   9
ENDBRANCH   6   8
ENDBRANCH   5   6
ENDBRANCH   4   5
ENDBRANCH   3   4
ENDBRANCH   1   3
BRANCH   1  19
ATOM     19  C   LIG A   1      -8.756   4.531 129.158  0.00  0.00    +0.008 C 
BRANCH  19  20
ATOM     20  C   LIG A   1      -9.003   5.807 130.006  0.00  0.00    +0.039 C 
BRANCH  20  21
ATOM     21  C   LIG A   1     -10.327   6.534 129.888  0.00  0.00    -0.001 A 
ATOM     22  C   LIG A   1     -10.814   7.037 128.689  0.00  0.00    +0.139 A 
ATOM     23  C   LIG A   1     -12.102   7.566 128.569  0.00  0.00    +0.009 A 
ATOM     24  C   LIG A   1     -12.276   8.072 127.201  0.00  0.00    +0.160 C 
ATOM     25  C   LIG A   1     -10.929   7.715 126.582  0.00  0.00    +0.317 C 
ATOM     26  O   LIG A   1     -10.628   7.921 125.447  0.00  0.00    -0.250 OA
ATOM     27  O   LIG A   1     -10.081   7.111 127.520  0.00  0.00    -0.425 OA
ATOM     28  C   LIG A   1     -12.987   7.602 129.617  0.00  0.00    +0.053 A 
ATOM     29  C   LIG A   1     -12.507   7.167 130.833  0.00  0.00    +0.118 A 
ATOM     30  C   LIG A   1     -11.199   6.678 130.969  0.00  0.00    +0.052 A 
BRANCH  29  31
ATOM     31  O   LIG A   1     -13.328   7.253 131.916  0.00  0.00    -0.507 OA
ATOM     32  H   LIG A   1     -12.987   6.644 132.592  0.00  0.00    +0.292 HD
ENDBRANCH  29  31
ENDBRANCH  20  21
ENDBRANCH  19  20
ENDBRANCH   1  19
TORSDOF 16
ENDMDL
MODEL 7
REMARK VINA RESULT:      -6.2      6.342      8.685
REMARK  Name = NuBBE_1645
REMARK  21 active torsions:
REMARK  status: ('A' for Active; 'I' for Inactive)
REMARK    1  A    between atoms: C_1  and  C_2
REMARK    2  A    between atoms: C_1  and  C_21
REMARK    3  A    between atoms: C_2  and  C_3
REMARK    4  A    between atoms: C_3  and  C_4
REMARK    5  A    between atoms: C_3  and  C_20
REMARK    6  A    between atoms: C_4  and  C_5
REMARK    7  A    between atoms: C_5  and  C_6
REMARK    8  A    between atoms: C_6  and  C_7
REMARK    9  A    between atoms: C_7  and  C_8
REMARK   10  A    between atoms: C_7  and  C_19
REMARK   11  A    between atoms: C_8  and  C_9
REMARK   12  A    between atoms: C_9  and  C_10
REMARK   13  A    between atoms: C_10  and  C_11
REMARK   14  A    between atoms: C_11  and  C_12
REMARK   15  A    between atoms: C_11  and  C_18
REMARK   16  A    between atoms: C_12  and  C_13
REMARK   17  A    between atoms: C_13  and  C_14
REMARK   18  A    between atoms: C_14  and  C_15
REMARK   19  A    between atoms: C_15  and  C_16
REMARK   20  A    between atoms: C_15  and  C_17
REMARK   21  A    between atoms: C_29  and  O_31
REMARK                            x       y       z     vdW  Elec       q    Type
REMARK                         _______ _______ _______ _____ _____    ______ ____
ROOT
ATOM      1  C   LIG A   1      -6.099   6.220 131.359  0.00  0.00    -0.014 C 
ATOM      2  C   LIG A   1      -5.116   7.238 130.782  0.00  0.00    +0.007 C 
ENDROOT
BRANCH   1   3
ATOM      3  C   LIG A   1      -5.946   4.909 130.544  0.00  0.00    +0.003 C 
BRANCH   3   4
ATOM      4  C   LIG A   1      -6.285   3.620 131.287  0.00  0.00    +0.000 C 
BRANCH   4   5
ATOM      5  C   LIG A   1      -7.757   3.208 131.170  0.00  0.00    +0.003 C 
BRANCH   5   6
ATOM      6  C   LIG A   1      -8.280   2.440 132.403  0.00  0.00    -0.014 C 
ATOM      7  C   LIG A   1      -8.989   1.145 131.997  0.00  0.00    +0.007 C 
BRANCH   6   8
ATOM      8  C   LIG A   1      -9.230   3.285 133.279  0.00  0.00    +0.003 C 
BRANCH   8   9
ATOM      9  C   LIG A   1      -8.521   4.381 134.067  0.00  0.00    +0.000 C 
BRANCH   9  10
ATOM     10  C   LIG A   1      -7.262   3.846 134.779  0.00  0.00    +0.003 C 
BRANCH  10  11
ATOM     11  C   LIG A   1      -6.396   4.937 135.456  0.00  0.00    -0.014 C 
ATOM     12  C   LIG A   1      -7.324   6.010 136.029  0.00  0.00    +0.007 C 
BRANCH  11  13
ATOM     13  C   LIG A   1      -5.283   5.579 134.553  0.00  0.00    +0.003 C 
BRANCH  13  14
ATOM     14  C   LIG A   1      -3.833   5.159 134.872  0.00  0.00    +0.000 C 
BRANCH  14  15
ATOM     15  C   LIG A   1      -2.705   5.558 133.876  0.00  0.00    +0.003 C 
BRANCH  15  16
ATOM     16  C   LIG A   1      -2.161   4.501 132.878  0.00  0.00    -0.017 C 
ATOM     17  C   LIG A   1      -2.764   3.100 133.116  0.00  0.00    +0.007 C 
ATOM     18  C   LIG A   1      -2.415   4.858 131.412  0.00  0.00    +0.007 C 
ENDBRANCH  15  16
ENDBRANCH  14  15
ENDBRANCH  13  14
ENDBRANCH  11  13
ENDBRANCH  10  11
ENDBRANCH   9  10
ENDBRANCH   8   9
ENDBRANCH   6   8
ENDBRANCH   5   6
ENDBRANCH   4   5
ENDBRANCH   3   4
ENDBRANCH   1   3
BRANCH   1  19
ATOM     19  C   LIG A   1      -7.565   6.728 131.389  0.00  0.00    +0.008 C 
BRANCH  19  20
ATOM     20  C   LIG A   1      -8.275   6.983 130.033  0.00  0.00    +0.039 C 
BRANCH  20  21
ATOM     21  C   LIG A   1      -9.788   7.061 129.989  0.00  0.00    -0.001 A 
ATOM     22  C   LIG A   1     -10.506   7.245 128.815  0.00  0.00    +0.139 A 
ATOM     23  C   LIG A   1     -11.900   7.161 128.770  0.00  0.00    +0.009 A 
ATOM     24  C   LIG A   1     -12.346   7.473 127.406  0.00  0.00    +0.160 C 
ATOM     25  C   LIG A   1     -11.011   7.701 126.705  0.00  0.00    +0.317 C 
ATOM     26  O   LIG A   1     -10.888   7.960 125.548  0.00  0.00    -0.250 OA
ATOM     27  O   LIG A   1      -9.938   7.570 127.597  0.00  0.00    -0.425 OA
ATOM     28  C   LIG A   1     -12.658   6.864 129.874  0.00  0.00    +0.053 A 
ATOM     29  C   LIG A   1     -11.975   6.739 131.065  0.00  0.00    +0.118 A 
ATOM     30  C   LIG A   1     -10.579   6.869 131.123  0.00  0.00    +0.052 A 
BRANCH  29  31
ATOM     31  O   LIG A   1     -12.695   6.517 132.199  0.00  0.00    -0.507 OA
ATOM     32  H   LIG A   1     -13.260   5.742 132.041  0.00  0.00    +0.292 HD
ENDBRANCH  29  31
ENDBRANCH  20  21
ENDBRANCH  19  20
ENDBRANCH   1  19
TORSDOF 16
ENDMDL
MODEL 8
REMARK VINA RESULT:      -6.2      3.763      6.110
REMARK  Name = NuBBE_1645
REMARK  21 active torsions:
REMARK  status: ('A' for Active; 'I' for Inactive)
REMARK    1  A    between atoms: C_1  and  C_2
REMARK    2  A    between atoms: C_1  and  C_21
REMARK    3  A    between atoms: C_2  and  C_3
REMARK    4  A    between atoms: C_3  and  C_4
REMARK    5  A    between atoms: C_3  and  C_20
REMARK    6  A    between atoms: C_4  and  C_5
REMARK    7  A    between atoms: C_5  and  C_6
REMARK    8  A    between atoms: C_6  and  C_7
REMARK    9  A    between atoms: C_7  and  C_8
REMARK   10  A    between atoms: C_7  and  C_19
REMARK   11  A    between atoms: C_8  and  C_9
REMARK   12  A    between atoms: C_9  and  C_10
REMARK   13  A    between atoms: C_10  and  C_11
REMARK   14  A    between atoms: C_11  and  C_12
REMARK   15  A    between atoms: C_11  and  C_18
REMARK   16  A    between atoms: C_12  and  C_13
REMARK   17  A    between atoms: C_13  and  C_14
REMARK   18  A    between atoms: C_14  and  C_15
REMARK   19  A    between atoms: C_15  and  C_16
REMARK   20  A    between atoms: C_15  and  C_17
REMARK   21  A    between atoms: C_29  and  O_31
REMARK                            x       y       z     vdW  Elec       q    Type
REMARK                         _______ _______ _______ _____ _____    ______ ____
ROOT
ATOM      1  C   LIG A   1      -7.667   1.695 129.225  0.00  0.00    -0.014 C 
ATOM      2  C   LIG A   1      -8.341   1.035 130.427  0.00  0.00    +0.007 C 
ENDROOT
BRANCH   1   3
ATOM      3  C   LIG A   1      -6.230   2.092 129.655  0.00  0.00    +0.003 C 
BRANCH   3   4
ATOM      4  C   LIG A   1      -5.153   1.950 128.584  0.00  0.00    +0.000 C 
BRANCH   4   5
ATOM      5  C   LIG A   1      -5.658   1.329 127.277  0.00  0.00    +0.003 C 
BRANCH   5   6
ATOM      6  C   LIG A   1      -5.128   2.040 126.013  0.00  0.00    -0.014 C 
ATOM      7  C   LIG A   1      -4.579   3.431 126.339  0.00  0.00    +0.007 C 
BRANCH   6   8
ATOM      8  C   LIG A   1      -6.193   2.162 124.901  0.00  0.00    +0.003 C 
BRANCH   8   9
ATOM      9  C   LIG A   1      -7.150   3.332 125.099  0.00  0.00    +0.000 C 
BRANCH   9  10
ATOM     10  C   LIG A   1      -8.623   2.879 125.036  0.00  0.00    +0.003 C 
BRANCH  10  11
ATOM     11  C   LIG A   1      -8.817   1.369 124.751  0.00  0.00    -0.014 C 
ATOM     12  C   LIG A   1      -9.756   1.216 123.553  0.00  0.00    +0.007 C 
BRANCH  11  13
ATOM     13  C   LIG A   1      -9.309   0.504 125.966  0.00  0.00    +0.003 C 
BRANCH  13  14
ATOM     14  C   LIG A   1      -8.547  -0.816 126.203  0.00  0.00    +0.000 C 
BRANCH  14  15
ATOM     15  C   LIG A   1      -9.155  -2.138 125.649  0.00  0.00    +0.003 C 
BRANCH  15  16
ATOM     16  C   LIG A   1      -8.566  -2.764 124.356  0.00  0.00    -0.017 C 
ATOM     17  C   LIG A   1      -7.695  -4.006 124.646  0.00  0.00    +0.007 C 
ATOM     18  C   LIG A   1      -9.632  -3.188 123.343  0.00  0.00    +0.007 C 
ENDBRANCH  15  16
ENDBRANCH  14  15
ENDBRANCH  13  14
ENDBRANCH  11  13
ENDBRANCH  10  11
ENDBRANCH   9  10
ENDBRANCH   8   9
ENDBRANCH   6   8
ENDBRANCH   5   6
ENDBRANCH   4   5
ENDBRANCH   3   4
ENDBRANCH   1   3
BRANCH   1  19
ATOM     19  C   LIG A   1      -8.466   2.899 128.657  0.00  0.00    +0.008 C 
BRANCH  19  20
ATOM     20  C   LIG A   1      -7.939   4.329 128.957  0.00  0.00    +0.039 C 
BRANCH  20  21
ATOM     21  C   LIG A   1      -8.867   5.344 129.594  0.00  0.00    -0.001 A 
ATOM     22  C   LIG A   1      -9.709   6.169 128.861  0.00  0.00    +0.139 A 
ATOM     23  C   LIG A   1     -10.666   6.988 129.467  0.00  0.00    +0.009 A 
ATOM     24  C   LIG A   1     -11.335   7.778 128.426  0.00  0.00    +0.160 C 
ATOM     25  C   LIG A   1     -10.645   7.255 127.171  0.00  0.00    +0.317 C 
ATOM     26  O   LIG A   1     -10.900   7.606 126.060  0.00  0.00    -0.250 OA
ATOM     27  O   LIG A   1      -9.666   6.303 127.486  0.00  0.00    -0.425 OA
ATOM     28  C   LIG A   1     -10.861   7.016 130.825  0.00  0.00    +0.053 A 
ATOM     29  C   LIG A   1      -9.996   6.254 131.579  0.00  0.00    +0.118 A 
ATOM     30  C   LIG A   1      -9.002   5.465 130.978  0.00  0.00    +0.052 A 
BRANCH  29  31
ATOM     31  O   LIG A   1     -10.106   6.309 132.935  0.00  0.00    -0.507 OA
ATOM     32  H   LIG A   1     -10.074   7.245 133.194  0.00  0.00    +0.292 HD
ENDBRANCH  29  31
ENDBRANCH  20  21
ENDBRANCH  19  20
ENDBRANCH   1  19
TORSDOF 16
ENDMDL
MODEL 9
REMARK VINA RESULT:      -6.1      2.869      6.198
REMARK  Name = NuBBE_1645
REMARK  21 active torsions:
REMARK  status: ('A' for Active; 'I' for Inactive)
REMARK    1  A    between atoms: C_1  and  C_2
REMARK    2  A    between atoms: C_1  and  C_21
REMARK    3  A    between atoms: C_2  and  C_3
REMARK    4  A    between atoms: C_3  and  C_4
REMARK    5  A    between atoms: C_3  and  C_20
REMARK    6  A    between atoms: C_4  and  C_5
REMARK    7  A    between atoms: C_5  and  C_6
REMARK    8  A    between atoms: C_6  and  C_7
REMARK    9  A    between atoms: C_7  and  C_8
REMARK   10  A    between atoms: C_7  and  C_19
REMARK   11  A    between atoms: C_8  and  C_9
REMARK   12  A    between atoms: C_9  and  C_10
REMARK   13  A    between atoms: C_10  and  C_11
REMARK   14  A    between atoms: C_11  and  C_12
REMARK   15  A    between atoms: C_11  and  C_18
REMARK   16  A    between atoms: C_12  and  C_13
REMARK   17  A    between atoms: C_13  and  C_14
REMARK   18  A    between atoms: C_14  and  C_15
REMARK   19  A    between atoms: C_15  and  C_16
REMARK   20  A    between atoms: C_15  and  C_17
REMARK   21  A    between atoms: C_29  and  O_31
REMARK                            x       y       z     vdW  Elec       q    Type
REMARK                         _______ _______ _______ _____ _____    ______ ____
ROOT
ATOM      1  C   LIG A   1      -8.557  -3.672 124.852  0.00  0.00    -0.014 C 
ATOM      2  C   LIG A   1      -9.401  -3.309 123.630  0.00  0.00    +0.007 C 
ENDROOT
BRANCH   1   3
ATOM      3  C   LIG A   1      -9.020  -2.767 126.024  0.00  0.00    +0.003 C 
BRANCH   3   4
ATOM      4  C   LIG A   1      -8.459  -3.119 127.399  0.00  0.00    +0.000 C 
BRANCH   4   5
ATOM      5  C   LIG A   1      -7.678  -1.978 128.058  0.00  0.00    +0.003 C 
BRANCH   5   6
ATOM      6  C   LIG A   1      -6.492  -2.461 128.921  0.00  0.00    -0.014 C 
ATOM      7  C   LIG A   1      -5.231  -2.666 128.077  0.00  0.00    +0.007 C 
BRANCH   6   8
ATOM      8  C   LIG A   1      -6.802  -3.762 129.693  0.00  0.00    +0.003 C 
BRANCH   8   9
ATOM      9  C   LIG A   1      -5.615  -4.302 130.482  0.00  0.00    +0.000 C 
BRANCH   9  10
ATOM     10  C   LIG A   1      -4.998  -3.221 131.393  0.00  0.00    +0.003 C 
BRANCH  10  11
ATOM     11  C   LIG A   1      -5.080  -3.536 132.906  0.00  0.00    -0.014 C 
ATOM     12  C   LIG A   1      -5.679  -4.933 133.083  0.00  0.00    +0.007 C 
BRANCH  11  13
ATOM     13  C   LIG A   1      -5.847  -2.481 133.781  0.00  0.00    +0.003 C 
BRANCH  13  14
ATOM     14  C   LIG A   1      -7.382  -2.471 133.630  0.00  0.00    +0.000 C 
BRANCH  14  15
ATOM     15  C   LIG A   1      -8.006  -1.738 132.406  0.00  0.00    +0.003 C 
BRANCH  15  16
ATOM     16  C   LIG A   1      -7.885  -0.194 132.298  0.00  0.00    -0.017 C 
ATOM     17  C   LIG A   1      -6.704   0.243 131.405  0.00  0.00    +0.007 C 
ATOM     18  C   LIG A   1      -9.143   0.479 131.746  0.00  0.00    +0.007 C 
ENDBRANCH  15  16
ENDBRANCH  14  15
ENDBRANCH  13  14
ENDBRANCH  11  13
ENDBRANCH  10  11
ENDBRANCH   9  10
ENDBRANCH   8   9
ENDBRANCH   6   8
ENDBRANCH   5   6
ENDBRANCH   4   5
ENDBRANCH   3   4
ENDBRANCH   1   3
BRANCH   1  19
ATOM     19  C   LIG A   1      -7.029  -3.570 124.598  0.00  0.00    +0.008 C 
BRANCH  19  20
ATOM     20  C   LIG A   1      -6.508  -2.368 123.766  0.00  0.00    +0.039 C 
BRANCH  20  21
ATOM     21  C   LIG A   1      -6.457  -0.992 124.399  0.00  0.00    -0.001 A 
ATOM     22  C   LIG A   1      -7.411  -0.011 124.165  0.00  0.00    +0.139 A 
ATOM     23  C   LIG A   1      -7.434   1.193 124.873  0.00  0.00    +0.009 A 
ATOM     24  C   LIG A   1      -8.516   2.031 124.339  0.00  0.00    +0.160 C 
ATOM     25  C   LIG A   1      -9.103   1.110 123.275  0.00  0.00    +0.317 C 
ATOM     26  O   LIG A   1     -10.044   1.376 122.591  0.00  0.00    -0.250 OA
ATOM     27  O   LIG A   1      -8.395  -0.097 123.197  0.00  0.00    -0.425 OA
ATOM     28  C   LIG A   1      -6.535   1.483 125.866  0.00  0.00    +0.053 A 
ATOM     29  C   LIG A   1      -5.538   0.554 126.075  0.00  0.00    +0.118 A 
ATOM     30  C   LIG A   1      -5.484  -0.636 125.334  0.00  0.00    +0.052 A 
BRANCH  29  31
ATOM     31  O   LIG A   1      -4.581   0.835 127.001  0.00  0.00    -0.507 OA
ATOM     32  H   LIG A   1      -4.290  -0.008 127.387  0.00  0.00    +0.292 HD
ENDBRANCH  29  31
ENDBRANCH  20  21
ENDBRANCH  19  20
ENDBRANCH   1  19
TORSDOF 16
ENDMDL
