MODEL 1
REMARK VINA RESULT:      -6.1      0.000      0.000
REMARK  Name = NuBBE_733
REMARK  2 active torsions:
REMARK  status: ('A' for Active; 'I' for Inactive)
REMARK    1  A    between atoms: C_2  and  C_3
REMARK    2  A    between atoms: C_3  and  C_4
REMARK                            x       y       z     vdW  Elec       q    Type
REMARK                         _______ _______ _______ _____ _____    ______ ____
ROOT
ATOM      1  C   LIG A   1     -12.583   8.724 128.928  0.00  0.00    -0.040 A 
ATOM      2  C   LIG A   1     -12.674   7.880 130.048  0.00  0.00    +0.053 A 
ATOM      3  C   LIG A   1     -11.829   6.793 130.113  0.00  0.00    +0.167 A 
ATOM      4  O   LIG A   1     -11.790   5.876 131.117  0.00  0.00    -0.453 OA
ATOM      5  C   LIG A   1     -10.745   5.002 130.645  0.00  0.00    +0.466 C 
ATOM      6  O   LIG A   1     -10.179   5.410 129.381  0.00  0.00    -0.453 OA
ATOM      7  C   LIG A   1     -10.911   6.527 129.125  0.00  0.00    +0.166 A 
ATOM      8  C   LIG A   1     -10.783   7.335 128.017  0.00  0.00    +0.050 A 
ATOM      9  C   LIG A   1     -11.628   8.447 127.922  0.00  0.00    +0.008 A 
ENDROOT
BRANCH   1  10
ATOM     10  C   LIG A   1     -13.478   9.935 128.816  0.00  0.00    +0.061 C 
BRANCH  10  12
ATOM     11  C   LIG A   1     -13.798  12.085 130.077  0.00  0.00    +0.004 C 
ATOM     12  C   LIG A   1     -13.416  10.802 130.042  0.00  0.00    -0.030 C 
ENDBRANCH  10  12
ENDBRANCH   1  10
TORSDOF 2
ENDMDL
MODEL 2
REMARK VINA RESULT:      -6.1     10.572     13.235
REMARK  Name = NuBBE_733
REMARK  2 active torsions:
REMARK  status: ('A' for Active; 'I' for Inactive)
REMARK    1  A    between atoms: C_2  and  C_3
REMARK    2  A    between atoms: C_3  and  C_4
REMARK                            x       y       z     vdW  Elec       q    Type
REMARK                         _______ _______ _______ _____ _____    ______ ____
ROOT
ATOM      1  C   LIG A   1      -6.755  -2.367 124.062  0.00  0.00    -0.040 A 
ATOM      2  C   LIG A   1      -6.942  -0.988 123.861  0.00  0.00    +0.053 A 
ATOM      3  C   LIG A   1      -8.167  -0.560 123.398  0.00  0.00    +0.167 A 
ATOM      4  O   LIG A   1      -8.513   0.731 123.142  0.00  0.00    -0.453 OA
ATOM      5  C   LIG A   1      -9.873   0.563 122.693  0.00  0.00    +0.466 C 
ATOM      6  O   LIG A   1     -10.314  -0.811 122.692  0.00  0.00    -0.453 OA
ATOM      7  C   LIG A   1      -9.193  -1.437 123.142  0.00  0.00    +0.166 A 
ATOM      8  C   LIG A   1      -9.054  -2.793 123.336  0.00  0.00    +0.050 A 
ATOM      9  C   LIG A   1      -7.821  -3.259 123.805  0.00  0.00    +0.008 A 
ENDROOT
BRANCH   1  10
ATOM     10  C   LIG A   1      -5.434  -2.885 124.581  0.00  0.00    +0.061 C 
BRANCH  10  12
ATOM     11  C   LIG A   1      -4.282  -4.837 123.495  0.00  0.00    +0.004 C 
ATOM     12  C   LIG A   1      -4.619  -3.540 123.501  0.00  0.00    -0.030 C 
ENDBRANCH  10  12
ENDBRANCH   1  10
TORSDOF 2
ENDMDL
MODEL 3
REMARK VINA RESULT:      -6.0      0.957      1.944
REMARK  Name = NuBBE_733
REMARK  2 active torsions:
REMARK  status: ('A' for Active; 'I' for Inactive)
REMARK    1  A    between atoms: C_2  and  C_3
REMARK    2  A    between atoms: C_3  and  C_4
REMARK                            x       y       z     vdW  Elec       q    Type
REMARK                         _______ _______ _______ _____ _____    ______ ____
ROOT
ATOM      1  C   LIG A   1     -12.433   8.534 129.528  0.00  0.00    -0.040 A 
ATOM      2  C   LIG A   1     -11.402   7.992 128.740  0.00  0.00    +0.053 A 
ATOM      3  C   LIG A   1     -10.721   6.897 129.225  0.00  0.00    +0.167 A 
ATOM      4  O   LIG A   1      -9.697   6.256 128.597  0.00  0.00    -0.453 OA
ATOM      5  C   LIG A   1      -9.395   5.224 129.557  0.00  0.00    +0.466 C 
ATOM      6  O   LIG A   1     -10.238   5.261 130.728  0.00  0.00    -0.453 OA
ATOM      7  C   LIG A   1     -11.029   6.329 130.438  0.00  0.00    +0.166 A 
ATOM      8  C   LIG A   1     -12.038   6.822 131.235  0.00  0.00    +0.050 A 
ATOM      9  C   LIG A   1     -12.748   7.935 130.770  0.00  0.00    +0.008 A 
ENDROOT
BRANCH   1  10
ATOM     10  C   LIG A   1     -13.217   9.727 129.036  0.00  0.00    +0.061 C 
BRANCH  10  12
ATOM     11  C   LIG A   1     -13.810  12.013 129.892  0.00  0.00    +0.004 C 
ATOM     12  C   LIG A   1     -13.436  10.747 130.117  0.00  0.00    -0.030 C 
ENDBRANCH  10  12
ENDBRANCH   1  10
TORSDOF 2
ENDMDL
MODEL 4
REMARK VINA RESULT:      -5.7      2.260      3.485
REMARK  Name = NuBBE_733
REMARK  2 active torsions:
REMARK  status: ('A' for Active; 'I' for Inactive)
REMARK    1  A    between atoms: C_2  and  C_3
REMARK    2  A    between atoms: C_3  and  C_4
REMARK                            x       y       z     vdW  Elec       q    Type
REMARK                         _______ _______ _______ _____ _____    ______ ____
ROOT
ATOM      1  C   LIG A   1     -11.948   7.563 129.652  0.00  0.00    -0.040 A 
ATOM      2  C   LIG A   1     -10.580   7.714 129.369  0.00  0.00    +0.053 A 
ATOM      3  C   LIG A   1      -9.669   7.241 130.289  0.00  0.00    +0.167 A 
ATOM      4  O   LIG A   1      -8.315   7.313 130.176  0.00  0.00    -0.453 OA
ATOM      5  C   LIG A   1      -7.908   6.678 131.405  0.00  0.00    +0.466 C 
ATOM      6  O   LIG A   1      -9.014   6.238 132.221  0.00  0.00    -0.453 OA
ATOM      7  C   LIG A   1     -10.066   6.629 131.454  0.00  0.00    +0.166 A 
ATOM      8  C   LIG A   1     -11.396   6.452 131.763  0.00  0.00    +0.050 A 
ATOM      9  C   LIG A   1     -12.345   6.922 130.849  0.00  0.00    +0.008 A 
ENDROOT
BRANCH   1  10
ATOM     10  C   LIG A   1     -12.985   8.053 128.670  0.00  0.00    +0.061 C 
BRANCH  10  12
ATOM     11  C   LIG A   1     -12.515   7.041 126.419  0.00  0.00    +0.004 C 
ATOM     12  C   LIG A   1     -13.221   7.072 127.557  0.00  0.00    -0.030 C 
ENDBRANCH  10  12
ENDBRANCH   1  10
TORSDOF 2
ENDMDL
MODEL 5
REMARK VINA RESULT:      -5.6      2.533      5.324
REMARK  Name = NuBBE_733
REMARK  2 active torsions:
REMARK  status: ('A' for Active; 'I' for Inactive)
REMARK    1  A    between atoms: C_2  and  C_3
REMARK    2  A    between atoms: C_3  and  C_4
REMARK                            x       y       z     vdW  Elec       q    Type
REMARK                         _______ _______ _______ _____ _____    ______ ____
ROOT
ATOM      1  C   LIG A   1      -9.973   6.450 131.654  0.00  0.00    -0.040 A 
ATOM      2  C   LIG A   1      -9.450   7.013 130.477  0.00  0.00    +0.053 A 
ATOM      3  C   LIG A   1     -10.335   7.527 129.554  0.00  0.00    +0.167 A 
ATOM      4  O   LIG A   1     -10.001   8.098 128.365  0.00  0.00    -0.453 OA
ATOM      5  C   LIG A   1     -11.306   8.431 127.849  0.00  0.00    +0.466 C 
ATOM      6  O   LIG A   1     -12.386   8.062 128.732  0.00  0.00    -0.453 OA
ATOM      7  C   LIG A   1     -11.694   7.507 129.763  0.00  0.00    +0.166 A 
ATOM      8  C   LIG A   1     -12.245   6.975 130.907  0.00  0.00    +0.050 A 
ATOM      9  C   LIG A   1     -11.372   6.445 131.863  0.00  0.00    +0.008 A 
ENDROOT
BRANCH   1  10
ATOM     10  C   LIG A   1      -9.043   5.885 132.702  0.00  0.00    +0.061 C 
BRANCH  10  12
ATOM     11  C   LIG A   1      -8.967   3.743 134.014  0.00  0.00    +0.004 C 
ATOM     12  C   LIG A   1      -9.218   4.402 132.875  0.00  0.00    -0.030 C 
ENDBRANCH  10  12
ENDBRANCH   1  10
TORSDOF 2
ENDMDL
MODEL 6
REMARK VINA RESULT:      -5.5     11.390     13.267
REMARK  Name = NuBBE_733
REMARK  2 active torsions:
REMARK  status: ('A' for Active; 'I' for Inactive)
REMARK    1  A    between atoms: C_2  and  C_3
REMARK    2  A    between atoms: C_3  and  C_4
REMARK                            x       y       z     vdW  Elec       q    Type
REMARK                         _______ _______ _______ _____ _____    ______ ____
ROOT
ATOM      1  C   LIG A   1      -6.529  -2.838 124.631  0.00  0.00    -0.040 A 
ATOM      2  C   LIG A   1      -6.082  -2.254 125.829  0.00  0.00    +0.053 A 
ATOM      3  C   LIG A   1      -6.877  -2.377 126.948  0.00  0.00    +0.167 A 
ATOM      4  O   LIG A   1      -6.599  -1.869 128.179  0.00  0.00    -0.453 OA
ATOM      5  C   LIG A   1      -7.760  -2.301 128.918  0.00  0.00    +0.466 C 
ATOM      6  O   LIG A   1      -8.699  -3.056 128.125  0.00  0.00    -0.453 OA
ATOM      7  C   LIG A   1      -8.073  -3.053 126.918  0.00  0.00    +0.166 A 
ATOM      8  C   LIG A   1      -8.541  -3.648 125.767  0.00  0.00    +0.050 A 
ATOM      9  C   LIG A   1      -7.757  -3.540 124.614  0.00  0.00    +0.008 A 
ENDROOT
BRANCH   1  10
ATOM     10  C   LIG A   1      -5.689  -2.742 123.380  0.00  0.00    +0.061 C 
BRANCH  10  12
ATOM     11  C   LIG A   1      -4.297  -4.832 123.461  0.00  0.00    +0.004 C 
ATOM     12  C   LIG A   1      -4.395  -3.497 123.505  0.00  0.00    -0.030 C 
ENDBRANCH  10  12
ENDBRANCH   1  10
TORSDOF 2
ENDMDL
MODEL 7
REMARK VINA RESULT:      -5.2     11.923     12.285
REMARK  Name = NuBBE_733
REMARK  2 active torsions:
REMARK  status: ('A' for Active; 'I' for Inactive)
REMARK    1  A    between atoms: C_2  and  C_3
REMARK    2  A    between atoms: C_3  and  C_4
REMARK                            x       y       z     vdW  Elec       q    Type
REMARK                         _______ _______ _______ _____ _____    ______ ____
ROOT
ATOM      1  C   LIG A   1      -8.348  -2.984 127.060  0.00  0.00    -0.040 A 
ATOM      2  C   LIG A   1      -9.278  -3.036 126.007  0.00  0.00    +0.053 A 
ATOM      3  C   LIG A   1      -8.937  -2.445 124.810  0.00  0.00    +0.167 A 
ATOM      4  O   LIG A   1      -9.717  -2.397 123.696  0.00  0.00    -0.453 OA
ATOM      5  C   LIG A   1      -8.857  -1.673 122.794  0.00  0.00    +0.466 C 
ATOM      6  O   LIG A   1      -7.587  -1.309 123.375  0.00  0.00    -0.453 OA
ATOM      7  C   LIG A   1      -7.723  -1.826 124.626  0.00  0.00    +0.166 A 
ATOM      8  C   LIG A   1      -6.781  -1.764 125.628  0.00  0.00    +0.050 A 
ATOM      9  C   LIG A   1      -7.099  -2.354 126.856  0.00  0.00    +0.008 A 
ENDROOT
BRANCH   1  10
ATOM     10  C   LIG A   1      -8.670  -3.627 128.389  0.00  0.00    +0.061 C 
BRANCH  10  12
ATOM     11  C   LIG A   1      -7.562  -2.982 130.549  0.00  0.00    +0.004 C 
ATOM     12  C   LIG A   1      -7.513  -3.565 129.344  0.00  0.00    -0.030 C 
ENDBRANCH  10  12
ENDBRANCH   1  10
TORSDOF 2
ENDMDL
MODEL 8
REMARK VINA RESULT:      -5.1     11.733     12.673
REMARK  Name = NuBBE_733
REMARK  2 active torsions:
REMARK  status: ('A' for Active; 'I' for Inactive)
REMARK    1  A    between atoms: C_2  and  C_3
REMARK    2  A    between atoms: C_3  and  C_4
REMARK                            x       y       z     vdW  Elec       q    Type
REMARK                         _______ _______ _______ _____ _____    ______ ____
ROOT
ATOM      1  C   LIG A   1      -8.579  -3.279 126.189  0.00  0.00    -0.040 A 
ATOM      2  C   LIG A   1      -7.335  -2.707 125.873  0.00  0.00    +0.053 A 
ATOM      3  C   LIG A   1      -7.108  -2.325 124.569  0.00  0.00    +0.167 A 
ATOM      4  O   LIG A   1      -5.962  -1.765 124.092  0.00  0.00    -0.453 OA
ATOM      5  C   LIG A   1      -6.304  -1.593 122.702  0.00  0.00    +0.466 C 
ATOM      6  O   LIG A   1      -7.635  -2.042 122.376  0.00  0.00    -0.453 OA
ATOM      7  C   LIG A   1      -8.060  -2.481 123.591  0.00  0.00    +0.166 A 
ATOM      8  C   LIG A   1      -9.295  -3.027 123.861  0.00  0.00    +0.050 A 
ATOM      9  C   LIG A   1      -9.556  -3.425 125.177  0.00  0.00    +0.008 A 
ENDROOT
BRANCH   1  10
ATOM     10  C   LIG A   1      -8.881  -3.702 127.607  0.00  0.00    +0.061 C 
BRANCH  10  12
ATOM     11  C   LIG A   1      -8.010  -2.496 129.631  0.00  0.00    +0.004 C 
ATOM     12  C   LIG A   1      -7.804  -3.282 128.567  0.00  0.00    -0.030 C 
ENDBRANCH  10  12
ENDBRANCH   1  10
TORSDOF 2
ENDMDL
MODEL 9
REMARK VINA RESULT:      -5.0     11.763     12.298
REMARK  Name = NuBBE_733
REMARK  2 active torsions:
REMARK  status: ('A' for Active; 'I' for Inactive)
REMARK    1  A    between atoms: C_2  and  C_3
REMARK    2  A    between atoms: C_3  and  C_4
REMARK                            x       y       z     vdW  Elec       q    Type
REMARK                         _______ _______ _______ _____ _____    ______ ____
ROOT
ATOM      1  C   LIG A   1      -7.789  -2.782 126.512  0.00  0.00    -0.040 A 
ATOM      2  C   LIG A   1      -6.790  -2.190 127.303  0.00  0.00    +0.053 A 
ATOM      3  C   LIG A   1      -6.843  -2.382 128.667  0.00  0.00    +0.167 A 
ATOM      4  O   LIG A   1      -5.965  -1.877 129.576  0.00  0.00    -0.453 OA
ATOM      5  C   LIG A   1      -6.517  -2.394 130.802  0.00  0.00    +0.466 C 
ATOM      6  O   LIG A   1      -7.701  -3.196 130.609  0.00  0.00    -0.453 OA
ATOM      7  C   LIG A   1      -7.831  -3.134 129.256  0.00  0.00    +0.166 A 
ATOM      8  C   LIG A   1      -8.822  -3.739 128.515  0.00  0.00    +0.050 A 
ATOM      9  C   LIG A   1      -8.795  -3.562 127.128  0.00  0.00    +0.008 A 
ENDROOT
BRANCH   1  10
ATOM     10  C   LIG A   1      -7.768  -2.612 125.011  0.00  0.00    +0.061 C 
BRANCH  10  12
ATOM     11  C   LIG A   1      -9.579  -3.274 123.399  0.00  0.00    +0.004 C 
ATOM     12  C   LIG A   1      -8.659  -3.603 124.315  0.00  0.00    -0.030 C 
ENDBRANCH  10  12
ENDBRANCH   1  10
TORSDOF 2
ENDMDL
