MODEL 1
REMARK VINA RESULT:      -6.7      0.000      0.000
REMARK  Name = NuBBE_614
REMARK  7 active torsions:
REMARK  status: ('A' for Active; 'I' for Inactive)
REMARK    1  A    between atoms: O_1  and  C_2
REMARK    2  A    between atoms: C_2  and  C_3
REMARK    3  A    between atoms: C_3  and  O_4
REMARK    4  A    between atoms: C_10  and  C_11
REMARK    5  A    between atoms: C_11  and  O_12
REMARK    6  A    between atoms: C_15  and  C_16
REMARK    7  A    between atoms: C_15  and  C_17
REMARK                            x       y       z     vdW  Elec       q    Type
REMARK                         _______ _______ _______ _____ _____    ______ ____
ROOT
ATOM      1  C   LIG A   1      -7.025  -0.448 127.635  0.00  0.00    +0.092 C 
ATOM      2  C   LIG A   1      -7.155  -1.977 127.518  0.00  0.00    +0.027 C 
ATOM      3  C   LIG A   1      -8.440  -2.764 127.850  0.00  0.00    +0.008 C 
ATOM      4  C   LIG A   1      -8.500  -3.910 126.776  0.00  0.00    +0.019 C 
ATOM      5  C   LIG A   1      -6.865  -2.443 126.118  0.00  0.00    +0.015 C 
ATOM      6  C   LIG A   1      -8.052  -3.173 125.518  0.00  0.00    +0.071 C 
ATOM      7  C   LIG A   1      -7.305  -3.735 124.291  0.00  0.00    +0.025 C 
ATOM      8  C   LIG A   1      -6.285  -2.554 123.874  0.00  0.00    -0.031 C 
ATOM      9  C   LIG A   1      -6.714  -1.923 122.541  0.00  0.00    +0.011 C 
ATOM     10  C   LIG A   1      -4.863  -3.110 123.715  0.00  0.00    +0.011 C 
ATOM     11  C   LIG A   1      -6.414  -1.511 125.037  0.00  0.00    -0.001 C 
ATOM     12  C   LIG A   1      -5.276  -0.691 125.606  0.00  0.00    +0.007 C 
ATOM     13  C   LIG A   1      -5.706   0.040 126.920  0.00  0.00    +0.037 C 
ENDROOT
BRANCH   1  14
ATOM     14  O   LIG A   1      -8.133   0.253 127.056  0.00  0.00    -0.386 OA
ATOM     15  H   LIG A   1      -7.839   1.089 126.640  0.00  0.00    +0.210 HD
ENDBRANCH   1  14
BRANCH   6  16
ATOM     16  C   LIG A   1      -9.263  -2.366 125.045  0.00  0.00    +0.311 C 
ATOM     17  O   LIG A   1      -9.731  -1.366 125.569  0.00  0.00    -0.250 OA
BRANCH  16  18
ATOM     18  O   LIG A   1      -9.877  -2.933 123.989  0.00  0.00    -0.480 OA
ATOM     19  H   LIG A   1     -10.698  -2.410 123.868  0.00  0.00    +0.295 HD
ENDBRANCH  16  18
ENDBRANCH   6  16
BRANCH   1  20
ATOM     20  C   LIG A   1      -7.018  -0.009 129.117  0.00  0.00    +0.190 C 
BRANCH  20  21
ATOM     21  O   LIG A   1      -8.194   0.704 129.476  0.00  0.00    -0.392 OA
ATOM     22  H   LIG A   1      -7.969   1.650 129.437  0.00  0.00    +0.209 HD
ENDBRANCH  20  21
ENDBRANCH   1  20
TORSDOF 5
ENDMDL
MODEL 2
REMARK VINA RESULT:      -6.6      3.841      6.247
REMARK  Name = NuBBE_614
REMARK  7 active torsions:
REMARK  status: ('A' for Active; 'I' for Inactive)
REMARK    1  A    between atoms: O_1  and  C_2
REMARK    2  A    between atoms: C_2  and  C_3
REMARK    3  A    between atoms: C_3  and  O_4
REMARK    4  A    between atoms: C_10  and  C_11
REMARK    5  A    between atoms: C_11  and  O_12
REMARK    6  A    between atoms: C_15  and  C_16
REMARK    7  A    between atoms: C_15  and  C_17
REMARK                            x       y       z     vdW  Elec       q    Type
REMARK                         _______ _______ _______ _____ _____    ______ ____
ROOT
ATOM      1  C   LIG A   1      -9.265   1.204 123.732  0.00  0.00    +0.092 C 
ATOM      2  C   LIG A   1      -7.915   1.741 123.222  0.00  0.00    +0.027 C 
ATOM      3  C   LIG A   1      -7.751   3.051 122.425  0.00  0.00    +0.008 C 
ATOM      4  C   LIG A   1      -6.405   3.674 122.946  0.00  0.00    +0.019 C 
ATOM      5  C   LIG A   1      -6.950   1.951 124.356  0.00  0.00    +0.015 C 
ATOM      6  C   LIG A   1      -6.499   3.397 124.442  0.00  0.00    +0.071 C 
ATOM      7  C   LIG A   1      -5.354   3.159 125.449  0.00  0.00    +0.025 C 
ATOM      8  C   LIG A   1      -5.927   2.018 126.439  0.00  0.00    -0.031 C 
ATOM      9  C   LIG A   1      -6.192   2.604 127.832  0.00  0.00    +0.011 C 
ATOM     10  C   LIG A   1      -4.913   0.874 126.574  0.00  0.00    +0.011 C 
ATOM     11  C   LIG A   1      -7.273   1.575 125.769  0.00  0.00    -0.001 C 
ATOM     12  C   LIG A   1      -7.810   0.159 125.738  0.00  0.00    +0.007 C 
ATOM     13  C   LIG A   1      -9.028   0.036 124.766  0.00  0.00    +0.037 C 
ENDROOT
BRANCH   1  14
ATOM     14  O   LIG A   1     -10.062   2.210 124.368  0.00  0.00    -0.386 OA
ATOM     15  H   LIG A   1     -10.979   1.895 124.505  0.00  0.00    +0.210 HD
ENDBRANCH   1  14
BRANCH   6  16
ATOM     16  C   LIG A   1      -7.459   4.444 125.010  0.00  0.00    +0.311 C 
ATOM     17  O   LIG A   1      -8.617   4.269 125.359  0.00  0.00    -0.250 OA
BRANCH  16  18
ATOM     18  O   LIG A   1      -6.928   5.682 125.005  0.00  0.00    -0.480 OA
ATOM     19  H   LIG A   1      -7.521   6.209 125.583  0.00  0.00    +0.295 HD
ENDBRANCH  16  18
ENDBRANCH   6  16
BRANCH   1  20
ATOM     20  C   LIG A   1     -10.135   0.703 122.557  0.00  0.00    +0.190 C 
BRANCH  20  21
ATOM     21  O   LIG A   1     -11.522   0.707 122.870  0.00  0.00    -0.392 OA
ATOM     22  H   LIG A   1     -11.644   0.072 123.598  0.00  0.00    +0.209 HD
ENDBRANCH  20  21
ENDBRANCH   1  20
TORSDOF 5
ENDMDL
MODEL 3
REMARK VINA RESULT:      -6.4      1.396      4.933
REMARK  Name = NuBBE_614
REMARK  7 active torsions:
REMARK  status: ('A' for Active; 'I' for Inactive)
REMARK    1  A    between atoms: O_1  and  C_2
REMARK    2  A    between atoms: C_2  and  C_3
REMARK    3  A    between atoms: C_3  and  O_4
REMARK    4  A    between atoms: C_10  and  C_11
REMARK    5  A    between atoms: C_11  and  O_12
REMARK    6  A    between atoms: C_15  and  C_16
REMARK    7  A    between atoms: C_15  and  C_17
REMARK                            x       y       z     vdW  Elec       q    Type
REMARK                         _______ _______ _______ _____ _____    ______ ____
ROOT
ATOM      1  C   LIG A   1      -8.773  -2.275 125.121  0.00  0.00    +0.092 C 
ATOM      2  C   LIG A   1      -7.263  -2.161 125.395  0.00  0.00    +0.027 C 
ATOM      3  C   LIG A   1      -6.383  -0.988 124.914  0.00  0.00    +0.008 C 
ATOM      4  C   LIG A   1      -5.366  -0.740 126.087  0.00  0.00    +0.019 C 
ATOM      5  C   LIG A   1      -6.975  -2.174 126.870  0.00  0.00    +0.015 C 
ATOM      6  C   LIG A   1      -6.262  -0.908 127.309  0.00  0.00    +0.071 C 
ATOM      7  C   LIG A   1      -5.881  -1.406 128.719  0.00  0.00    +0.025 C 
ATOM      8  C   LIG A   1      -7.149  -2.294 129.182  0.00  0.00    -0.031 C 
ATOM      9  C   LIG A   1      -7.906  -1.590 130.317  0.00  0.00    +0.011 C 
ATOM     10  C   LIG A   1      -6.682  -3.667 129.684  0.00  0.00    +0.011 C 
ATOM     11  C   LIG A   1      -8.044  -2.376 127.898  0.00  0.00    -0.001 C 
ATOM     12  C   LIG A   1      -8.848  -3.586 127.469  0.00  0.00    +0.007 C 
ATOM     13  C   LIG A   1      -9.402  -3.411 126.017  0.00  0.00    +0.037 C 
ENDROOT
BRANCH   1  14
ATOM     14  O   LIG A   1      -9.482  -1.057 125.381  0.00  0.00    -0.386 OA
ATOM     15  H   LIG A   1     -10.158  -0.892 124.692  0.00  0.00    +0.210 HD
ENDBRANCH   1  14
BRANCH   6  16
ATOM     16  C   LIG A   1      -7.060   0.392 127.433  0.00  0.00    +0.311 C 
ATOM     17  O   LIG A   1      -8.274   0.519 127.371  0.00  0.00    -0.250 OA
BRANCH  16  18
ATOM     18  O   LIG A   1      -6.265   1.474 127.526  0.00  0.00    -0.480 OA
ATOM     19  H   LIG A   1      -6.821   2.155 127.961  0.00  0.00    +0.295 HD
ENDBRANCH  16  18
ENDBRANCH   6  16
BRANCH   1  20
ATOM     20  C   LIG A   1      -9.040  -2.570 123.627  0.00  0.00    +0.190 C 
BRANCH  20  21
ATOM     21  O   LIG A   1     -10.139  -3.452 123.437  0.00  0.00    -0.392 OA
ATOM     22  H   LIG A   1     -10.210  -3.605 122.479  0.00  0.00    +0.209 HD
ENDBRANCH  20  21
ENDBRANCH   1  20
TORSDOF 5
ENDMDL
MODEL 4
REMARK VINA RESULT:      -6.1      3.196      4.753
REMARK  Name = NuBBE_614
REMARK  7 active torsions:
REMARK  status: ('A' for Active; 'I' for Inactive)
REMARK    1  A    between atoms: O_1  and  C_2
REMARK    2  A    between atoms: C_2  and  C_3
REMARK    3  A    between atoms: C_3  and  O_4
REMARK    4  A    between atoms: C_10  and  C_11
REMARK    5  A    between atoms: C_11  and  O_12
REMARK    6  A    between atoms: C_15  and  C_16
REMARK    7  A    between atoms: C_15  and  C_17
REMARK                            x       y       z     vdW  Elec       q    Type
REMARK                         _______ _______ _______ _____ _____    ______ ____
ROOT
ATOM      1  C   LIG A   1      -7.544  -1.638 124.828  0.00  0.00    +0.092 C 
ATOM      2  C   LIG A   1      -8.033  -1.062 123.487  0.00  0.00    +0.027 C 
ATOM      3  C   LIG A   1      -9.421  -1.349 122.877  0.00  0.00    +0.008 C 
ATOM      4  C   LIG A   1      -9.858   0.007 122.213  0.00  0.00    +0.019 C 
ATOM      5  C   LIG A   1      -8.011   0.442 123.501  0.00  0.00    +0.015 C 
ATOM      6  C   LIG A   1      -9.392   1.021 123.253  0.00  0.00    +0.071 C 
ATOM      7  C   LIG A   1      -8.931   2.476 123.036  0.00  0.00    +0.025 C 
ATOM      8  C   LIG A   1      -7.718   2.669 124.086  0.00  0.00    -0.031 C 
ATOM      9  C   LIG A   1      -8.133   3.627 125.211  0.00  0.00    +0.011 C 
ATOM     10  C   LIG A   1      -6.488   3.251 123.377  0.00  0.00    +0.011 C 
ATOM     11  C   LIG A   1      -7.478   1.229 124.657  0.00  0.00    -0.001 C 
ATOM     12  C   LIG A   1      -6.127   0.641 125.007  0.00  0.00    +0.007 C 
ATOM     13  C   LIG A   1      -6.233  -0.893 125.293  0.00  0.00    +0.037 C 
ENDROOT
BRANCH   1  14
ATOM     14  O   LIG A   1      -8.517  -1.525 125.873  0.00  0.00    -0.386 OA
ATOM     15  H   LIG A   1      -9.418  -1.424 125.503  0.00  0.00    +0.210 HD
ENDBRANCH   1  14
BRANCH   6  16
ATOM     16  C   LIG A   1     -10.428   0.982 124.378  0.00  0.00    +0.311 C 
ATOM     17  O   LIG A   1     -10.264   0.573 125.518  0.00  0.00    -0.250 OA
BRANCH  16  18
ATOM     18  O   LIG A   1     -11.649   1.370 123.963  0.00  0.00    -0.480 OA
ATOM     19  H   LIG A   1     -12.050   0.562 123.579  0.00  0.00    +0.295 HD
ENDBRANCH  16  18
ENDBRANCH   6  16
BRANCH   1  20
ATOM     20  C   LIG A   1      -7.276  -3.156 124.708  0.00  0.00    +0.190 C 
BRANCH  20  21
ATOM     21  O   LIG A   1      -6.066  -3.438 124.015  0.00  0.00    -0.392 OA
ATOM     22  H   LIG A   1      -5.557  -2.609 123.994  0.00  0.00    +0.209 HD
ENDBRANCH  20  21
ENDBRANCH   1  20
TORSDOF 5
ENDMDL
MODEL 5
REMARK VINA RESULT:      -6.0      2.211      4.743
REMARK  Name = NuBBE_614
REMARK  7 active torsions:
REMARK  status: ('A' for Active; 'I' for Inactive)
REMARK    1  A    between atoms: O_1  and  C_2
REMARK    2  A    between atoms: C_2  and  C_3
REMARK    3  A    between atoms: C_3  and  O_4
REMARK    4  A    between atoms: C_10  and  C_11
REMARK    5  A    between atoms: C_11  and  O_12
REMARK    6  A    between atoms: C_15  and  C_16
REMARK    7  A    between atoms: C_15  and  C_17
REMARK                            x       y       z     vdW  Elec       q    Type
REMARK                         _______ _______ _______ _____ _____    ______ ____
ROOT
ATOM      1  C   LIG A   1      -8.168  -2.641 125.034  0.00  0.00    +0.092 C 
ATOM      2  C   LIG A   1      -8.789  -2.721 126.440  0.00  0.00    +0.027 C 
ATOM      3  C   LIG A   1      -8.589  -3.907 127.407  0.00  0.00    +0.008 C 
ATOM      4  C   LIG A   1      -8.484  -3.252 128.832  0.00  0.00    +0.019 C 
ATOM      5  C   LIG A   1      -8.361  -1.559 127.292  0.00  0.00    +0.015 C 
ATOM      6  C   LIG A   1      -7.633  -2.021 128.540  0.00  0.00    +0.071 C 
ATOM      7  C   LIG A   1      -7.640  -0.656 129.258  0.00  0.00    +0.025 C 
ATOM      8  C   LIG A   1      -7.426   0.418 128.071  0.00  0.00    -0.031 C 
ATOM      9  C   LIG A   1      -6.040   1.070 128.184  0.00  0.00    +0.011 C 
ATOM     10  C   LIG A   1      -8.492   1.520 128.151  0.00  0.00    +0.011 C 
ATOM     11  C   LIG A   1      -7.520  -0.439 126.762  0.00  0.00    -0.001 C 
ATOM     12  C   LIG A   1      -8.154   0.014 125.463  0.00  0.00    +0.007 C 
ATOM     13  C   LIG A   1      -8.309  -1.177 124.462  0.00  0.00    +0.037 C 
ENDROOT
BRANCH   1  14
ATOM     14  O   LIG A   1      -6.781  -2.997 125.014  0.00  0.00    -0.386 OA
ATOM     15  H   LIG A   1      -6.445  -3.146 125.922  0.00  0.00    +0.210 HD
ENDBRANCH   1  14
BRANCH   6  16
ATOM     16  C   LIG A   1      -6.191  -2.519 128.420  0.00  0.00    +0.311 C 
ATOM     17  O   LIG A   1      -5.453  -2.412 127.452  0.00  0.00    -0.250 OA
BRANCH  16  18
ATOM     18  O   LIG A   1      -5.799  -3.220 129.502  0.00  0.00    -0.480 OA
ATOM     19  H   LIG A   1      -4.824  -3.115 129.526  0.00  0.00    +0.295 HD
ENDBRANCH  16  18
ENDBRANCH   6  16
BRANCH   1  20
ATOM     20  C   LIG A   1      -8.843  -3.650 124.078  0.00  0.00    +0.190 C 
BRANCH  20  21
ATOM     21  O   LIG A   1     -10.081  -3.169 123.569  0.00  0.00    -0.392 OA
ATOM     22  H   LIG A   1     -10.183  -2.259 123.898  0.00  0.00    +0.209 HD
ENDBRANCH  20  21
ENDBRANCH   1  20
TORSDOF 5
ENDMDL
MODEL 6
REMARK VINA RESULT:      -5.9      2.599      3.971
REMARK  Name = NuBBE_614
REMARK  7 active torsions:
REMARK  status: ('A' for Active; 'I' for Inactive)
REMARK    1  A    between atoms: O_1  and  C_2
REMARK    2  A    between atoms: C_2  and  C_3
REMARK    3  A    between atoms: C_3  and  O_4
REMARK    4  A    between atoms: C_10  and  C_11
REMARK    5  A    between atoms: C_11  and  O_12
REMARK    6  A    between atoms: C_15  and  C_16
REMARK    7  A    between atoms: C_15  and  C_17
REMARK                            x       y       z     vdW  Elec       q    Type
REMARK                         _______ _______ _______ _____ _____    ______ ____
ROOT
ATOM      1  C   LIG A   1      -8.181   2.282 125.023  0.00  0.00    +0.092 C 
ATOM      2  C   LIG A   1      -6.885   1.477 124.815  0.00  0.00    +0.027 C 
ATOM      3  C   LIG A   1      -5.779   1.328 125.881  0.00  0.00    +0.008 C 
ATOM      4  C   LIG A   1      -5.267  -0.150 125.725  0.00  0.00    +0.019 C 
ATOM      5  C   LIG A   1      -7.183   0.042 124.482  0.00  0.00    +0.015 C 
ATOM      6  C   LIG A   1      -6.573  -0.905 125.499  0.00  0.00    +0.071 C 
ATOM      7  C   LIG A   1      -6.807  -2.198 124.692  0.00  0.00    +0.025 C 
ATOM      8  C   LIG A   1      -8.235  -1.964 123.974  0.00  0.00    -0.031 C 
ATOM      9  C   LIG A   1      -9.296  -2.893 124.582  0.00  0.00    +0.011 C 
ATOM     10  C   LIG A   1      -8.130  -2.259 122.472  0.00  0.00    +0.011 C 
ATOM     11  C   LIG A   1      -8.578  -0.467 124.288  0.00  0.00    -0.001 C 
ATOM     12  C   LIG A   1      -9.270   0.489 123.340  0.00  0.00    +0.007 C 
ATOM     13  C   LIG A   1      -9.210   1.958 123.872  0.00  0.00    +0.037 C 
ENDROOT
BRANCH   1  14
ATOM     14  O   LIG A   1      -8.813   2.008 126.279  0.00  0.00    -0.386 OA
ATOM     15  H   LIG A   1      -8.781   1.051 126.485  0.00  0.00    +0.210 HD
ENDBRANCH   1  14
BRANCH   6  16
ATOM     16  C   LIG A   1      -7.228  -1.043 126.875  0.00  0.00    +0.311 C 
ATOM     17  O   LIG A   1      -8.262  -0.516 127.254  0.00  0.00    -0.250 OA
BRANCH  16  18
ATOM     18  O   LIG A   1      -6.476  -1.762 127.730  0.00  0.00    -0.480 OA
ATOM     19  H   LIG A   1      -6.866  -1.586 128.613  0.00  0.00    +0.295 HD
ENDBRANCH  16  18
ENDBRANCH   6  16
BRANCH   1  20
ATOM     20  C   LIG A   1      -7.885   3.798 125.058  0.00  0.00    +0.190 C 
BRANCH  20  21
ATOM     21  O   LIG A   1      -9.012   4.560 125.472  0.00  0.00    -0.392 OA
ATOM     22  H   LIG A   1      -8.948   4.649 126.439  0.00  0.00    +0.209 HD
ENDBRANCH  20  21
ENDBRANCH   1  20
TORSDOF 5
ENDMDL
MODEL 7
REMARK VINA RESULT:      -5.9      7.196      9.748
REMARK  Name = NuBBE_614
REMARK  7 active torsions:
REMARK  status: ('A' for Active; 'I' for Inactive)
REMARK    1  A    between atoms: O_1  and  C_2
REMARK    2  A    between atoms: C_2  and  C_3
REMARK    3  A    between atoms: C_3  and  O_4
REMARK    4  A    between atoms: C_10  and  C_11
REMARK    5  A    between atoms: C_11  and  O_12
REMARK    6  A    between atoms: C_15  and  C_16
REMARK    7  A    between atoms: C_15  and  C_17
REMARK                            x       y       z     vdW  Elec       q    Type
REMARK                         _______ _______ _______ _____ _____    ______ ____
ROOT
ATOM      1  C   LIG A   1     -11.005   5.353 130.566  0.00  0.00    +0.092 C 
ATOM      2  C   LIG A   1      -9.551   5.751 130.254  0.00  0.00    +0.027 C 
ATOM      3  C   LIG A   1      -8.922   7.103 130.649  0.00  0.00    +0.008 C 
ATOM      4  C   LIG A   1      -7.443   6.756 131.054  0.00  0.00    +0.019 C 
ATOM      5  C   LIG A   1      -8.578   4.774 130.855  0.00  0.00    +0.015 C 
ATOM      6  C   LIG A   1      -7.635   5.456 131.828  0.00  0.00    +0.071 C 
ATOM      7  C   LIG A   1      -6.656   4.273 131.976  0.00  0.00    +0.025 C 
ATOM      8  C   LIG A   1      -7.606   2.966 131.939  0.00  0.00    -0.031 C 
ATOM      9  C   LIG A   1      -7.645   2.296 133.319  0.00  0.00    +0.011 C 
ATOM     10  C   LIG A   1      -7.076   1.952 130.917  0.00  0.00    +0.011 C 
ATOM     11  C   LIG A   1      -9.020   3.535 131.570  0.00  0.00    -0.001 C 
ATOM     12  C   LIG A   1     -10.033   2.848 130.678  0.00  0.00    +0.007 C 
ATOM     13  C   LIG A   1     -11.210   3.809 130.312  0.00  0.00    +0.037 C 
ENDROOT
BRANCH   1  14
ATOM     14  O   LIG A   1     -11.386   5.638 131.917  0.00  0.00    -0.386 OA
ATOM     15  H   LIG A   1     -11.148   6.556 132.161  0.00  0.00    +0.210 HD
ENDBRANCH   1  14
BRANCH   6  16
ATOM     16  C   LIG A   1      -8.152   5.858 133.211  0.00  0.00    +0.311 C 
ATOM     17  O   LIG A   1      -9.251   6.319 133.480  0.00  0.00    -0.250 OA
BRANCH  16  18
ATOM     18  O   LIG A   1      -7.206   5.749 134.164  0.00  0.00    -0.480 OA
ATOM     19  H   LIG A   1      -6.481   5.244 133.738  0.00  0.00    +0.295 HD
ENDBRANCH  16  18
ENDBRANCH   6  16
BRANCH   1  20
ATOM     20  C   LIG A   1     -11.994   6.167 129.702  0.00  0.00    +0.190 C 
BRANCH  20  21
ATOM     21  O   LIG A   1     -11.548   6.313 128.359  0.00  0.00    -0.392 OA
ATOM     22  H   LIG A   1     -11.674   5.449 127.929  0.00  0.00    +0.209 HD
ENDBRANCH  20  21
ENDBRANCH   1  20
TORSDOF 5
ENDMDL
MODEL 8
REMARK VINA RESULT:      -5.9      6.578      9.989
REMARK  Name = NuBBE_614
REMARK  7 active torsions:
REMARK  status: ('A' for Active; 'I' for Inactive)
REMARK    1  A    between atoms: O_1  and  C_2
REMARK    2  A    between atoms: C_2  and  C_3
REMARK    3  A    between atoms: C_3  and  O_4
REMARK    4  A    between atoms: C_10  and  C_11
REMARK    5  A    between atoms: C_11  and  O_12
REMARK    6  A    between atoms: C_15  and  C_16
REMARK    7  A    between atoms: C_15  and  C_17
REMARK                            x       y       z     vdW  Elec       q    Type
REMARK                         _______ _______ _______ _____ _____    ______ ____
ROOT
ATOM      1  C   LIG A   1      -4.470   3.414 128.839  0.00  0.00    +0.092 C 
ATOM      2  C   LIG A   1      -3.225   4.303 128.665  0.00  0.00    +0.027 C 
ATOM      3  C   LIG A   1      -3.123   5.456 127.645  0.00  0.00    +0.008 C 
ATOM      4  C   LIG A   1      -2.303   6.576 128.384  0.00  0.00    +0.019 C 
ATOM      5  C   LIG A   1      -2.869   4.998 129.949  0.00  0.00    +0.015 C 
ATOM      6  C   LIG A   1      -2.891   6.507 129.790  0.00  0.00    +0.071 C 
ATOM      7  C   LIG A   1      -2.207   6.831 131.134  0.00  0.00    +0.025 C 
ATOM      8  C   LIG A   1      -2.791   5.722 132.153  0.00  0.00    -0.031 C 
ATOM      9  C   LIG A   1      -3.721   6.379 133.182  0.00  0.00    +0.011 C 
ATOM     10  C   LIG A   1      -1.642   5.032 132.903  0.00  0.00    +0.011 C 
ATOM     11  C   LIG A   1      -3.600   4.747 131.231  0.00  0.00    -0.001 C 
ATOM     12  C   LIG A   1      -3.683   3.245 131.406  0.00  0.00    +0.007 C 
ATOM     13  C   LIG A   1      -4.349   2.566 130.164  0.00  0.00    +0.037 C 
ENDROOT
BRANCH   1  14
ATOM     14  O   LIG A   1      -5.689   4.165 128.898  0.00  0.00    -0.386 OA
ATOM     15  H   LIG A   1      -6.090   4.251 128.009  0.00  0.00    +0.210 HD
ENDBRANCH   1  14
BRANCH   6  16
ATOM     16  C   LIG A   1      -4.239   7.229 129.723  0.00  0.00    +0.311 C 
ATOM     17  O   LIG A   1      -5.334   6.773 130.013  0.00  0.00    -0.250 OA
BRANCH  16  18
ATOM     18  O   LIG A   1      -4.133   8.462 129.191  0.00  0.00    -0.480 OA
ATOM     19  H   LIG A   1      -3.170   8.596 129.062  0.00  0.00    +0.295 HD
ENDBRANCH  16  18
ENDBRANCH   6  16
BRANCH   1  20
ATOM     20  C   LIG A   1      -4.649   2.475 127.624  0.00  0.00    +0.190 C 
BRANCH  20  21
ATOM     21  O   LIG A   1      -3.406   2.018 127.106  0.00  0.00    -0.392 OA
ATOM     22  H   LIG A   1      -3.400   2.244 126.159  0.00  0.00    +0.209 HD
ENDBRANCH  20  21
ENDBRANCH   1  20
TORSDOF 5
ENDMDL
MODEL 9
REMARK VINA RESULT:      -5.8      1.991      4.827
REMARK  Name = NuBBE_614
REMARK  7 active torsions:
REMARK  status: ('A' for Active; 'I' for Inactive)
REMARK    1  A    between atoms: O_1  and  C_2
REMARK    2  A    between atoms: C_2  and  C_3
REMARK    3  A    between atoms: C_3  and  O_4
REMARK    4  A    between atoms: C_10  and  C_11
REMARK    5  A    between atoms: C_11  and  O_12
REMARK    6  A    between atoms: C_15  and  C_16
REMARK    7  A    between atoms: C_15  and  C_17
REMARK                            x       y       z     vdW  Elec       q    Type
REMARK                         _______ _______ _______ _____ _____    ______ ____
ROOT
ATOM      1  C   LIG A   1      -8.624  -2.386 125.217  0.00  0.00    +0.092 C 
ATOM      2  C   LIG A   1      -7.692  -1.319 124.616  0.00  0.00    +0.027 C 
ATOM      3  C   LIG A   1      -8.062  -0.425 123.414  0.00  0.00    +0.008 C 
ATOM      4  C   LIG A   1      -7.430   0.976 123.745  0.00  0.00    +0.019 C 
ATOM      5  C   LIG A   1      -7.298  -0.298 125.646  0.00  0.00    +0.015 C 
ATOM      6  C   LIG A   1      -7.724   1.100 125.236  0.00  0.00    +0.071 C 
ATOM      7  C   LIG A   1      -6.915   1.849 126.315  0.00  0.00    +0.025 C 
ATOM      8  C   LIG A   1      -7.013   0.896 127.617  0.00  0.00    -0.031 C 
ATOM      9  C   LIG A   1      -7.880   1.557 128.697  0.00  0.00    +0.011 C 
ATOM     10  C   LIG A   1      -5.615   0.645 128.198  0.00  0.00    +0.011 C 
ATOM     11  C   LIG A   1      -7.704  -0.405 127.083  0.00  0.00    -0.001 C 
ATOM     12  C   LIG A   1      -7.378  -1.815 127.531  0.00  0.00    +0.007 C 
ATOM     13  C   LIG A   1      -8.062  -2.875 126.608  0.00  0.00    +0.037 C 
ENDROOT
BRANCH   1  14
ATOM     14  O   LIG A   1      -9.961  -1.912 125.416  0.00  0.00    -0.386 OA
ATOM     15  H   LIG A   1      -9.961  -0.980 125.717  0.00  0.00    +0.210 HD
ENDBRANCH   1  14
BRANCH   6  16
ATOM     16  C   LIG A   1      -9.198   1.492 125.348  0.00  0.00    +0.311 C 
ATOM     17  O   LIG A   1     -10.123   0.783 125.714  0.00  0.00    -0.250 OA
BRANCH  16  18
ATOM     18  O   LIG A   1      -9.434   2.737 124.890  0.00  0.00    -0.480 OA
ATOM     19  H   LIG A   1     -10.406   2.848 124.959  0.00  0.00    +0.295 HD
ENDBRANCH  16  18
ENDBRANCH   6  16
BRANCH   1  20
ATOM     20  C   LIG A   1      -8.776  -3.587 124.255  0.00  0.00    +0.190 C 
BRANCH  20  21
ATOM     21  O   LIG A   1     -10.009  -3.561 123.547  0.00  0.00    -0.392 OA
ATOM     22  H   LIG A   1     -10.704  -3.389 124.205  0.00  0.00    +0.209 HD
ENDBRANCH  20  21
ENDBRANCH   1  20
TORSDOF 5
ENDMDL
