MODEL 1
REMARK VINA RESULT:      -8.1      0.000      0.000
REMARK  Name = NuBBE_2329
REMARK  18 active torsions:
REMARK  status: ('A' for Active; 'I' for Inactive)
REMARK    1  A    between atoms: O_1  and  C_2
REMARK    2  A    between atoms: C_4  and  C_5
REMARK    3  A    between atoms: C_5  and  C_6
REMARK    4  A    between atoms: C_6  and  C_7
REMARK    5  A    between atoms: C_7  and  C_8
REMARK    6  A    between atoms: C_9  and  O_10
REMARK    7  A    between atoms: C_11  and  C_12
REMARK    8  A    between atoms: C_12  and  C_13
REMARK    9  A    between atoms: C_14  and  C_15
REMARK   10  A    between atoms: C_14  and  C_16
REMARK   11  A    between atoms: C_17  and  O_18
REMARK   12  A    between atoms: C_20  and  O_21
REMARK   13  A    between atoms: C_24  and  C_25
REMARK   14  A    between atoms: C_25  and  C_26
REMARK   15  A    between atoms: C_27  and  C_28
REMARK   16  A    between atoms: C_27  and  C_29
REMARK   17  A    between atoms: C_30  and  O_31
REMARK   18  A    between atoms: O_31  and  C_32
REMARK                            x       y       z     vdW  Elec       q    Type
REMARK                         _______ _______ _______ _____ _____    ______ ____
ROOT
ATOM      1  C   LIG A   1      -9.404  -1.317 123.246  0.00  0.00    +0.171 C 
ATOM      2  O   LIG A   1     -10.052  -2.254 122.792  0.00  0.00    -0.292 OA
ENDROOT
BRANCH   1   3
ATOM      3  C   LIG A   1      -8.356  -1.622 124.271  0.00  0.00    +0.101 A 
ATOM      4  C   LIG A   1      -8.749  -2.281 125.460  0.00  0.00    +0.138 A 
ATOM      5  C   LIG A   1      -7.823  -2.618 126.471  0.00  0.00    +0.040 A 
ATOM      6  C   LIG A   1      -6.483  -2.262 126.262  0.00  0.00    +0.127 A 
ATOM      7  C   LIG A   1      -6.079  -1.606 125.098  0.00  0.00    +0.092 A 
ATOM      8  C   LIG A   1      -7.011  -1.283 124.110  0.00  0.00    +0.134 A 
BRANCH   4   9
ATOM      9  O   LIG A   1     -10.061  -2.640 125.678  0.00  0.00    -0.505 OA
ATOM     10  H   LIG A   1     -10.552  -2.558 124.830  0.00  0.00    +0.292 HD
ENDBRANCH   4   9
BRANCH   6  11
ATOM     11  O   LIG A   1      -5.477  -2.516 127.152  0.00  0.00    -0.506 OA
ATOM     12  H   LIG A   1      -4.647  -2.118 126.848  0.00  0.00    +0.292 HD
ENDBRANCH   6  11
BRANCH   8  13
ATOM     13  O   LIG A   1      -6.579  -0.607 123.004  0.00  0.00    -0.506 OA
ATOM     14  H   LIG A   1      -7.161  -0.813 122.251  0.00  0.00    +0.292 HD
ENDBRANCH   8  13
BRANCH   5  15
ATOM     15  C   LIG A   1      -8.283  -3.395 127.692  0.00  0.00    +0.069 C 
BRANCH  15  16
ATOM     16  C   LIG A   1      -8.244  -2.563 128.951  0.00  0.00    -0.023 C 
ATOM     17  C   LIG A   1      -7.478  -2.760 130.044  0.00  0.00    -0.079 C 
ATOM     18  C   LIG A   1      -6.513  -3.897 130.236  0.00  0.00    +0.038 C 
ATOM     19  C   LIG A   1      -7.543  -1.810 131.212  0.00  0.00    +0.038 C 
ENDBRANCH  15  16
ENDBRANCH   5  15
ENDBRANCH   1   3
BRANCH   1  20
ATOM     20  C   LIG A   1      -9.597   0.106 122.752  0.00  0.00    +0.084 C 
BRANCH  20  21
ATOM     21  C   LIG A   1      -9.972   1.038 123.909  0.00  0.00    +0.043 C 
BRANCH  21  24
ATOM     22  C   LIG A   1      -7.527   3.311 125.759  0.00  0.00    +0.159 A 
ATOM     23  C   LIG A   1      -8.613   2.467 125.493  0.00  0.00    +0.052 A 
ATOM     24  C   LIG A   1      -8.856   2.011 124.198  0.00  0.00    -0.043 A 
ATOM     25  C   LIG A   1      -8.006   2.426 123.173  0.00  0.00    +0.011 A 
ATOM     26  C   LIG A   1      -6.901   3.264 123.420  0.00  0.00    +0.002 A 
ATOM     27  C   LIG A   1      -6.646   3.705 124.736  0.00  0.00    +0.165 A 
BRANCH  22  28
ATOM     28  O   LIG A   1      -7.360   3.731 127.052  0.00  0.00    -0.503 OA
ATOM     29  H   LIG A   1      -7.277   4.698 127.063  0.00  0.00    +0.292 HD
ENDBRANCH  22  28
BRANCH  27  30
ATOM     30  O   LIG A   1      -5.519   4.475 124.868  0.00  0.00    -0.491 OA
ATOM     31  C   LIG A   1      -4.400   3.943 125.559  0.00  0.00    +0.277 C 
ENDBRANCH  27  30
BRANCH  26  32
ATOM     32  C   LIG A   1      -6.029   3.663 122.243  0.00  0.00    +0.066 C 
BRANCH  32  33
ATOM     33  C   LIG A   1      -6.781   3.735 120.939  0.00  0.00    -0.023 C 
ATOM     34  C   LIG A   1      -6.499   4.483 119.853  0.00  0.00    -0.079 C 
ATOM     35  C   LIG A   1      -5.303   5.381 119.703  0.00  0.00    +0.038 C 
ATOM     36  C   LIG A   1      -7.391   4.446 118.640  0.00  0.00    +0.038 C 
ENDBRANCH  32  33
ENDBRANCH  26  32
ENDBRANCH  21  24
ENDBRANCH  20  21
ENDBRANCH   1  20
TORSDOF 13
ENDMDL
MODEL 2
REMARK VINA RESULT:      -7.7      2.017      7.879
REMARK  Name = NuBBE_2329
REMARK  18 active torsions:
REMARK  status: ('A' for Active; 'I' for Inactive)
REMARK    1  A    between atoms: O_1  and  C_2
REMARK    2  A    between atoms: C_4  and  C_5
REMARK    3  A    between atoms: C_5  and  C_6
REMARK    4  A    between atoms: C_6  and  C_7
REMARK    5  A    between atoms: C_7  and  C_8
REMARK    6  A    between atoms: C_9  and  O_10
REMARK    7  A    between atoms: C_11  and  C_12
REMARK    8  A    between atoms: C_12  and  C_13
REMARK    9  A    between atoms: C_14  and  C_15
REMARK   10  A    between atoms: C_14  and  C_16
REMARK   11  A    between atoms: C_17  and  O_18
REMARK   12  A    between atoms: C_20  and  O_21
REMARK   13  A    between atoms: C_24  and  C_25
REMARK   14  A    between atoms: C_25  and  C_26
REMARK   15  A    between atoms: C_27  and  C_28
REMARK   16  A    between atoms: C_27  and  C_29
REMARK   17  A    between atoms: C_30  and  O_31
REMARK   18  A    between atoms: O_31  and  C_32
REMARK                            x       y       z     vdW  Elec       q    Type
REMARK                         _______ _______ _______ _____ _____    ______ ____
ROOT
ATOM      1  C   LIG A   1      -5.834   4.545 126.024  0.00  0.00    +0.171 C 
ATOM      2  O   LIG A   1      -5.548   5.738 126.029  0.00  0.00    -0.292 OA
ENDROOT
BRANCH   1   3
ATOM      3  C   LIG A   1      -6.600   4.014 124.852  0.00  0.00    +0.101 A 
ATOM      4  C   LIG A   1      -5.922   3.858 123.620  0.00  0.00    +0.138 A 
ATOM      5  C   LIG A   1      -6.565   3.351 122.469  0.00  0.00    +0.040 A 
ATOM      6  C   LIG A   1      -7.921   3.014 122.586  0.00  0.00    +0.127 A 
ATOM      7  C   LIG A   1      -8.607   3.167 123.792  0.00  0.00    +0.092 A 
ATOM      8  C   LIG A   1      -7.951   3.669 124.917  0.00  0.00    +0.134 A 
BRANCH   4   9
ATOM      9  O   LIG A   1      -4.589   4.182 123.491  0.00  0.00    -0.505 OA
ATOM     10  H   LIG A   1      -4.335   4.761 124.245  0.00  0.00    +0.292 HD
ENDBRANCH   4   9
BRANCH   6  11
ATOM     11  O   LIG A   1      -8.676   2.519 121.559  0.00  0.00    -0.506 OA
ATOM     12  H   LIG A   1      -9.423   3.108 121.372  0.00  0.00    +0.292 HD
ENDBRANCH   6  11
BRANCH   8  13
ATOM     13  O   LIG A   1      -8.670   3.839 126.068  0.00  0.00    -0.506 OA
ATOM     14  H   LIG A   1      -9.610   3.657 125.891  0.00  0.00    +0.292 HD
ENDBRANCH   8  13
BRANCH   5  15
ATOM     15  C   LIG A   1      -5.772   3.130 121.193  0.00  0.00    +0.069 C 
BRANCH  15  16
ATOM     16  C   LIG A   1      -5.510   4.418 120.450  0.00  0.00    -0.023 C 
ATOM     17  C   LIG A   1      -6.231   4.945 119.440  0.00  0.00    -0.079 C 
ATOM     18  C   LIG A   1      -7.450   4.320 118.821  0.00  0.00    +0.038 C 
ATOM     19  C   LIG A   1      -5.842   6.265 118.823  0.00  0.00    +0.038 C 
ENDBRANCH  15  16
ENDBRANCH   5  15
ENDBRANCH   1   3
BRANCH   1  20
ATOM     20  C   LIG A   1      -5.382   3.607 127.129  0.00  0.00    +0.084 C 
BRANCH  20  21
ATOM     21  C   LIG A   1      -4.423   2.544 126.584  0.00  0.00    +0.043 C 
BRANCH  21  24
ATOM     22  C   LIG A   1      -5.992  -0.704 127.833  0.00  0.00    +0.159 A 
ATOM     23  C   LIG A   1      -5.331   0.532 127.819  0.00  0.00    +0.052 A 
ATOM     24  C   LIG A   1      -5.061   1.178 126.613  0.00  0.00    -0.043 A 
ATOM     25  C   LIG A   1      -5.448   0.561 125.422  0.00  0.00    +0.011 A 
ATOM     26  C   LIG A   1      -6.125  -0.674 125.414  0.00  0.00    +0.002 A 
ATOM     27  C   LIG A   1      -6.415  -1.314 126.638  0.00  0.00    +0.165 A 
BRANCH  22  28
ATOM     28  O   LIG A   1      -6.209  -1.285 129.053  0.00  0.00    -0.503 OA
ATOM     29  H   LIG A   1      -6.572  -0.621 129.661  0.00  0.00    +0.292 HD
ENDBRANCH  22  28
BRANCH  27  30
ATOM     30  O   LIG A   1      -7.119  -2.484 126.513  0.00  0.00    -0.491 OA
ATOM     31  C   LIG A   1      -8.496  -2.498 126.854  0.00  0.00    +0.277 C 
ENDBRANCH  27  30
BRANCH  26  32
ATOM     32  C   LIG A   1      -6.509  -1.270 124.072  0.00  0.00    +0.066 C 
BRANCH  32  33
ATOM     33  C   LIG A   1      -7.752  -0.657 123.479  0.00  0.00    -0.023 C 
ATOM     34  C   LIG A   1      -8.879  -1.278 123.077  0.00  0.00    -0.079 C 
ATOM     35  C   LIG A   1      -9.150  -2.752 123.198  0.00  0.00    +0.038 C 
ATOM     36  C   LIG A   1     -10.017  -0.496 122.475  0.00  0.00    +0.038 C 
ENDBRANCH  32  33
ENDBRANCH  26  32
ENDBRANCH  21  24
ENDBRANCH  20  21
ENDBRANCH   1  20
TORSDOF 13
ENDMDL
MODEL 3
REMARK VINA RESULT:      -7.5      5.286      8.563
REMARK  Name = NuBBE_2329
REMARK  18 active torsions:
REMARK  status: ('A' for Active; 'I' for Inactive)
REMARK    1  A    between atoms: O_1  and  C_2
REMARK    2  A    between atoms: C_4  and  C_5
REMARK    3  A    between atoms: C_5  and  C_6
REMARK    4  A    between atoms: C_6  and  C_7
REMARK    5  A    between atoms: C_7  and  C_8
REMARK    6  A    between atoms: C_9  and  O_10
REMARK    7  A    between atoms: C_11  and  C_12
REMARK    8  A    between atoms: C_12  and  C_13
REMARK    9  A    between atoms: C_14  and  C_15
REMARK   10  A    between atoms: C_14  and  C_16
REMARK   11  A    between atoms: C_17  and  O_18
REMARK   12  A    between atoms: C_20  and  O_21
REMARK   13  A    between atoms: C_24  and  C_25
REMARK   14  A    between atoms: C_25  and  C_26
REMARK   15  A    between atoms: C_27  and  C_28
REMARK   16  A    between atoms: C_27  and  C_29
REMARK   17  A    between atoms: C_30  and  O_31
REMARK   18  A    between atoms: O_31  and  C_32
REMARK                            x       y       z     vdW  Elec       q    Type
REMARK                         _______ _______ _______ _____ _____    ______ ____
ROOT
ATOM      1  C   LIG A   1      -4.018   6.065 128.505  0.00  0.00    +0.171 C 
ATOM      2  O   LIG A   1      -4.134   7.008 127.729  0.00  0.00    -0.292 OA
ENDROOT
BRANCH   1   3
ATOM      3  C   LIG A   1      -4.196   4.683 127.959  0.00  0.00    +0.101 A 
ATOM      4  C   LIG A   1      -5.492   4.116 127.971  0.00  0.00    +0.138 A 
ATOM      5  C   LIG A   1      -5.750   2.824 127.462  0.00  0.00    +0.040 A 
ATOM      6  C   LIG A   1      -4.662   2.105 126.949  0.00  0.00    +0.127 A 
ATOM      7  C   LIG A   1      -3.375   2.646 126.936  0.00  0.00    +0.092 A 
ATOM      8  C   LIG A   1      -3.142   3.926 127.443  0.00  0.00    +0.134 A 
BRANCH   4   9
ATOM      9  O   LIG A   1      -6.572   4.811 128.469  0.00  0.00    -0.505 OA
ATOM     10  H   LIG A   1      -7.271   4.165 128.717  0.00  0.00    +0.292 HD
ENDBRANCH   4   9
BRANCH   6  11
ATOM     11  O   LIG A   1      -4.755   0.844 126.430  0.00  0.00    -0.506 OA
ATOM     12  H   LIG A   1      -5.671   0.645 126.182  0.00  0.00    +0.292 HD
ENDBRANCH   6  11
BRANCH   8  13
ATOM     13  O   LIG A   1      -1.861   4.402 127.444  0.00  0.00    -0.506 OA
ATOM     14  H   LIG A   1      -1.824   5.229 127.957  0.00  0.00    +0.292 HD
ENDBRANCH   8  13
BRANCH   5  15
ATOM     15  C   LIG A   1      -7.173   2.293 127.426  0.00  0.00    +0.069 C 
BRANCH  15  16
ATOM     16  C   LIG A   1      -7.478   1.388 128.596  0.00  0.00    -0.023 C 
ATOM     17  C   LIG A   1      -8.255   1.659 129.664  0.00  0.00    -0.079 C 
ATOM     18  C   LIG A   1      -8.961   2.962 129.919  0.00  0.00    +0.038 C 
ATOM     19  C   LIG A   1      -8.478   0.624 130.737  0.00  0.00    +0.038 C 
ENDBRANCH  15  16
ENDBRANCH   5  15
ENDBRANCH   1   3
BRANCH   1  20
ATOM     20  C   LIG A   1      -3.643   6.268 129.962  0.00  0.00    +0.084 C 
BRANCH  20  21
ATOM     21  C   LIG A   1      -4.544   7.321 130.616  0.00  0.00    +0.043 C 
BRANCH  21  24
ATOM     22  C   LIG A   1      -6.352   5.404 133.378  0.00  0.00    +0.159 A 
ATOM     23  C   LIG A   1      -5.328   5.943 132.586  0.00  0.00    +0.052 A 
ATOM     24  C   LIG A   1      -5.630   6.668 131.434  0.00  0.00    -0.043 A 
ATOM     25  C   LIG A   1      -6.969   6.831 131.078  0.00  0.00    +0.011 A 
ATOM     26  C   LIG A   1      -8.014   6.310 131.865  0.00  0.00    +0.002 A 
ATOM     27  C   LIG A   1      -7.705   5.595 133.042  0.00  0.00    +0.165 A 
BRANCH  22  28
ATOM     28  O   LIG A   1      -5.980   4.692 134.486  0.00  0.00    -0.503 OA
ATOM     29  H   LIG A   1      -6.377   5.098 135.273  0.00  0.00    +0.292 HD
ENDBRANCH  22  28
BRANCH  27  30
ATOM     30  O   LIG A   1      -8.798   5.176 133.755  0.00  0.00    -0.491 OA
ATOM     31  C   LIG A   1      -9.120   3.793 133.769  0.00  0.00    +0.277 C 
ENDBRANCH  27  30
BRANCH  26  32
ATOM     32  C   LIG A   1      -9.441   6.537 131.401  0.00  0.00    +0.066 C 
BRANCH  32  33
ATOM     33  C   LIG A   1      -9.532   7.254 130.079  0.00  0.00    -0.023 C 
ATOM     34  C   LIG A   1     -10.634   7.727 129.460  0.00  0.00    -0.079 C 
ATOM     35  C   LIG A   1     -12.030   7.680 130.014  0.00  0.00    +0.038 C 
ATOM     36  C   LIG A   1     -10.533   8.396 128.114  0.00  0.00    +0.038 C 
ENDBRANCH  32  33
ENDBRANCH  26  32
ENDBRANCH  21  24
ENDBRANCH  20  21
ENDBRANCH   1  20
TORSDOF 13
ENDMDL
MODEL 4
REMARK VINA RESULT:      -7.5      2.517      5.929
REMARK  Name = NuBBE_2329
REMARK  18 active torsions:
REMARK  status: ('A' for Active; 'I' for Inactive)
REMARK    1  A    between atoms: O_1  and  C_2
REMARK    2  A    between atoms: C_4  and  C_5
REMARK    3  A    between atoms: C_5  and  C_6
REMARK    4  A    between atoms: C_6  and  C_7
REMARK    5  A    between atoms: C_7  and  C_8
REMARK    6  A    between atoms: C_9  and  O_10
REMARK    7  A    between atoms: C_11  and  C_12
REMARK    8  A    between atoms: C_12  and  C_13
REMARK    9  A    between atoms: C_14  and  C_15
REMARK   10  A    between atoms: C_14  and  C_16
REMARK   11  A    between atoms: C_17  and  O_18
REMARK   12  A    between atoms: C_20  and  O_21
REMARK   13  A    between atoms: C_24  and  C_25
REMARK   14  A    between atoms: C_25  and  C_26
REMARK   15  A    between atoms: C_27  and  C_28
REMARK   16  A    between atoms: C_27  and  C_29
REMARK   17  A    between atoms: C_30  and  O_31
REMARK   18  A    between atoms: O_31  and  C_32
REMARK                            x       y       z     vdW  Elec       q    Type
REMARK                         _______ _______ _______ _____ _____    ______ ____
ROOT
ATOM      1  C   LIG A   1      -3.936   3.050 128.051  0.00  0.00    +0.171 C 
ATOM      2  O   LIG A   1      -3.099   3.624 128.741  0.00  0.00    -0.292 OA
ENDROOT
BRANCH   1   3
ATOM      3  C   LIG A   1      -5.244   2.696 128.688  0.00  0.00    +0.101 A 
ATOM      4  C   LIG A   1      -5.505   1.337 128.978  0.00  0.00    +0.138 A 
ATOM      5  C   LIG A   1      -6.707   0.919 129.590  0.00  0.00    +0.040 A 
ATOM      6  C   LIG A   1      -7.653   1.907 129.894  0.00  0.00    +0.127 A 
ATOM      7  C   LIG A   1      -7.415   3.253 129.608  0.00  0.00    +0.092 A 
ATOM      8  C   LIG A   1      -6.219   3.645 129.003  0.00  0.00    +0.134 A 
BRANCH   4   9
ATOM      9  O   LIG A   1      -4.584   0.354 128.689  0.00  0.00    -0.505 OA
ATOM     10  H   LIG A   1      -3.745   0.566 129.156  0.00  0.00    +0.292 HD
ENDBRANCH   4   9
BRANCH   6  11
ATOM     11  O   LIG A   1      -8.861   1.655 130.480  0.00  0.00    -0.506 OA
ATOM     12  H   LIG A   1      -8.766   0.999 131.188  0.00  0.00    +0.292 HD
ENDBRANCH   6  11
BRANCH   8  13
ATOM     13  O   LIG A   1      -6.043   4.967 128.707  0.00  0.00    -0.506 OA
ATOM     14  H   LIG A   1      -5.610   5.411 129.457  0.00  0.00    +0.292 HD
ENDBRANCH   8  13
BRANCH   5  15
ATOM     15  C   LIG A   1      -6.905  -0.544 129.953  0.00  0.00    +0.069 C 
BRANCH  15  16
ATOM     16  C   LIG A   1      -7.635  -1.308 128.876  0.00  0.00    -0.023 C 
ATOM     17  C   LIG A   1      -7.747  -2.647 128.750  0.00  0.00    -0.079 C 
ATOM     18  C   LIG A   1      -7.122  -3.662 129.666  0.00  0.00    +0.038 C 
ATOM     19  C   LIG A   1      -8.543  -3.251 127.621  0.00  0.00    +0.038 C 
ENDBRANCH  15  16
ENDBRANCH   5  15
ENDBRANCH   1   3
BRANCH   1  20
ATOM     20  C   LIG A   1      -3.698   2.756 126.581  0.00  0.00    +0.084 C 
BRANCH  20  21
ATOM     21  C   LIG A   1      -4.472   3.739 125.696  0.00  0.00    +0.043 C 
BRANCH  21  24
ATOM     22  C   LIG A   1      -7.510   3.062 123.487  0.00  0.00    +0.159 A 
ATOM     23  C   LIG A   1      -6.439   3.721 124.107  0.00  0.00    +0.052 A 
ATOM     24  C   LIG A   1      -5.675   3.074 125.077  0.00  0.00    -0.043 A 
ATOM     25  C   LIG A   1      -6.010   1.766 125.429  0.00  0.00    +0.011 A 
ATOM     26  C   LIG A   1      -7.073   1.081 124.810  0.00  0.00    +0.002 A 
ATOM     27  C   LIG A   1      -7.830   1.732 123.812  0.00  0.00    +0.165 A 
BRANCH  22  28
ATOM     28  O   LIG A   1      -8.224   3.766 122.554  0.00  0.00    -0.503 OA
ATOM     29  H   LIG A   1      -7.626   4.048 121.844  0.00  0.00    +0.292 HD
ENDBRANCH  22  28
BRANCH  27  30
ATOM     30  O   LIG A   1      -8.808   0.956 123.245  0.00  0.00    -0.491 OA
ATOM     31  C   LIG A   1     -10.163   1.200 123.586  0.00  0.00    +0.277 C 
ENDBRANCH  27  30
BRANCH  26  32
ATOM     32  C   LIG A   1      -7.364  -0.341 125.255  0.00  0.00    +0.066 C 
BRANCH  32  33
ATOM     33  C   LIG A   1      -6.235  -1.298 124.972  0.00  0.00    -0.023 C 
ATOM     34  C   LIG A   1      -5.982  -1.979 123.835  0.00  0.00    -0.079 C 
ATOM     35  C   LIG A   1      -6.773  -1.868 122.562  0.00  0.00    +0.038 C 
ATOM     36  C   LIG A   1      -4.812  -2.924 123.747  0.00  0.00    +0.038 C 
ENDBRANCH  32  33
ENDBRANCH  26  32
ENDBRANCH  21  24
ENDBRANCH  20  21
ENDBRANCH   1  20
TORSDOF 13
ENDMDL
MODEL 5
REMARK VINA RESULT:      -7.5      4.463      9.446
REMARK  Name = NuBBE_2329
REMARK  18 active torsions:
REMARK  status: ('A' for Active; 'I' for Inactive)
REMARK    1  A    between atoms: O_1  and  C_2
REMARK    2  A    between atoms: C_4  and  C_5
REMARK    3  A    between atoms: C_5  and  C_6
REMARK    4  A    between atoms: C_6  and  C_7
REMARK    5  A    between atoms: C_7  and  C_8
REMARK    6  A    between atoms: C_9  and  O_10
REMARK    7  A    between atoms: C_11  and  C_12
REMARK    8  A    between atoms: C_12  and  C_13
REMARK    9  A    between atoms: C_14  and  C_15
REMARK   10  A    between atoms: C_14  and  C_16
REMARK   11  A    between atoms: C_17  and  O_18
REMARK   12  A    between atoms: C_20  and  O_21
REMARK   13  A    between atoms: C_24  and  C_25
REMARK   14  A    between atoms: C_25  and  C_26
REMARK   15  A    between atoms: C_27  and  C_28
REMARK   16  A    between atoms: C_27  and  C_29
REMARK   17  A    between atoms: C_30  and  O_31
REMARK   18  A    between atoms: O_31  and  C_32
REMARK                            x       y       z     vdW  Elec       q    Type
REMARK                         _______ _______ _______ _____ _____    ______ ____
ROOT
ATOM      1  C   LIG A   1      -7.299   2.735 130.002  0.00  0.00    +0.171 C 
ATOM      2  O   LIG A   1      -6.104   2.955 129.831  0.00  0.00    -0.292 OA
ENDROOT
BRANCH   1   3
ATOM      3  C   LIG A   1      -8.078   3.710 130.828  0.00  0.00    +0.101 A 
ATOM      4  C   LIG A   1      -8.476   4.930 130.232  0.00  0.00    +0.138 A 
ATOM      5  C   LIG A   1      -9.226   5.899 130.936  0.00  0.00    +0.040 A 
ATOM      6  C   LIG A   1      -9.557   5.614 132.268  0.00  0.00    +0.127 A 
ATOM      7  C   LIG A   1      -9.167   4.418 132.874  0.00  0.00    +0.092 A 
ATOM      8  C   LIG A   1      -8.427   3.474 132.159  0.00  0.00    +0.134 A 
BRANCH   4   9
ATOM      9  O   LIG A   1      -8.161   5.223 128.923  0.00  0.00    -0.505 OA
ATOM     10  H   LIG A   1      -8.973   5.119 128.377  0.00  0.00    +0.292 HD
ENDBRANCH   4   9
BRANCH   6  11
ATOM     11  O   LIG A   1     -10.271   6.455 133.074  0.00  0.00    -0.506 OA
ATOM     12  H   LIG A   1      -9.745   7.238 133.299  0.00  0.00    +0.292 HD
ENDBRANCH   6  11
BRANCH   8  13
ATOM     13  O   LIG A   1      -8.034   2.333 132.803  0.00  0.00    -0.506 OA
ATOM     14  H   LIG A   1      -7.501   2.570 133.582  0.00  0.00    +0.292 HD
ENDBRANCH   8  13
BRANCH   5  15
ATOM     15  C   LIG A   1      -9.695   7.157 130.226  0.00  0.00    +0.069 C 
BRANCH  15  16
ATOM     16  C   LIG A   1     -10.883   6.901 129.329  0.00  0.00    -0.023 C 
ATOM     17  C   LIG A   1     -12.188   7.055 129.630  0.00  0.00    -0.079 C 
ATOM     18  C   LIG A   1     -12.728   7.494 130.963  0.00  0.00    +0.038 C 
ATOM     19  C   LIG A   1     -13.255   6.779 128.600  0.00  0.00    +0.038 C 
ENDBRANCH  15  16
ENDBRANCH   5  15
ENDBRANCH   1   3
BRANCH   1  20
ATOM     20  C   LIG A   1      -7.997   1.553 129.354  0.00  0.00    +0.084 C 
BRANCH  20  21
ATOM     21  C   LIG A   1      -8.018   1.701 127.829  0.00  0.00    +0.043 C 
BRANCH  21  24
ATOM     22  C   LIG A   1      -8.970  -0.914 125.216  0.00  0.00    +0.159 A 
ATOM     23  C   LIG A   1      -8.763   0.322 125.844  0.00  0.00    +0.052 A 
ATOM     24  C   LIG A   1      -8.322   0.381 127.165  0.00  0.00    -0.043 A 
ATOM     25  C   LIG A   1      -8.107  -0.814 127.852  0.00  0.00    +0.011 A 
ATOM     26  C   LIG A   1      -8.295  -2.067 127.237  0.00  0.00    +0.002 A 
ATOM     27  C   LIG A   1      -8.721  -2.122 125.892  0.00  0.00    +0.165 A 
BRANCH  22  28
ATOM     28  O   LIG A   1      -9.418  -0.893 123.922  0.00  0.00    -0.503 OA
ATOM     29  H   LIG A   1      -8.667  -1.034 123.324  0.00  0.00    +0.292 HD
ENDBRANCH  22  28
BRANCH  27  30
ATOM     30  O   LIG A   1      -8.825  -3.390 125.382  0.00  0.00    -0.491 OA
ATOM     31  C   LIG A   1      -7.808  -3.868 124.515  0.00  0.00    +0.277 C 
ENDBRANCH  27  30
BRANCH  26  32
ATOM     32  C   LIG A   1      -8.035  -3.315 128.061  0.00  0.00    +0.066 C 
BRANCH  32  33
ATOM     33  C   LIG A   1      -8.011  -3.057 129.545  0.00  0.00    -0.023 C 
ATOM     34  C   LIG A   1      -7.041  -3.365 130.431  0.00  0.00    -0.079 C 
ATOM     35  C   LIG A   1      -5.722  -3.997 130.089  0.00  0.00    +0.038 C 
ATOM     36  C   LIG A   1      -7.208  -3.054 131.895  0.00  0.00    +0.038 C 
ENDBRANCH  32  33
ENDBRANCH  26  32
ENDBRANCH  21  24
ENDBRANCH  20  21
ENDBRANCH   1  20
TORSDOF 13
ENDMDL
MODEL 6
REMARK VINA RESULT:      -7.5      2.211      4.206
REMARK  Name = NuBBE_2329
REMARK  18 active torsions:
REMARK  status: ('A' for Active; 'I' for Inactive)
REMARK    1  A    between atoms: O_1  and  C_2
REMARK    2  A    between atoms: C_4  and  C_5
REMARK    3  A    between atoms: C_5  and  C_6
REMARK    4  A    between atoms: C_6  and  C_7
REMARK    5  A    between atoms: C_7  and  C_8
REMARK    6  A    between atoms: C_9  and  O_10
REMARK    7  A    between atoms: C_11  and  C_12
REMARK    8  A    between atoms: C_12  and  C_13
REMARK    9  A    between atoms: C_14  and  C_15
REMARK   10  A    between atoms: C_14  and  C_16
REMARK   11  A    between atoms: C_17  and  O_18
REMARK   12  A    between atoms: C_20  and  O_21
REMARK   13  A    between atoms: C_24  and  C_25
REMARK   14  A    between atoms: C_25  and  C_26
REMARK   15  A    between atoms: C_27  and  C_28
REMARK   16  A    between atoms: C_27  and  C_29
REMARK   17  A    between atoms: C_30  and  O_31
REMARK   18  A    between atoms: O_31  and  C_32
REMARK                            x       y       z     vdW  Elec       q    Type
REMARK                         _______ _______ _______ _____ _____    ______ ____
ROOT
ATOM      1  C   LIG A   1      -9.308  -1.105 123.359  0.00  0.00    +0.171 C 
ATOM      2  O   LIG A   1      -9.966  -2.010 122.855  0.00  0.00    -0.292 OA
ENDROOT
BRANCH   1   3
ATOM      3  C   LIG A   1      -8.263  -1.475 124.365  0.00  0.00    +0.101 A 
ATOM      4  C   LIG A   1      -8.660  -2.199 125.513  0.00  0.00    +0.138 A 
ATOM      5  C   LIG A   1      -7.737  -2.599 126.504  0.00  0.00    +0.040 A 
ATOM      6  C   LIG A   1      -6.395  -2.240 126.316  0.00  0.00    +0.127 A 
ATOM      7  C   LIG A   1      -5.986  -1.519 125.192  0.00  0.00    +0.092 A 
ATOM      8  C   LIG A   1      -6.916  -1.134 124.225  0.00  0.00    +0.134 A 
BRANCH   4   9
ATOM      9  O   LIG A   1      -9.975  -2.562 125.710  0.00  0.00    -0.505 OA
ATOM     10  H   LIG A   1      -9.993  -3.471 126.086  0.00  0.00    +0.292 HD
ENDBRANCH   4   9
BRANCH   6  11
ATOM     11  O   LIG A   1      -5.391  -2.551 127.190  0.00  0.00    -0.506 OA
ATOM     12  H   LIG A   1      -4.913  -3.340 126.892  0.00  0.00    +0.292 HD
ENDBRANCH   6  11
BRANCH   8  13
ATOM     13  O   LIG A   1      -6.479  -0.398 123.159  0.00  0.00    -0.506 OA
ATOM     14  H   LIG A   1      -5.722  -0.848 122.744  0.00  0.00    +0.292 HD
ENDBRANCH   8  13
BRANCH   5  15
ATOM     15  C   LIG A   1      -8.203  -3.443 127.678  0.00  0.00    +0.069 C 
BRANCH  15  16
ATOM     16  C   LIG A   1      -8.223  -2.666 128.972  0.00  0.00    -0.023 C 
ATOM     17  C   LIG A   1      -7.459  -2.869 130.064  0.00  0.00    -0.079 C 
ATOM     18  C   LIG A   1      -6.435  -3.959 130.220  0.00  0.00    +0.038 C 
ATOM     19  C   LIG A   1      -7.588  -1.975 131.272  0.00  0.00    +0.038 C 
ENDBRANCH  15  16
ENDBRANCH   5  15
ENDBRANCH   1   3
BRANCH   1  20
ATOM     20  C   LIG A   1      -9.488   0.344 122.943  0.00  0.00    +0.084 C 
BRANCH  20  21
ATOM     21  C   LIG A   1     -10.246   1.131 124.017  0.00  0.00    +0.043 C 
BRANCH  21  24
ATOM     22  C   LIG A   1      -7.822   3.736 125.399  0.00  0.00    +0.159 A 
ATOM     23  C   LIG A   1      -8.652   3.030 124.517  0.00  0.00    +0.052 A 
ATOM     24  C   LIG A   1      -9.288   1.859 124.927  0.00  0.00    -0.043 A 
ATOM     25  C   LIG A   1      -9.068   1.398 126.225  0.00  0.00    +0.011 A 
ATOM     26  C   LIG A   1      -8.249   2.098 127.132  0.00  0.00    +0.002 A 
ATOM     27  C   LIG A   1      -7.625   3.295 126.720  0.00  0.00    +0.165 A 
BRANCH  22  28
ATOM     28  O   LIG A   1      -7.219   4.869 124.922  0.00  0.00    -0.503 OA
ATOM     29  H   LIG A   1      -7.896   5.549 124.770  0.00  0.00    +0.292 HD
ENDBRANCH  22  28
BRANCH  27  30
ATOM     30  O   LIG A   1      -6.891   3.917 127.696  0.00  0.00    -0.491 OA
ATOM     31  C   LIG A   1      -5.476   3.926 127.592  0.00  0.00    +0.277 C 
ENDBRANCH  27  30
BRANCH  26  32
ATOM     32  C   LIG A   1      -8.068   1.523 128.525  0.00  0.00    +0.066 C 
BRANCH  32  33
ATOM     33  C   LIG A   1      -6.852   0.643 128.654  0.00  0.00    -0.023 C 
ATOM     34  C   LIG A   1      -5.856   0.723 129.561  0.00  0.00    -0.079 C 
ATOM     35  C   LIG A   1      -5.791   1.707 130.696  0.00  0.00    +0.038 C 
ATOM     36  C   LIG A   1      -4.695  -0.235 129.516  0.00  0.00    +0.038 C 
ENDBRANCH  32  33
ENDBRANCH  26  32
ENDBRANCH  21  24
ENDBRANCH  20  21
ENDBRANCH   1  20
TORSDOF 13
ENDMDL
MODEL 7
REMARK VINA RESULT:      -7.4      5.001      8.790
REMARK  Name = NuBBE_2329
REMARK  18 active torsions:
REMARK  status: ('A' for Active; 'I' for Inactive)
REMARK    1  A    between atoms: O_1  and  C_2
REMARK    2  A    between atoms: C_4  and  C_5
REMARK    3  A    between atoms: C_5  and  C_6
REMARK    4  A    between atoms: C_6  and  C_7
REMARK    5  A    between atoms: C_7  and  C_8
REMARK    6  A    between atoms: C_9  and  O_10
REMARK    7  A    between atoms: C_11  and  C_12
REMARK    8  A    between atoms: C_12  and  C_13
REMARK    9  A    between atoms: C_14  and  C_15
REMARK   10  A    between atoms: C_14  and  C_16
REMARK   11  A    between atoms: C_17  and  O_18
REMARK   12  A    between atoms: C_20  and  O_21
REMARK   13  A    between atoms: C_24  and  C_25
REMARK   14  A    between atoms: C_25  and  C_26
REMARK   15  A    between atoms: C_27  and  C_28
REMARK   16  A    between atoms: C_27  and  C_29
REMARK   17  A    between atoms: C_30  and  O_31
REMARK   18  A    between atoms: O_31  and  C_32
REMARK                            x       y       z     vdW  Elec       q    Type
REMARK                         _______ _______ _______ _____ _____    ______ ____
ROOT
ATOM      1  C   LIG A   1      -7.159   4.991 130.330  0.00  0.00    +0.171 C 
ATOM      2  O   LIG A   1      -6.540   5.831 129.684  0.00  0.00    -0.292 OA
ENDROOT
BRANCH   1   3
ATOM      3  C   LIG A   1      -8.507   5.368 130.858  0.00  0.00    +0.101 A 
ATOM      4  C   LIG A   1      -9.577   5.501 129.942  0.00  0.00    +0.138 A 
ATOM      5  C   LIG A   1     -10.883   5.840 130.358  0.00  0.00    +0.040 A 
ATOM      6  C   LIG A   1     -11.086   6.057 131.727  0.00  0.00    +0.127 A 
ATOM      7  C   LIG A   1     -10.042   5.938 132.645  0.00  0.00    +0.092 A 
ATOM      8  C   LIG A   1      -8.758   5.601 132.213  0.00  0.00    +0.134 A 
BRANCH   4   9
ATOM      9  O   LIG A   1      -9.393   5.287 128.593  0.00  0.00    -0.505 OA
ATOM     10  H   LIG A   1      -9.252   4.325 128.447  0.00  0.00    +0.292 HD
ENDBRANCH   4   9
BRANCH   6  11
ATOM     11  O   LIG A   1     -12.291   6.397 132.276  0.00  0.00    -0.506 OA
ATOM     12  H   LIG A   1     -12.508   5.805 133.013  0.00  0.00    +0.292 HD
ENDBRANCH   6  11
BRANCH   8  13
ATOM     13  O   LIG A   1      -7.756   5.531 133.140  0.00  0.00    -0.506 OA
ATOM     14  H   LIG A   1      -7.645   6.401 133.562  0.00  0.00    +0.292 HD
ENDBRANCH   8  13
BRANCH   5  15
ATOM     15  C   LIG A   1     -12.012   5.892 129.343  0.00  0.00    +0.069 C 
BRANCH  15  16
ATOM     16  C   LIG A   1     -12.711   7.230 129.330  0.00  0.00    -0.023 C 
ATOM     17  C   LIG A   1     -12.267   8.384 128.790  0.00  0.00    -0.079 C 
ATOM     18  C   LIG A   1     -10.941   8.572 128.109  0.00  0.00    +0.038 C 
ATOM     19  C   LIG A   1     -13.111   9.633 128.841  0.00  0.00    +0.038 C 
ENDBRANCH  15  16
ENDBRANCH   5  15
ENDBRANCH   1   3
BRANCH   1  20
ATOM     20  C   LIG A   1      -6.620   3.588 130.545  0.00  0.00    +0.084 C 
BRANCH  20  21
ATOM     21  C   LIG A   1      -7.625   2.538 130.061  0.00  0.00    +0.043 C 
BRANCH  21  24
ATOM     22  C   LIG A   1      -8.388   1.546 126.455  0.00  0.00    +0.159 A 
ATOM     23  C   LIG A   1      -8.502   1.692 127.844  0.00  0.00    +0.052 A 
ATOM     24  C   LIG A   1      -7.484   2.300 128.578  0.00  0.00    -0.043 A 
ATOM     25  C   LIG A   1      -6.347   2.745 127.903  0.00  0.00    +0.011 A 
ATOM     26  C   LIG A   1      -6.217   2.620 126.507  0.00  0.00    +0.002 A 
ATOM     27  C   LIG A   1      -7.259   2.023 125.765  0.00  0.00    +0.165 A 
BRANCH  22  28
ATOM     28  O   LIG A   1      -9.420   0.925 125.803  0.00  0.00    -0.503 OA
ATOM     29  H   LIG A   1     -10.027   1.598 125.457  0.00  0.00    +0.292 HD
ENDBRANCH  22  28
BRANCH  27  30
ATOM     30  O   LIG A   1      -7.048   1.997 124.410  0.00  0.00    -0.491 OA
ATOM     31  C   LIG A   1      -7.702   2.956 123.594  0.00  0.00    +0.277 C 
ENDBRANCH  27  30
BRANCH  26  32
ATOM     32  C   LIG A   1      -4.945   3.133 125.857  0.00  0.00    +0.066 C 
BRANCH  32  33
ATOM     33  C   LIG A   1      -4.249   4.198 126.665  0.00  0.00    -0.023 C 
ATOM     34  C   LIG A   1      -2.986   4.195 127.138  0.00  0.00    -0.079 C 
ATOM     35  C   LIG A   1      -1.969   3.115 126.895  0.00  0.00    +0.038 C 
ATOM     36  C   LIG A   1      -2.469   5.347 127.960  0.00  0.00    +0.038 C 
ENDBRANCH  32  33
ENDBRANCH  26  32
ENDBRANCH  21  24
ENDBRANCH  20  21
ENDBRANCH   1  20
TORSDOF 13
ENDMDL
MODEL 8
REMARK VINA RESULT:      -7.4      4.240      8.232
REMARK  Name = NuBBE_2329
REMARK  18 active torsions:
REMARK  status: ('A' for Active; 'I' for Inactive)
REMARK    1  A    between atoms: O_1  and  C_2
REMARK    2  A    between atoms: C_4  and  C_5
REMARK    3  A    between atoms: C_5  and  C_6
REMARK    4  A    between atoms: C_6  and  C_7
REMARK    5  A    between atoms: C_7  and  C_8
REMARK    6  A    between atoms: C_9  and  O_10
REMARK    7  A    between atoms: C_11  and  C_12
REMARK    8  A    between atoms: C_12  and  C_13
REMARK    9  A    between atoms: C_14  and  C_15
REMARK   10  A    between atoms: C_14  and  C_16
REMARK   11  A    between atoms: C_17  and  O_18
REMARK   12  A    between atoms: C_20  and  O_21
REMARK   13  A    between atoms: C_24  and  C_25
REMARK   14  A    between atoms: C_25  and  C_26
REMARK   15  A    between atoms: C_27  and  C_28
REMARK   16  A    between atoms: C_27  and  C_29
REMARK   17  A    between atoms: C_30  and  O_31
REMARK   18  A    between atoms: O_31  and  C_32
REMARK                            x       y       z     vdW  Elec       q    Type
REMARK                         _______ _______ _______ _____ _____    ______ ____
ROOT
ATOM      1  C   LIG A   1      -6.529   2.821 129.856  0.00  0.00    +0.171 C 
ATOM      2  O   LIG A   1      -5.626   2.786 130.686  0.00  0.00    -0.292 OA
ENDROOT
BRANCH   1   3
ATOM      3  C   LIG A   1      -7.842   3.404 130.275  0.00  0.00    +0.101 A 
ATOM      4  C   LIG A   1      -7.973   4.812 130.310  0.00  0.00    +0.138 A 
ATOM      5  C   LIG A   1      -9.181   5.443 130.681  0.00  0.00    +0.040 A 
ATOM      6  C   LIG A   1     -10.259   4.617 131.029  0.00  0.00    +0.127 A 
ATOM      7  C   LIG A   1     -10.145   3.226 131.006  0.00  0.00    +0.092 A 
ATOM      8  C   LIG A   1      -8.942   2.623 130.636  0.00  0.00    +0.134 A 
BRANCH   4   9
ATOM      9  O   LIG A   1      -6.924   5.637 129.968  0.00  0.00    -0.505 OA
ATOM     10  H   LIG A   1      -7.283   6.532 129.774  0.00  0.00    +0.292 HD
ENDBRANCH   4   9
BRANCH   6  11
ATOM     11  O   LIG A   1     -11.485   5.083 131.413  0.00  0.00    -0.506 OA
ATOM     12  H   LIG A   1     -12.163   4.830 130.767  0.00  0.00    +0.292 HD
ENDBRANCH   6  11
BRANCH   8  13
ATOM     13  O   LIG A   1      -8.863   1.258 130.664  0.00  0.00    -0.506 OA
ATOM     14  H   LIG A   1      -9.569   0.883 130.109  0.00  0.00    +0.292 HD
ENDBRANCH   8  13
BRANCH   5  15
ATOM     15  C   LIG A   1      -9.293   6.957 130.626  0.00  0.00    +0.069 C 
BRANCH  15  16
ATOM     16  C   LIG A   1      -9.835   7.446 129.304  0.00  0.00    -0.023 C 
ATOM     17  C   LIG A   1     -11.069   7.926 129.049  0.00  0.00    -0.079 C 
ATOM     18  C   LIG A   1     -12.183   8.039 130.051  0.00  0.00    +0.038 C 
ATOM     19  C   LIG A   1     -11.440   8.401 127.666  0.00  0.00    +0.038 C 
ENDBRANCH  15  16
ENDBRANCH   5  15
ENDBRANCH   1   3
BRANCH   1  20
ATOM     20  C   LIG A   1      -6.322   2.353 128.427  0.00  0.00    +0.084 C 
BRANCH  20  21
ATOM     21  C   LIG A   1      -6.574   0.846 128.305  0.00  0.00    +0.043 C 
BRANCH  21  24
ATOM     22  C   LIG A   1      -9.102   1.285 125.479  0.00  0.00    +0.159 A 
ATOM     23  C   LIG A   1      -8.278   1.562 126.579  0.00  0.00    +0.052 A 
ATOM     24  C   LIG A   1      -7.526   0.550 127.173  0.00  0.00    -0.043 A 
ATOM     25  C   LIG A   1      -7.624  -0.744 126.662  0.00  0.00    +0.011 A 
ATOM     26  C   LIG A   1      -8.436  -1.042 125.550  0.00  0.00    +0.002 A 
ATOM     27  C   LIG A   1      -9.178  -0.010 124.938  0.00  0.00    +0.165 A 
BRANCH  22  28
ATOM     28  O   LIG A   1      -9.823   2.326 124.957  0.00  0.00    -0.503 OA
ATOM     29  H   LIG A   1     -10.375   1.996 124.231  0.00  0.00    +0.292 HD
ENDBRANCH  22  28
BRANCH  27  30
ATOM     30  O   LIG A   1      -9.895  -0.404 123.837  0.00  0.00    -0.491 OA
ATOM     31  C   LIG A   1      -9.696   0.278 122.608  0.00  0.00    +0.277 C 
ENDBRANCH  27  30
BRANCH  26  32
ATOM     32  C   LIG A   1      -8.480  -2.478 125.061  0.00  0.00    +0.066 C 
BRANCH  32  33
ATOM     33  C   LIG A   1      -7.114  -3.087 124.871  0.00  0.00    -0.023 C 
ATOM     34  C   LIG A   1      -6.231  -2.863 123.875  0.00  0.00    -0.079 C 
ATOM     35  C   LIG A   1      -6.420  -1.883 122.751  0.00  0.00    +0.038 C 
ATOM     36  C   LIG A   1      -4.915  -3.594 123.835  0.00  0.00    +0.038 C 
ENDBRANCH  32  33
ENDBRANCH  26  32
ENDBRANCH  21  24
ENDBRANCH  20  21
ENDBRANCH   1  20
TORSDOF 13
ENDMDL
MODEL 9
REMARK VINA RESULT:      -7.2      4.625      8.115
REMARK  Name = NuBBE_2329
REMARK  18 active torsions:
REMARK  status: ('A' for Active; 'I' for Inactive)
REMARK    1  A    between atoms: O_1  and  C_2
REMARK    2  A    between atoms: C_4  and  C_5
REMARK    3  A    between atoms: C_5  and  C_6
REMARK    4  A    between atoms: C_6  and  C_7
REMARK    5  A    between atoms: C_7  and  C_8
REMARK    6  A    between atoms: C_9  and  O_10
REMARK    7  A    between atoms: C_11  and  C_12
REMARK    8  A    between atoms: C_12  and  C_13
REMARK    9  A    between atoms: C_14  and  C_15
REMARK   10  A    between atoms: C_14  and  C_16
REMARK   11  A    between atoms: C_17  and  O_18
REMARK   12  A    between atoms: C_20  and  O_21
REMARK   13  A    between atoms: C_24  and  C_25
REMARK   14  A    between atoms: C_25  and  C_26
REMARK   15  A    between atoms: C_27  and  C_28
REMARK   16  A    between atoms: C_27  and  C_29
REMARK   17  A    between atoms: C_30  and  O_31
REMARK   18  A    between atoms: O_31  and  C_32
REMARK                            x       y       z     vdW  Elec       q    Type
REMARK                         _______ _______ _______ _____ _____    ______ ____
ROOT
ATOM      1  C   LIG A   1      -8.492   1.506 130.789  0.00  0.00    +0.171 C 
ATOM      2  O   LIG A   1      -8.969   0.464 131.227  0.00  0.00    -0.292 OA
ENDROOT
BRANCH   1   3
ATOM      3  C   LIG A   1      -8.788   2.775 131.525  0.00  0.00    +0.101 A 
ATOM      4  C   LIG A   1      -9.719   3.679 130.962  0.00  0.00    +0.138 A 
ATOM      5  C   LIG A   1     -10.065   4.891 131.598  0.00  0.00    +0.040 A 
ATOM      6  C   LIG A   1      -9.437   5.181 132.818  0.00  0.00    +0.127 A 
ATOM      7  C   LIG A   1      -8.511   4.304 133.384  0.00  0.00    +0.092 A 
ATOM      8  C   LIG A   1      -8.184   3.110 132.739  0.00  0.00    +0.134 A 
BRANCH   4   9
ATOM      9  O   LIG A   1     -10.347   3.407 129.767  0.00  0.00    -0.505 OA
ATOM     10  H   LIG A   1     -10.087   4.095 129.115  0.00  0.00    +0.292 HD
ENDBRANCH   4   9
BRANCH   6  11
ATOM     11  O   LIG A   1      -9.666   6.316 133.544  0.00  0.00    -0.506 OA
ATOM     12  H   LIG A   1      -8.998   6.990 133.342  0.00  0.00    +0.292 HD
ENDBRANCH   6  11
BRANCH   8  13
ATOM     13  O   LIG A   1      -7.244   2.298 133.310  0.00  0.00    -0.506 OA
ATOM     14  H   LIG A   1      -7.011   2.643 134.190  0.00  0.00    +0.292 HD
ENDBRANCH   8  13
BRANCH   5  15
ATOM     15  C   LIG A   1     -11.130   5.789 130.991  0.00  0.00    +0.069 C 
BRANCH  15  16
ATOM     16  C   LIG A   1     -10.577   6.682 129.906  0.00  0.00    -0.023 C 
ATOM     17  C   LIG A   1     -11.180   7.738 129.324  0.00  0.00    -0.079 C 
ATOM     18  C   LIG A   1     -12.570   8.223 129.629  0.00  0.00    +0.038 C 
ATOM     19  C   LIG A   1     -10.470   8.545 128.267  0.00  0.00    +0.038 C 
ENDBRANCH  15  16
ENDBRANCH   5  15
ENDBRANCH   1   3
BRANCH   1  20
ATOM     20  C   LIG A   1      -7.578   1.521 129.577  0.00  0.00    +0.084 C 
BRANCH  20  21
ATOM     21  C   LIG A   1      -7.882   0.341 128.648  0.00  0.00    +0.043 C 
BRANCH  21  24
ATOM     22  C   LIG A   1      -8.434   2.601 125.622  0.00  0.00    +0.159 A 
ATOM     23  C   LIG A   1      -8.292   2.168 126.948  0.00  0.00    +0.052 A 
ATOM     24  C   LIG A   1      -8.117   0.815 127.236  0.00  0.00    -0.043 A 
ATOM     25  C   LIG A   1      -8.104  -0.098 126.180  0.00  0.00    +0.011 A 
ATOM     26  C   LIG A   1      -8.232   0.317 124.841  0.00  0.00    +0.002 A 
ATOM     27  C   LIG A   1      -8.387   1.690 124.552  0.00  0.00    +0.165 A 
BRANCH  22  28
ATOM     28  O   LIG A   1      -8.617   3.943 125.417  0.00  0.00    -0.503 OA
ATOM     29  H   LIG A   1      -7.826   4.420 125.716  0.00  0.00    +0.292 HD
ENDBRANCH  22  28
BRANCH  27  30
ATOM     30  O   LIG A   1      -8.454   1.984 123.215  0.00  0.00    -0.491 OA
ATOM     31  C   LIG A   1      -7.348   2.622 122.594  0.00  0.00    +0.277 C 
ENDBRANCH  27  30
BRANCH  26  32
ATOM     32  C   LIG A   1      -8.206  -0.745 123.757  0.00  0.00    +0.066 C 
BRANCH  32  33
ATOM     33  C   LIG A   1      -6.842  -1.353 123.550  0.00  0.00    -0.023 C 
ATOM     34  C   LIG A   1      -6.433  -2.606 123.840  0.00  0.00    -0.079 C 
ATOM     35  C   LIG A   1      -7.305  -3.698 124.393  0.00  0.00    +0.038 C 
ATOM     36  C   LIG A   1      -5.010  -3.028 123.588  0.00  0.00    +0.038 C 
ENDBRANCH  32  33
ENDBRANCH  26  32
ENDBRANCH  21  24
ENDBRANCH  20  21
ENDBRANCH   1  20
TORSDOF 13
ENDMDL
