MODEL 1
REMARK VINA RESULT:      -9.3      0.000      0.000
REMARK  Name = NuBBE_1553
REMARK  14 active torsions:
REMARK  status: ('A' for Active; 'I' for Inactive)
REMARK    1  A    between atoms: C_1  and  C_2
REMARK    2  A    between atoms: C_8  and  C_9
REMARK    3  A    between atoms: C_12  and  O_14
REMARK    4  A    between atoms: C_15  and  C_16
REMARK    5  A    between atoms: C_15  and  C_17
REMARK    6  A    between atoms: C_22  and  C_38
REMARK    7  A    between atoms: C_23  and  C_24
REMARK    8  A    between atoms: C_24  and  C_26
REMARK    9  A    between atoms: C_24  and  C_29
REMARK   10  A    between atoms: C_26  and  O_27
REMARK   11  A    between atoms: C_29  and  C_30
REMARK   12  A    between atoms: C_30  and  C_31
REMARK   13  A    between atoms: C_32  and  C_33
REMARK   14  A    between atoms: C_32  and  C_34
REMARK                            x       y       z     vdW  Elec       q    Type
REMARK                         _______ _______ _______ _____ _____    ______ ____
ROOT
ATOM      1  C   LIG A   1      -3.813   1.949 128.854  0.00  0.00    +0.016 C 
ATOM      2  C   LIG A   1      -4.314   3.172 128.050  0.00  0.00    -0.005 C 
ATOM      3  C   LIG A   1      -4.016   4.426 128.910  0.00  0.00    -0.063 C 
ATOM      4  C   LIG A   1      -3.001   5.284 128.686  0.00  0.00    -0.026 C 
ATOM      5  C   LIG A   1      -2.581   6.357 129.642  0.00  0.00    +0.031 C 
ATOM      6  C   LIG A   1      -2.936   5.934 131.074  0.00  0.00    +0.007 C 
ATOM      7  C   LIG A   1      -4.488   5.709 131.189  0.00  0.00    -0.022 C 
ATOM      8  C   LIG A   1      -5.304   7.010 131.004  0.00  0.00    +0.012 C 
ATOM      9  C   LIG A   1      -4.763   5.151 132.617  0.00  0.00    +0.010 C 
ATOM     10  C   LIG A   1      -4.154   5.994 133.745  0.00  0.00    +0.032 C 
ATOM     11  C   LIG A   1      -2.642   6.198 133.587  0.00  0.00    +0.120 C 
ATOM     12  C   LIG A   1      -2.238   6.782 132.203  0.00  0.00    -0.005 C 
ATOM     13  C   LIG A   1      -2.548   8.293 132.164  0.00  0.00    +0.014 C 
ATOM     14  C   LIG A   1      -0.694   6.667 132.046  0.00  0.00    +0.014 C 
ATOM     15  C   LIG A   1      -4.941   4.607 130.110  0.00  0.00    +0.021 C 
ATOM     16  C   LIG A   1      -6.345   4.808 129.501  0.00  0.00    +0.009 C 
ATOM     17  C   LIG A   1      -6.810   3.607 128.665  0.00  0.00    +0.008 C 
ATOM     18  C   LIG A   1      -5.828   3.086 127.575  0.00  0.00    -0.019 C 
ATOM     19  C   LIG A   1      -5.868   3.980 126.245  0.00  0.00    +0.009 C 
ATOM     20  C   LIG A   1      -4.379   4.179 125.866  0.00  0.00    +0.006 C 
ATOM     21  C   LIG A   1      -3.594   3.178 126.692  0.00  0.00    +0.012 C 
ATOM     22  C   LIG A   1      -6.242   1.615 127.294  0.00  0.00    +0.012 C 
ENDROOT
BRANCH  11  23
ATOM     23  O   LIG A   1      -2.001   4.933 133.781  0.00  0.00    -0.391 OA
ATOM     24  H   LIG A   1      -1.307   4.849 133.106  0.00  0.00    +0.210 HD
ENDBRANCH  11  23
BRANCH  19  25
ATOM     25  C   LIG A   1      -6.660   3.473 124.991  0.00  0.00    +0.102 C 
BRANCH  25  26
ATOM     26  C   LIG A   1      -8.111   3.893 124.954  0.00  0.00    +0.308 C 
ATOM     27  O   LIG A   1      -9.086   3.174 124.788  0.00  0.00    -0.251 OA
BRANCH  26  28
ATOM     28  O   LIG A   1      -8.276   5.198 125.235  0.00  0.00    -0.480 OA
ATOM     29  H   LIG A   1      -7.903   5.668 124.461  0.00  0.00    +0.295 HD
ENDBRANCH  26  28
ENDBRANCH  25  26
BRANCH  25  30
ATOM     30  C   LIG A   1      -6.053   3.901 123.620  0.00  0.00    +0.019 C 
BRANCH  30  31
ATOM     31  C   LIG A   1      -6.326   2.922 122.470  0.00  0.00    +0.028 C 
BRANCH  31  32
ATOM     32  C   LIG A   1      -6.244   3.604 121.130  0.00  0.00    -0.028 C 
ATOM     33  C   LIG A   1      -7.268   3.972 120.336  0.00  0.00    -0.080 C 
ATOM     34  C   LIG A   1      -8.725   3.766 120.650  0.00  0.00    +0.038 C 
ATOM     35  C   LIG A   1      -7.013   4.649 119.015  0.00  0.00    +0.038 C 
ENDBRANCH  31  32
ENDBRANCH  30  31
ENDBRANCH  25  30
ENDBRANCH  19  25
TORSDOF 7
ENDMDL
MODEL 2
REMARK VINA RESULT:      -9.0      5.244      6.551
REMARK  Name = NuBBE_1553
REMARK  14 active torsions:
REMARK  status: ('A' for Active; 'I' for Inactive)
REMARK    1  A    between atoms: C_1  and  C_2
REMARK    2  A    between atoms: C_8  and  C_9
REMARK    3  A    between atoms: C_12  and  O_14
REMARK    4  A    between atoms: C_15  and  C_16
REMARK    5  A    between atoms: C_15  and  C_17
REMARK    6  A    between atoms: C_22  and  C_38
REMARK    7  A    between atoms: C_23  and  C_24
REMARK    8  A    between atoms: C_24  and  C_26
REMARK    9  A    between atoms: C_24  and  C_29
REMARK   10  A    between atoms: C_26  and  O_27
REMARK   11  A    between atoms: C_29  and  C_30
REMARK   12  A    between atoms: C_30  and  C_31
REMARK   13  A    between atoms: C_32  and  C_33
REMARK   14  A    between atoms: C_32  and  C_34
REMARK                            x       y       z     vdW  Elec       q    Type
REMARK                         _______ _______ _______ _____ _____    ______ ____
ROOT
ATOM      1  C   LIG A   1      -5.300  -1.981 124.906  0.00  0.00    +0.016 C 
ATOM      2  C   LIG A   1      -6.247  -0.835 125.333  0.00  0.00    -0.005 C 
ATOM      3  C   LIG A   1      -6.264  -0.823 126.883  0.00  0.00    -0.063 C 
ATOM      4  C   LIG A   1      -5.603   0.067 127.648  0.00  0.00    -0.026 C 
ATOM      5  C   LIG A   1      -5.437  -0.058 129.131  0.00  0.00    +0.031 C 
ATOM      6  C   LIG A   1      -5.478  -1.540 129.527  0.00  0.00    +0.007 C 
ATOM      7  C   LIG A   1      -6.857  -2.163 129.099  0.00  0.00    -0.022 C 
ATOM      8  C   LIG A   1      -8.056  -1.568 129.875  0.00  0.00    +0.012 C 
ATOM      9  C   LIG A   1      -6.781  -3.689 129.401  0.00  0.00    +0.010 C 
ATOM     10  C   LIG A   1      -6.345  -4.022 130.834  0.00  0.00    +0.032 C 
ATOM     11  C   LIG A   1      -5.002  -3.386 131.212  0.00  0.00    +0.120 C 
ATOM     12  C   LIG A   1      -4.961  -1.847 130.982  0.00  0.00    -0.005 C 
ATOM     13  C   LIG A   1      -5.732  -1.130 132.110  0.00  0.00    +0.014 C 
ATOM     14  C   LIG A   1      -3.487  -1.365 131.111  0.00  0.00    +0.014 C 
ATOM     15  C   LIG A   1      -7.059  -1.961 127.518  0.00  0.00    +0.021 C 
ATOM     16  C   LIG A   1      -8.513  -1.735 127.055  0.00  0.00    +0.009 C 
ATOM     17  C   LIG A   1      -8.668  -1.784 125.528  0.00  0.00    +0.008 C 
ATOM     18  C   LIG A   1      -7.701  -0.894 124.693  0.00  0.00    -0.019 C 
ATOM     19  C   LIG A   1      -8.168   0.639 124.653  0.00  0.00    +0.009 C 
ATOM     20  C   LIG A   1      -6.870   1.447 124.899  0.00  0.00    +0.006 C 
ATOM     21  C   LIG A   1      -5.723   0.472 124.719  0.00  0.00    +0.012 C 
ATOM     22  C   LIG A   1      -7.660  -1.522 123.273  0.00  0.00    +0.012 C 
ENDROOT
BRANCH  11  23
ATOM     23  O   LIG A   1      -3.978  -4.016 130.436  0.00  0.00    -0.391 OA
ATOM     24  H   LIG A   1      -3.351  -3.326 130.160  0.00  0.00    +0.210 HD
ENDBRANCH  11  23
BRANCH  19  25
ATOM     25  C   LIG A   1      -8.896   1.197 123.382  0.00  0.00    +0.102 C 
BRANCH  25  26
ATOM     26  C   LIG A   1     -10.357   0.822 123.282  0.00  0.00    +0.308 C 
ATOM     27  O   LIG A   1     -10.873   0.064 122.472  0.00  0.00    -0.251 OA
BRANCH  26  28
ATOM     28  O   LIG A   1     -11.092   1.345 124.279  0.00  0.00    -0.480 OA
ATOM     29  H   LIG A   1     -11.814   0.701 124.421  0.00  0.00    +0.295 HD
ENDBRANCH  26  28
ENDBRANCH  25  26
BRANCH  25  30
ATOM     30  C   LIG A   1      -8.836   2.747 123.225  0.00  0.00    +0.019 C 
BRANCH  30  31
ATOM     31  C   LIG A   1      -8.505   3.229 121.806  0.00  0.00    +0.028 C 
BRANCH  31  32
ATOM     32  C   LIG A   1      -7.036   3.523 121.650  0.00  0.00    -0.028 C 
ATOM     33  C   LIG A   1      -6.412   4.014 120.562  0.00  0.00    -0.080 C 
ATOM     34  C   LIG A   1      -7.085   4.373 119.265  0.00  0.00    +0.038 C 
ATOM     35  C   LIG A   1      -4.924   4.250 120.569  0.00  0.00    +0.038 C 
ENDBRANCH  31  32
ENDBRANCH  30  31
ENDBRANCH  25  30
ENDBRANCH  19  25
TORSDOF 7
ENDMDL
MODEL 3
REMARK VINA RESULT:      -8.8      5.826     10.880
REMARK  Name = NuBBE_1553
REMARK  14 active torsions:
REMARK  status: ('A' for Active; 'I' for Inactive)
REMARK    1  A    between atoms: C_1  and  C_2
REMARK    2  A    between atoms: C_8  and  C_9
REMARK    3  A    between atoms: C_12  and  O_14
REMARK    4  A    between atoms: C_15  and  C_16
REMARK    5  A    between atoms: C_15  and  C_17
REMARK    6  A    between atoms: C_22  and  C_38
REMARK    7  A    between atoms: C_23  and  C_24
REMARK    8  A    between atoms: C_24  and  C_26
REMARK    9  A    between atoms: C_24  and  C_29
REMARK   10  A    between atoms: C_26  and  O_27
REMARK   11  A    between atoms: C_29  and  C_30
REMARK   12  A    between atoms: C_30  and  C_31
REMARK   13  A    between atoms: C_32  and  C_33
REMARK   14  A    between atoms: C_32  and  C_34
REMARK                            x       y       z     vdW  Elec       q    Type
REMARK                         _______ _______ _______ _____ _____    ______ ____
ROOT
ATOM      1  C   LIG A   1      -8.492  -3.320 129.235  0.00  0.00    +0.016 C 
ATOM      2  C   LIG A   1      -7.427  -2.250 129.571  0.00  0.00    -0.005 C 
ATOM      3  C   LIG A   1      -7.271  -1.362 128.310  0.00  0.00    -0.063 C 
ATOM      4  C   LIG A   1      -7.794  -0.127 128.175  0.00  0.00    -0.026 C 
ATOM      5  C   LIG A   1      -7.836   0.631 126.885  0.00  0.00    +0.031 C 
ATOM      6  C   LIG A   1      -7.871  -0.358 125.711  0.00  0.00    +0.007 C 
ATOM      7  C   LIG A   1      -6.587  -1.263 125.745  0.00  0.00    -0.022 C 
ATOM      8  C   LIG A   1      -5.282  -0.473 125.487  0.00  0.00    +0.012 C 
ATOM      9  C   LIG A   1      -6.750  -2.328 124.620  0.00  0.00    +0.010 C 
ATOM     10  C   LIG A   1      -7.082  -1.737 123.242  0.00  0.00    +0.032 C 
ATOM     11  C   LIG A   1      -8.334  -0.852 123.259  0.00  0.00    +0.120 C 
ATOM     12  C   LIG A   1      -8.279   0.277 124.329  0.00  0.00    -0.005 C 
ATOM     13  C   LIG A   1      -7.359   1.415 123.840  0.00  0.00    +0.014 C 
ATOM     14  C   LIG A   1      -9.696   0.909 124.456  0.00  0.00    +0.014 C 
ATOM     15  C   LIG A   1      -6.512  -2.019 127.161  0.00  0.00    +0.021 C 
ATOM     16  C   LIG A   1      -5.091  -2.261 127.713  0.00  0.00    +0.009 C 
ATOM     17  C   LIG A   1      -5.077  -3.186 128.938  0.00  0.00    +0.008 C 
ATOM     18  C   LIG A   1      -6.045  -2.825 130.104  0.00  0.00    -0.019 C 
ATOM     19  C   LIG A   1      -5.468  -1.651 131.030  0.00  0.00    +0.009 C 
ATOM     20  C   LIG A   1      -6.675  -0.705 131.255  0.00  0.00    +0.006 C 
ATOM     21  C   LIG A   1      -7.904  -1.473 130.808  0.00  0.00    +0.012 C 
ATOM     22  C   LIG A   1      -6.259  -4.139 130.905  0.00  0.00    +0.012 C 
ENDROOT
BRANCH  11  23
ATOM     23  O   LIG A   1      -9.467  -1.691 123.502  0.00  0.00    -0.391 OA
ATOM     24  H   LIG A   1     -10.095  -1.556 122.773  0.00  0.00    +0.210 HD
ENDBRANCH  11  23
BRANCH  19  25
ATOM     25  C   LIG A   1      -4.816  -1.999 132.412  0.00  0.00    +0.102 C 
BRANCH  25  26
ATOM     26  C   LIG A   1      -3.324  -2.233 132.360  0.00  0.00    +0.308 C 
ATOM     27  O   LIG A   1      -2.627  -2.762 133.214  0.00  0.00    -0.251 OA
BRANCH  26  28
ATOM     28  O   LIG A   1      -2.789  -1.877 131.178  0.00  0.00    -0.480 OA
ATOM     29  H   LIG A   1      -3.057  -2.587 130.560  0.00  0.00    +0.295 HD
ENDBRANCH  26  28
ENDBRANCH  25  26
BRANCH  25  30
ATOM     30  C   LIG A   1      -5.047  -0.935 133.529  0.00  0.00    +0.019 C 
BRANCH  30  31
ATOM     31  C   LIG A   1      -5.867  -1.437 134.725  0.00  0.00    +0.028 C 
BRANCH  31  32
ATOM     32  C   LIG A   1      -5.871  -2.941 134.801  0.00  0.00    -0.028 C 
ATOM     33  C   LIG A   1      -6.892  -3.771 134.515  0.00  0.00    -0.080 C 
ATOM     34  C   LIG A   1      -8.256  -3.338 134.049  0.00  0.00    +0.038 C 
ATOM     35  C   LIG A   1      -6.732  -5.263 134.644  0.00  0.00    +0.038 C 
ENDBRANCH  31  32
ENDBRANCH  30  31
ENDBRANCH  25  30
ENDBRANCH  19  25
TORSDOF 7
ENDMDL
MODEL 4
REMARK VINA RESULT:      -8.5      4.838      6.025
REMARK  Name = NuBBE_1553
REMARK  14 active torsions:
REMARK  status: ('A' for Active; 'I' for Inactive)
REMARK    1  A    between atoms: C_1  and  C_2
REMARK    2  A    between atoms: C_8  and  C_9
REMARK    3  A    between atoms: C_12  and  O_14
REMARK    4  A    between atoms: C_15  and  C_16
REMARK    5  A    between atoms: C_15  and  C_17
REMARK    6  A    between atoms: C_22  and  C_38
REMARK    7  A    between atoms: C_23  and  C_24
REMARK    8  A    between atoms: C_24  and  C_26
REMARK    9  A    between atoms: C_24  and  C_29
REMARK   10  A    between atoms: C_26  and  O_27
REMARK   11  A    between atoms: C_29  and  C_30
REMARK   12  A    between atoms: C_30  and  C_31
REMARK   13  A    between atoms: C_32  and  C_33
REMARK   14  A    between atoms: C_32  and  C_34
REMARK                            x       y       z     vdW  Elec       q    Type
REMARK                         _______ _______ _______ _____ _____    ______ ____
ROOT
ATOM      1  C   LIG A   1      -5.070   1.483 129.485  0.00  0.00    +0.016 C 
ATOM      2  C   LIG A   1      -6.446   1.149 128.865  0.00  0.00    -0.005 C 
ATOM      3  C   LIG A   1      -7.483   2.074 129.551  0.00  0.00    -0.063 C 
ATOM      4  C   LIG A   1      -8.019   3.174 128.986  0.00  0.00    -0.026 C 
ATOM      5  C   LIG A   1      -8.839   4.185 129.725  0.00  0.00    +0.031 C 
ATOM      6  C   LIG A   1      -8.425   4.197 131.203  0.00  0.00    +0.007 C 
ATOM      7  C   LIG A   1      -8.659   2.773 131.829  0.00  0.00    -0.022 C 
ATOM      8  C   LIG A   1     -10.153   2.379 131.895  0.00  0.00    +0.012 C 
ATOM      9  C   LIG A   1      -8.093   2.815 133.279  0.00  0.00    +0.010 C 
ATOM     10  C   LIG A   1      -8.624   3.980 134.125  0.00  0.00    +0.032 C 
ATOM     11  C   LIG A   1      -8.386   5.347 133.472  0.00  0.00    +0.120 C 
ATOM     12  C   LIG A   1      -8.935   5.443 132.019  0.00  0.00    -0.005 C 
ATOM     13  C   LIG A   1     -10.468   5.615 132.052  0.00  0.00    +0.014 C 
ATOM     14  C   LIG A   1      -8.383   6.742 131.364  0.00  0.00    +0.014 C 
ATOM     15  C   LIG A   1      -7.831   1.685 130.985  0.00  0.00    +0.021 C 
ATOM     16  C   LIG A   1      -8.486   0.292 130.869  0.00  0.00    +0.009 C 
ATOM     17  C   LIG A   1      -7.547  -0.759 130.260  0.00  0.00    +0.008 C 
ATOM     18  C   LIG A   1      -6.850  -0.387 128.918  0.00  0.00    -0.019 C 
ATOM     19  C   LIG A   1      -7.820  -0.577 127.657  0.00  0.00    +0.009 C 
ATOM     20  C   LIG A   1      -7.602   0.697 126.804  0.00  0.00    +0.006 C 
ATOM     21  C   LIG A   1      -6.351   1.361 127.346  0.00  0.00    +0.012 C 
ATOM     22  C   LIG A   1      -5.595  -1.297 128.822  0.00  0.00    +0.012 C 
ENDROOT
BRANCH  11  23
ATOM     23  O   LIG A   1      -6.977   5.599 133.471  0.00  0.00    -0.391 OA
ATOM     24  H   LIG A   1      -6.679   5.599 132.546  0.00  0.00    +0.210 HD
ENDBRANCH  11  23
BRANCH  19  25
ATOM     25  C   LIG A   1      -7.673  -1.844 126.746  0.00  0.00    +0.102 C 
BRANCH  25  26
ATOM     26  C   LIG A   1      -8.942  -2.649 126.581  0.00  0.00    +0.308 C 
ATOM     27  O   LIG A   1      -9.793  -2.520 125.712  0.00  0.00    -0.251 OA
BRANCH  26  28
ATOM     28  O   LIG A   1      -9.031  -3.655 127.469  0.00  0.00    -0.480 OA
ATOM     29  H   LIG A   1      -9.939  -4.003 127.360  0.00  0.00    +0.295 HD
ENDBRANCH  26  28
ENDBRANCH  25  26
BRANCH  25  30
ATOM     30  C   LIG A   1      -7.157  -1.553 125.303  0.00  0.00    +0.019 C 
BRANCH  30  31
ATOM     31  C   LIG A   1      -5.628  -1.517 125.170  0.00  0.00    +0.028 C 
BRANCH  31  32
ATOM     32  C   LIG A   1      -5.069  -2.875 124.839  0.00  0.00    -0.028 C 
ATOM     33  C   LIG A   1      -4.938  -3.430 123.618  0.00  0.00    -0.080 C 
ATOM     34  C   LIG A   1      -5.333  -2.775 122.322  0.00  0.00    +0.038 C 
ATOM     35  C   LIG A   1      -4.355  -4.810 123.457  0.00  0.00    +0.038 C 
ENDBRANCH  31  32
ENDBRANCH  30  31
ENDBRANCH  25  30
ENDBRANCH  19  25
TORSDOF 7
ENDMDL
MODEL 5
REMARK VINA RESULT:      -8.5      1.824      2.659
REMARK  Name = NuBBE_1553
REMARK  14 active torsions:
REMARK  status: ('A' for Active; 'I' for Inactive)
REMARK    1  A    between atoms: C_1  and  C_2
REMARK    2  A    between atoms: C_8  and  C_9
REMARK    3  A    between atoms: C_12  and  O_14
REMARK    4  A    between atoms: C_15  and  C_16
REMARK    5  A    between atoms: C_15  and  C_17
REMARK    6  A    between atoms: C_22  and  C_38
REMARK    7  A    between atoms: C_23  and  C_24
REMARK    8  A    between atoms: C_24  and  C_26
REMARK    9  A    between atoms: C_24  and  C_29
REMARK   10  A    between atoms: C_26  and  O_27
REMARK   11  A    between atoms: C_29  and  C_30
REMARK   12  A    between atoms: C_30  and  C_31
REMARK   13  A    between atoms: C_32  and  C_33
REMARK   14  A    between atoms: C_32  and  C_34
REMARK                            x       y       z     vdW  Elec       q    Type
REMARK                         _______ _______ _______ _____ _____    ______ ____
ROOT
ATOM      1  C   LIG A   1      -4.208   1.623 129.453  0.00  0.00    +0.016 C 
ATOM      2  C   LIG A   1      -4.721   2.775 128.559  0.00  0.00    -0.005 C 
ATOM      3  C   LIG A   1      -4.334   4.098 129.268  0.00  0.00    -0.063 C 
ATOM      4  C   LIG A   1      -3.309   4.892 128.898  0.00  0.00    -0.026 C 
ATOM      5  C   LIG A   1      -2.799   6.039 129.713  0.00  0.00    +0.031 C 
ATOM      6  C   LIG A   1      -3.078   5.776 131.199  0.00  0.00    +0.007 C 
ATOM      7  C   LIG A   1      -4.626   5.619 131.426  0.00  0.00    -0.022 C 
ATOM      8  C   LIG A   1      -5.412   6.923 131.157  0.00  0.00    +0.012 C 
ATOM      9  C   LIG A   1      -4.829   5.218 132.917  0.00  0.00    +0.010 C 
ATOM     10  C   LIG A   1      -4.126   6.147 133.917  0.00  0.00    +0.032 C 
ATOM     11  C   LIG A   1      -2.621   6.280 133.651  0.00  0.00    +0.120 C 
ATOM     12  C   LIG A   1      -2.287   6.707 132.192  0.00  0.00    -0.005 C 
ATOM     13  C   LIG A   1      -2.552   8.217 132.017  0.00  0.00    +0.014 C 
ATOM     14  C   LIG A   1      -0.759   6.521 131.958  0.00  0.00    +0.014 C 
ATOM     15  C   LIG A   1      -5.177   4.431 130.495  0.00  0.00    +0.021 C 
ATOM     16  C   LIG A   1      -6.609   4.621 129.951  0.00  0.00    +0.009 C 
ATOM     17  C   LIG A   1      -7.160   3.360 129.271  0.00  0.00    +0.008 C 
ATOM     18  C   LIG A   1      -6.264   2.697 128.184  0.00  0.00    -0.019 C 
ATOM     19  C   LIG A   1      -6.359   3.453 126.774  0.00  0.00    +0.009 C 
ATOM     20  C   LIG A   1      -4.891   3.560 126.291  0.00  0.00    +0.006 C 
ATOM     21  C   LIG A   1      -4.086   2.620 127.168  0.00  0.00    +0.012 C 
ATOM     22  C   LIG A   1      -6.738   1.221 128.080  0.00  0.00    +0.012 C 
ENDROOT
BRANCH  11  23
ATOM     23  O   LIG A   1      -2.007   5.019 133.935  0.00  0.00    -0.391 OA
ATOM     24  H   LIG A   1      -2.140   4.446 133.161  0.00  0.00    +0.210 HD
ENDBRANCH  11  23
BRANCH  19  25
ATOM     25  C   LIG A   1      -7.241   2.852 125.627  0.00  0.00    +0.102 C 
BRANCH  25  26
ATOM     26  C   LIG A   1      -8.181   3.841 124.976  0.00  0.00    +0.308 C 
ATOM     27  O   LIG A   1      -8.969   4.591 125.535  0.00  0.00    -0.251 OA
BRANCH  26  28
ATOM     28  O   LIG A   1      -8.011   3.911 123.644  0.00  0.00    -0.480 OA
ATOM     29  H   LIG A   1      -7.096   3.598 123.493  0.00  0.00    +0.295 HD
ENDBRANCH  26  28
ENDBRANCH  25  26
BRANCH  25  30
ATOM     30  C   LIG A   1      -6.438   2.191 124.465  0.00  0.00    +0.019 C 
BRANCH  30  31
ATOM     31  C   LIG A   1      -7.033   0.873 123.950  0.00  0.00    +0.028 C 
BRANCH  31  32
ATOM     32  C   LIG A   1      -6.458  -0.314 124.676  0.00  0.00    -0.028 C 
ATOM     33  C   LIG A   1      -6.134  -1.513 124.155  0.00  0.00    -0.080 C 
ATOM     34  C   LIG A   1      -6.288  -1.898 122.708  0.00  0.00    +0.038 C 
ATOM     35  C   LIG A   1      -5.566  -2.604 125.025  0.00  0.00    +0.038 C 
ENDBRANCH  31  32
ENDBRANCH  30  31
ENDBRANCH  25  30
ENDBRANCH  19  25
TORSDOF 7
ENDMDL
MODEL 6
REMARK VINA RESULT:      -8.4      4.873      8.305
REMARK  Name = NuBBE_1553
REMARK  14 active torsions:
REMARK  status: ('A' for Active; 'I' for Inactive)
REMARK    1  A    between atoms: C_1  and  C_2
REMARK    2  A    between atoms: C_8  and  C_9
REMARK    3  A    between atoms: C_12  and  O_14
REMARK    4  A    between atoms: C_15  and  C_16
REMARK    5  A    between atoms: C_15  and  C_17
REMARK    6  A    between atoms: C_22  and  C_38
REMARK    7  A    between atoms: C_23  and  C_24
REMARK    8  A    between atoms: C_24  and  C_26
REMARK    9  A    between atoms: C_24  and  C_29
REMARK   10  A    between atoms: C_26  and  O_27
REMARK   11  A    between atoms: C_29  and  C_30
REMARK   12  A    between atoms: C_30  and  C_31
REMARK   13  A    between atoms: C_32  and  C_33
REMARK   14  A    between atoms: C_32  and  C_34
REMARK                            x       y       z     vdW  Elec       q    Type
REMARK                         _______ _______ _______ _____ _____    ______ ____
ROOT
ATOM      1  C   LIG A   1      -5.959   3.103 132.378  0.00  0.00    +0.016 C 
ATOM      2  C   LIG A   1      -7.345   3.225 131.703  0.00  0.00    -0.005 C 
ATOM      3  C   LIG A   1      -7.633   1.864 131.021  0.00  0.00    -0.063 C 
ATOM      4  C   LIG A   1      -8.472   0.928 131.507  0.00  0.00    -0.026 C 
ATOM      5  C   LIG A   1      -8.576  -0.467 130.973  0.00  0.00    +0.031 C 
ATOM      6  C   LIG A   1      -7.234  -0.878 130.351  0.00  0.00    +0.007 C 
ATOM      7  C   LIG A   1      -6.872   0.106 129.180  0.00  0.00    -0.022 C 
ATOM      8  C   LIG A   1      -7.848   0.008 127.984  0.00  0.00    +0.012 C 
ATOM      9  C   LIG A   1      -5.446  -0.278 128.687  0.00  0.00    +0.010 C 
ATOM     10  C   LIG A   1      -5.280  -1.766 128.348  0.00  0.00    +0.032 C 
ATOM     11  C   LIG A   1      -5.655  -2.688 129.514  0.00  0.00    +0.120 C 
ATOM     12  C   LIG A   1      -7.080  -2.421 130.080  0.00  0.00    -0.005 C 
ATOM     13  C   LIG A   1      -8.139  -3.023 129.132  0.00  0.00    +0.014 C 
ATOM     14  C   LIG A   1      -7.234  -3.192 131.423  0.00  0.00    +0.014 C 
ATOM     15  C   LIG A   1      -6.833   1.609 129.747  0.00  0.00    +0.021 C 
ATOM     16  C   LIG A   1      -7.295   2.705 128.764  0.00  0.00    +0.009 C 
ATOM     17  C   LIG A   1      -7.013   4.124 129.277  0.00  0.00    +0.008 C 
ATOM     18  C   LIG A   1      -7.502   4.462 130.717  0.00  0.00    -0.019 C 
ATOM     19  C   LIG A   1      -9.069   4.797 130.762  0.00  0.00    +0.009 C 
ATOM     20  C   LIG A   1      -9.596   4.021 131.996  0.00  0.00    +0.006 C 
ATOM     21  C   LIG A   1      -8.372   3.596 132.784  0.00  0.00    +0.012 C 
ATOM     22  C   LIG A   1      -6.642   5.666 131.189  0.00  0.00    +0.012 C 
ENDROOT
BRANCH  11  23
ATOM     23  O   LIG A   1      -4.685  -2.510 130.551  0.00  0.00    -0.391 OA
ATOM     24  H   LIG A   1      -3.805  -2.601 130.149  0.00  0.00    +0.210 HD
ENDBRANCH  11  23
BRANCH  19  25
ATOM     25  C   LIG A   1      -9.544   6.288 130.844  0.00  0.00    +0.102 C 
BRANCH  25  26
ATOM     26  C   LIG A   1      -9.637   6.991 129.509  0.00  0.00    +0.308 C 
ATOM     27  O   LIG A   1      -9.462   8.180 129.285  0.00  0.00    -0.251 OA
BRANCH  26  28
ATOM     28  O   LIG A   1      -9.848   6.136 128.492  0.00  0.00    -0.480 OA
ATOM     29  H   LIG A   1     -10.397   6.636 127.856  0.00  0.00    +0.295 HD
ENDBRANCH  26  28
ENDBRANCH  25  26
BRANCH  25  30
ATOM     30  C   LIG A   1     -10.925   6.496 131.538  0.00  0.00    +0.019 C 
BRANCH  30  31
ATOM     31  C   LIG A   1     -12.090   6.751 130.571  0.00  0.00    +0.028 C 
BRANCH  31  32
ATOM     32  C   LIG A   1     -12.631   8.149 130.713  0.00  0.00    -0.028 C 
ATOM     33  C   LIG A   1     -12.881   9.032 129.727  0.00  0.00    -0.080 C 
ATOM     34  C   LIG A   1     -12.661   8.779 128.260  0.00  0.00    +0.038 C 
ATOM     35  C   LIG A   1     -13.425  10.402 130.040  0.00  0.00    +0.038 C 
ENDBRANCH  31  32
ENDBRANCH  30  31
ENDBRANCH  25  30
ENDBRANCH  19  25
TORSDOF 7
ENDMDL
MODEL 7
REMARK VINA RESULT:      -8.4      4.340      9.718
REMARK  Name = NuBBE_1553
REMARK  14 active torsions:
REMARK  status: ('A' for Active; 'I' for Inactive)
REMARK    1  A    between atoms: C_1  and  C_2
REMARK    2  A    between atoms: C_8  and  C_9
REMARK    3  A    between atoms: C_12  and  O_14
REMARK    4  A    between atoms: C_15  and  C_16
REMARK    5  A    between atoms: C_15  and  C_17
REMARK    6  A    between atoms: C_22  and  C_38
REMARK    7  A    between atoms: C_23  and  C_24
REMARK    8  A    between atoms: C_24  and  C_26
REMARK    9  A    between atoms: C_24  and  C_29
REMARK   10  A    between atoms: C_26  and  O_27
REMARK   11  A    between atoms: C_29  and  C_30
REMARK   12  A    between atoms: C_30  and  C_31
REMARK   13  A    between atoms: C_32  and  C_33
REMARK   14  A    between atoms: C_32  and  C_34
REMARK                            x       y       z     vdW  Elec       q    Type
REMARK                         _______ _______ _______ _____ _____    ______ ____
ROOT
ATOM      1  C   LIG A   1      -5.242   0.625 128.638  0.00  0.00    +0.016 C 
ATOM      2  C   LIG A   1      -6.767   0.695 128.884  0.00  0.00    -0.005 C 
ATOM      3  C   LIG A   1      -7.443  -0.096 127.735  0.00  0.00    -0.063 C 
ATOM      4  C   LIG A   1      -7.953  -1.337 127.858  0.00  0.00    -0.026 C 
ATOM      5  C   LIG A   1      -8.397  -2.182 126.705  0.00  0.00    +0.031 C 
ATOM      6  C   LIG A   1      -7.604  -1.791 125.450  0.00  0.00    +0.007 C 
ATOM      7  C   LIG A   1      -7.856  -0.275 125.117  0.00  0.00    -0.022 C 
ATOM      8  C   LIG A   1      -9.317   0.019 124.704  0.00  0.00    +0.012 C 
ATOM      9  C   LIG A   1      -6.922   0.091 123.925  0.00  0.00    +0.010 C 
ATOM     10  C   LIG A   1      -7.040  -0.857 122.724  0.00  0.00    +0.032 C 
ATOM     11  C   LIG A   1      -6.798  -2.324 123.096  0.00  0.00    +0.120 C 
ATOM     12  C   LIG A   1      -7.699  -2.823 124.264  0.00  0.00    -0.005 C 
ATOM     13  C   LIG A   1      -9.128  -3.085 123.744  0.00  0.00    +0.014 C 
ATOM     14  C   LIG A   1      -7.168  -4.204 124.746  0.00  0.00    +0.014 C 
ATOM     15  C   LIG A   1      -7.444   0.619 126.387  0.00  0.00    +0.021 C 
ATOM     16  C   LIG A   1      -8.292   1.888 126.612  0.00  0.00    +0.009 C 
ATOM     17  C   LIG A   1      -7.706   2.814 127.688  0.00  0.00    +0.008 C 
ATOM     18  C   LIG A   1      -7.350   2.164 129.057  0.00  0.00    -0.019 C 
ATOM     19  C   LIG A   1      -8.640   1.961 129.987  0.00  0.00    +0.009 C 
ATOM     20  C   LIG A   1      -8.484   0.530 130.561  0.00  0.00    +0.006 C 
ATOM     21  C   LIG A   1      -7.054   0.113 130.277  0.00  0.00    +0.012 C 
ATOM     22  C   LIG A   1      -6.305   3.104 129.718  0.00  0.00    +0.012 C 
ENDROOT
BRANCH  11  23
ATOM     23  O   LIG A   1      -5.421  -2.470 123.455  0.00  0.00    -0.391 OA
ATOM     24  H   LIG A   1      -5.388  -2.775 124.378  0.00  0.00    +0.210 HD
ENDBRANCH  11  23
BRANCH  19  25
ATOM     25  C   LIG A   1      -8.919   2.963 131.159  0.00  0.00    +0.102 C 
BRANCH  25  26
ATOM     26  C   LIG A   1     -10.120   3.856 130.947  0.00  0.00    +0.308 C 
ATOM     27  O   LIG A   1     -10.920   3.814 130.023  0.00  0.00    -0.251 OA
BRANCH  26  28
ATOM     28  O   LIG A   1     -10.318   4.703 131.973  0.00  0.00    -0.480 OA
ATOM     29  H   LIG A   1     -10.736   5.490 131.568  0.00  0.00    +0.295 HD
ENDBRANCH  26  28
ENDBRANCH  25  26
BRANCH  25  30
ATOM     30  C   LIG A   1      -9.120   2.295 132.554  0.00  0.00    +0.019 C 
BRANCH  30  31
ATOM     31  C   LIG A   1      -8.135   2.768 133.632  0.00  0.00    +0.028 C 
BRANCH  31  32
ATOM     32  C   LIG A   1      -6.713   2.736 133.136  0.00  0.00    -0.028 C 
ATOM     33  C   LIG A   1      -5.834   1.720 133.238  0.00  0.00    -0.080 C 
ATOM     34  C   LIG A   1      -6.119   0.390 133.883  0.00  0.00    +0.038 C 
ATOM     35  C   LIG A   1      -4.439   1.850 132.686  0.00  0.00    +0.038 C 
ENDBRANCH  31  32
ENDBRANCH  30  31
ENDBRANCH  25  30
ENDBRANCH  19  25
TORSDOF 7
ENDMDL
MODEL 8
REMARK VINA RESULT:      -8.4      2.716      3.790
REMARK  Name = NuBBE_1553
REMARK  14 active torsions:
REMARK  status: ('A' for Active; 'I' for Inactive)
REMARK    1  A    between atoms: C_1  and  C_2
REMARK    2  A    between atoms: C_8  and  C_9
REMARK    3  A    between atoms: C_12  and  O_14
REMARK    4  A    between atoms: C_15  and  C_16
REMARK    5  A    between atoms: C_15  and  C_17
REMARK    6  A    between atoms: C_22  and  C_38
REMARK    7  A    between atoms: C_23  and  C_24
REMARK    8  A    between atoms: C_24  and  C_26
REMARK    9  A    between atoms: C_24  and  C_29
REMARK   10  A    between atoms: C_26  and  O_27
REMARK   11  A    between atoms: C_29  and  C_30
REMARK   12  A    between atoms: C_30  and  C_31
REMARK   13  A    between atoms: C_32  and  C_33
REMARK   14  A    between atoms: C_32  and  C_34
REMARK                            x       y       z     vdW  Elec       q    Type
REMARK                         _______ _______ _______ _____ _____    ______ ____
ROOT
ATOM      1  C   LIG A   1      -4.821   1.354 127.958  0.00  0.00    +0.016 C 
ATOM      2  C   LIG A   1      -5.780   2.337 127.249  0.00  0.00    -0.005 C 
ATOM      3  C   LIG A   1      -6.579   3.063 128.361  0.00  0.00    -0.063 C 
ATOM      4  C   LIG A   1      -6.342   4.324 128.774  0.00  0.00    -0.026 C 
ATOM      5  C   LIG A   1      -6.957   4.940 129.991  0.00  0.00    +0.031 C 
ATOM      6  C   LIG A   1      -7.285   3.841 131.011  0.00  0.00    +0.007 C 
ATOM      7  C   LIG A   1      -8.293   2.815 130.376  0.00  0.00    -0.022 C 
ATOM      8  C   LIG A   1      -9.680   3.433 130.082  0.00  0.00    +0.012 C 
ATOM      9  C   LIG A   1      -8.475   1.659 131.403  0.00  0.00    +0.010 C 
ATOM     10  C   LIG A   1      -8.845   2.130 132.816  0.00  0.00    +0.032 C 
ATOM     11  C   LIG A   1      -7.842   3.137 133.391  0.00  0.00    +0.120 C 
ATOM     12  C   LIG A   1      -7.595   4.362 132.464  0.00  0.00    -0.005 C 
ATOM     13  C   LIG A   1      -8.785   5.339 132.563  0.00  0.00    +0.014 C 
ATOM     14  C   LIG A   1      -6.362   5.148 132.997  0.00  0.00    +0.014 C 
ATOM     15  C   LIG A   1      -7.654   2.212 129.030  0.00  0.00    +0.021 C 
ATOM     16  C   LIG A   1      -8.657   1.884 127.905  0.00  0.00    +0.009 C 
ATOM     17  C   LIG A   1      -8.020   1.100 126.748  0.00  0.00    +0.008 C 
ATOM     18  C   LIG A   1      -6.711   1.682 126.140  0.00  0.00    -0.019 C 
ATOM     19  C   LIG A   1      -6.998   2.883 125.117  0.00  0.00    +0.009 C 
ATOM     20  C   LIG A   1      -5.956   3.967 125.488  0.00  0.00    +0.006 C 
ATOM     21  C   LIG A   1      -4.938   3.287 126.384  0.00  0.00    +0.012 C 
ATOM     22  C   LIG A   1      -5.996   0.491 125.444  0.00  0.00    +0.012 C 
ENDROOT
BRANCH  11  23
ATOM     23  O   LIG A   1      -6.607   2.451 133.621  0.00  0.00    -0.391 OA
ATOM     24  H   LIG A   1      -6.598   2.165 134.550  0.00  0.00    +0.210 HD
ENDBRANCH  11  23
BRANCH  19  25
ATOM     25  C   LIG A   1      -6.947   2.618 123.573  0.00  0.00    +0.102 C 
BRANCH  25  26
ATOM     26  C   LIG A   1      -8.301   2.528 122.907  0.00  0.00    +0.308 C 
ATOM     27  O   LIG A   1      -9.056   1.566 122.895  0.00  0.00    -0.251 OA
BRANCH  26  28
ATOM     28  O   LIG A   1      -8.688   3.698 122.369  0.00  0.00    -0.480 OA
ATOM     29  H   LIG A   1      -8.836   4.287 123.136  0.00  0.00    +0.295 HD
ENDBRANCH  26  28
ENDBRANCH  25  26
BRANCH  25  30
ATOM     30  C   LIG A   1      -6.135   3.672 122.758  0.00  0.00    +0.019 C 
BRANCH  30  31
ATOM     31  C   LIG A   1      -5.700   3.199 121.364  0.00  0.00    +0.028 C 
BRANCH  31  32
ATOM     32  C   LIG A   1      -5.448   4.361 120.440  0.00  0.00    -0.028 C 
ATOM     33  C   LIG A   1      -6.247   4.807 119.451  0.00  0.00    -0.080 C 
ATOM     34  C   LIG A   1      -7.579   4.213 119.079  0.00  0.00    +0.038 C 
ATOM     35  C   LIG A   1      -5.845   5.991 118.610  0.00  0.00    +0.038 C 
ENDBRANCH  31  32
ENDBRANCH  30  31
ENDBRANCH  25  30
ENDBRANCH  19  25
TORSDOF 7
ENDMDL
MODEL 9
REMARK VINA RESULT:      -8.4      5.948     11.220
REMARK  Name = NuBBE_1553
REMARK  14 active torsions:
REMARK  status: ('A' for Active; 'I' for Inactive)
REMARK    1  A    between atoms: C_1  and  C_2
REMARK    2  A    between atoms: C_8  and  C_9
REMARK    3  A    between atoms: C_12  and  O_14
REMARK    4  A    between atoms: C_15  and  C_16
REMARK    5  A    between atoms: C_15  and  C_17
REMARK    6  A    between atoms: C_22  and  C_38
REMARK    7  A    between atoms: C_23  and  C_24
REMARK    8  A    between atoms: C_24  and  C_26
REMARK    9  A    between atoms: C_24  and  C_29
REMARK   10  A    between atoms: C_26  and  O_27
REMARK   11  A    between atoms: C_29  and  C_30
REMARK   12  A    between atoms: C_30  and  C_31
REMARK   13  A    between atoms: C_32  and  C_33
REMARK   14  A    between atoms: C_32  and  C_34
REMARK                            x       y       z     vdW  Elec       q    Type
REMARK                         _______ _______ _______ _____ _____    ______ ____
ROOT
ATOM      1  C   LIG A   1      -3.996  -3.711 129.742  0.00  0.00    +0.016 C 
ATOM      2  C   LIG A   1      -5.182  -2.963 130.394  0.00  0.00    -0.005 C 
ATOM      3  C   LIG A   1      -6.153  -2.578 129.249  0.00  0.00    -0.063 C 
ATOM      4  C   LIG A   1      -7.310  -3.216 128.981  0.00  0.00    -0.026 C 
ATOM      5  C   LIG A   1      -8.127  -2.990 127.747  0.00  0.00    +0.031 C 
ATOM      6  C   LIG A   1      -7.211  -2.533 126.603  0.00  0.00    +0.007 C 
ATOM      7  C   LIG A   1      -6.491  -1.195 127.006  0.00  0.00    -0.022 C 
ATOM      8  C   LIG A   1      -7.467  -0.005 127.160  0.00  0.00    +0.012 C 
ATOM      9  C   LIG A   1      -5.480  -0.862 125.870  0.00  0.00    +0.010 C 
ATOM     10  C   LIG A   1      -6.096  -0.859 124.464  0.00  0.00    +0.032 C 
ATOM     11  C   LIG A   1      -6.798  -2.178 124.118  0.00  0.00    +0.120 C 
ATOM     12  C   LIG A   1      -7.861  -2.608 125.171  0.00  0.00    -0.005 C 
ATOM     13  C   LIG A   1      -9.140  -1.764 124.993  0.00  0.00    +0.014 C 
ATOM     14  C   LIG A   1      -8.283  -4.077 124.879  0.00  0.00    +0.014 C 
ATOM     15  C   LIG A   1      -5.674  -1.427 128.371  0.00  0.00    +0.021 C 
ATOM     16  C   LIG A   1      -5.599  -0.211 129.317  0.00  0.00    +0.009 C 
ATOM     17  C   LIG A   1      -4.617  -0.419 130.479  0.00  0.00    +0.008 C 
ATOM     18  C   LIG A   1      -4.774  -1.728 131.308  0.00  0.00    -0.019 C 
ATOM     19  C   LIG A   1      -5.962  -1.629 132.379  0.00  0.00    +0.009 C 
ATOM     20  C   LIG A   1      -6.718  -2.975 132.246  0.00  0.00    +0.006 C 
ATOM     21  C   LIG A   1      -5.814  -3.892 131.444  0.00  0.00    +0.012 C 
ATOM     22  C   LIG A   1      -3.400  -1.970 131.991  0.00  0.00    +0.012 C 
ENDROOT
BRANCH  11  23
ATOM     23  O   LIG A   1      -5.798  -3.195 124.002  0.00  0.00    -0.391 OA
ATOM     24  H   LIG A   1      -4.952  -2.810 124.285  0.00  0.00    +0.210 HD
ENDBRANCH  11  23
BRANCH  19  25
ATOM     25  C   LIG A   1      -5.629  -1.367 133.888  0.00  0.00    +0.102 C 
BRANCH  25  26
ATOM     26  C   LIG A   1      -5.923   0.039 134.359  0.00  0.00    +0.308 C 
ATOM     27  O   LIG A   1      -5.277   0.702 135.159  0.00  0.00    -0.251 OA
BRANCH  26  28
ATOM     28  O   LIG A   1      -6.969   0.588 133.717  0.00  0.00    -0.480 OA
ATOM     29  H   LIG A   1      -6.698   1.512 133.545  0.00  0.00    +0.295 HD
ENDBRANCH  26  28
ENDBRANCH  25  26
BRANCH  25  30
ATOM     30  C   LIG A   1      -6.353  -2.317 134.890  0.00  0.00    +0.019 C 
BRANCH  30  31
ATOM     31  C   LIG A   1      -5.413  -3.086 135.829  0.00  0.00    +0.028 C 
BRANCH  31  32
ATOM     32  C   LIG A   1      -4.218  -3.630 135.091  0.00  0.00    -0.028 C 
ATOM     33  C   LIG A   1      -4.098  -4.836 134.504  0.00  0.00    -0.080 C 
ATOM     34  C   LIG A   1      -5.168  -5.893 134.472  0.00  0.00    +0.038 C 
ATOM     35  C   LIG A   1      -2.824  -5.229 133.803  0.00  0.00    +0.038 C 
ENDBRANCH  31  32
ENDBRANCH  30  31
ENDBRANCH  25  30
ENDBRANCH  19  25
TORSDOF 7
ENDMDL
