MODEL 1
REMARK VINA RESULT:      -8.3      0.000      0.000
REMARK  Name = NuBBE_1257
REMARK  11 active torsions:
REMARK  status: ('A' for Active; 'I' for Inactive)
REMARK    1  A    between atoms: C_2  and  C_3
REMARK    2  A    between atoms: C_3  and  C_9
REMARK    3  A    between atoms: C_12  and  C_35
REMARK    4  A    between atoms: C_17  and  C_18
REMARK    5  A    between atoms: C_17  and  C_32
REMARK    6  A    between atoms: C_18  and  C_19
REMARK    7  A    between atoms: C_19  and  C_20
REMARK    8  A    between atoms: C_20  and  O_21
REMARK    9  A    between atoms: C_23  and  C_25
REMARK   10  A    between atoms: C_25  and  C_26
REMARK   11  A    between atoms: C_30  and  C_31
REMARK                            x       y       z     vdW  Elec       q    Type
REMARK                         _______ _______ _______ _____ _____    ______ ____
ROOT
ATOM      1  C   LIG A   1     -11.117   6.683 130.111  0.00  0.00    +0.036 C 
ATOM      2  C   LIG A   1     -11.920   5.422 130.465  0.00  0.00    +0.008 C 
ATOM      3  C   LIG A   1     -10.963   4.247 130.363  0.00  0.00    +0.008 C 
ATOM      4  C   LIG A   1      -9.523   4.800 130.481  0.00  0.00    -0.023 C 
ATOM      5  C   LIG A   1      -9.634   6.241 129.921  0.00  0.00    +0.002 C 
ATOM      6  C   LIG A   1      -8.628   7.253 130.502  0.00  0.00    +0.005 C 
ATOM      7  C   LIG A   1      -7.375   6.721 131.210  0.00  0.00    +0.005 C 
ATOM      8  C   LIG A   1      -7.439   5.318 131.864  0.00  0.00    +0.002 C 
ATOM      9  C   LIG A   1      -6.457   5.097 133.094  0.00  0.00    -0.022 C 
ATOM     10  C   LIG A   1      -6.464   3.552 133.449  0.00  0.00    +0.020 C 
ATOM     11  C   LIG A   1      -7.912   3.054 133.674  0.00  0.00    +0.009 C 
ATOM     12  C   LIG A   1      -8.915   3.327 132.549  0.00  0.00    +0.008 C 
ATOM     13  C   LIG A   1      -8.907   4.770 131.971  0.00  0.00    -0.023 C 
ATOM     14  C   LIG A   1      -9.769   5.607 132.956  0.00  0.00    +0.012 C 
ATOM     15  C   LIG A   1      -5.036   5.561 132.669  0.00  0.00    +0.012 C 
ATOM     16  C   LIG A   1      -8.668   3.992 129.450  0.00  0.00    +0.012 C 
ENDROOT
BRANCH   1  17
ATOM     17  C   LIG A   1     -11.729   7.480 128.927  0.00  0.00    +0.114 C 
ATOM     18  C   LIG A   1     -12.868   6.722 128.245  0.00  0.00    +0.059 C 
ATOM     19  C   LIG A   1     -12.765   7.153 126.798  0.00  0.00    +0.124 C 
ATOM     20  C   LIG A   1     -11.297   7.431 126.656  0.00  0.00    +0.308 C 
ATOM     21  O   LIG A   1     -10.734   7.583 127.897  0.00  0.00    -0.458 OA
ATOM     22  O   LIG A   1     -10.696   7.542 125.612  0.00  0.00    -0.251 OA
ATOM     23  C   LIG A   1     -12.158   8.914 129.295  0.00  0.00    +0.056 C 
ENDBRANCH   1  17
BRANCH  10  24
ATOM     24  C   LIG A   1      -5.607   2.619 132.560  0.00  0.00    -0.076 C 
ATOM     25  C   LIG A   1      -4.398   1.998 133.225  0.00  0.00    +0.038 C 
ATOM     26  C   LIG A   1      -5.879   2.242 131.299  0.00  0.00    +0.007 C 
ENDBRANCH  10  24
BRANCH   9  27
ATOM     27  C   LIG A   1      -6.838   5.966 134.349  0.00  0.00    +0.018 C 
BRANCH  27  28
ATOM     28  C   LIG A   1      -6.179   5.579 135.681  0.00  0.00    +0.121 C 
BRANCH  28  29
ATOM     29  C   LIG A   1      -7.071   5.938 136.836  0.00  0.00    +0.305 C 
ATOM     30  O   LIG A   1      -6.759   5.933 138.016  0.00  0.00    -0.251 OA
BRANCH  29  31
ATOM     31  O   LIG A   1      -8.321   6.258 136.454  0.00  0.00    -0.481 OA
ATOM     32  H   LIG A   1      -8.571   6.989 137.056  0.00  0.00    +0.295 HD
ENDBRANCH  29  31
ENDBRANCH  28  29
ENDBRANCH  27  28
ENDBRANCH   9  27
TORSDOF 6
ENDMDL
MODEL 2
REMARK VINA RESULT:      -8.3      2.387      3.169
REMARK  Name = NuBBE_1257
REMARK  11 active torsions:
REMARK  status: ('A' for Active; 'I' for Inactive)
REMARK    1  A    between atoms: C_2  and  C_3
REMARK    2  A    between atoms: C_3  and  C_9
REMARK    3  A    between atoms: C_12  and  C_35
REMARK    4  A    between atoms: C_17  and  C_18
REMARK    5  A    between atoms: C_17  and  C_32
REMARK    6  A    between atoms: C_18  and  C_19
REMARK    7  A    between atoms: C_19  and  C_20
REMARK    8  A    between atoms: C_20  and  O_21
REMARK    9  A    between atoms: C_23  and  C_25
REMARK   10  A    between atoms: C_25  and  C_26
REMARK   11  A    between atoms: C_30  and  C_31
REMARK                            x       y       z     vdW  Elec       q    Type
REMARK                         _______ _______ _______ _____ _____    ______ ____
ROOT
ATOM      1  C   LIG A   1     -10.770   7.145 129.845  0.00  0.00    +0.036 C 
ATOM      2  C   LIG A   1     -11.505   7.132 131.194  0.00  0.00    +0.008 C 
ATOM      3  C   LIG A   1     -11.534   5.689 131.667  0.00  0.00    +0.008 C 
ATOM      4  C   LIG A   1     -10.404   4.929 130.933  0.00  0.00    -0.023 C 
ATOM      5  C   LIG A   1     -10.255   5.695 129.593  0.00  0.00    +0.002 C 
ATOM      6  C   LIG A   1      -8.847   5.660 128.967  0.00  0.00    +0.005 C 
ATOM      7  C   LIG A   1      -7.863   4.577 129.430  0.00  0.00    +0.005 C 
ATOM      8  C   LIG A   1      -8.028   3.994 130.856  0.00  0.00    +0.002 C 
ATOM      9  C   LIG A   1      -6.695   3.442 131.522  0.00  0.00    -0.022 C 
ATOM     10  C   LIG A   1      -7.100   2.652 132.835  0.00  0.00    +0.020 C 
ATOM     11  C   LIG A   1      -7.967   3.542 133.757  0.00  0.00    +0.009 C 
ATOM     12  C   LIG A   1      -9.216   4.169 133.130  0.00  0.00    +0.008 C 
ATOM     13  C   LIG A   1      -9.012   4.839 131.742  0.00  0.00    -0.023 C 
ATOM     14  C   LIG A   1      -8.446   6.252 132.052  0.00  0.00    +0.012 C 
ATOM     15  C   LIG A   1      -5.999   2.498 130.502  0.00  0.00    +0.012 C 
ATOM     16  C   LIG A   1     -10.994   3.525 130.574  0.00  0.00    +0.012 C 
ENDROOT
BRANCH   1  17
ATOM     17  C   LIG A   1     -11.619   7.756 128.698  0.00  0.00    +0.114 C 
ATOM     18  C   LIG A   1     -12.571   6.736 128.073  0.00  0.00    +0.059 C 
ATOM     19  C   LIG A   1     -12.651   7.167 126.624  0.00  0.00    +0.124 C 
ATOM     20  C   LIG A   1     -11.306   7.795 126.408  0.00  0.00    +0.308 C 
ATOM     21  O   LIG A   1     -10.734   8.092 127.618  0.00  0.00    -0.458 OA
ATOM     22  O   LIG A   1     -10.805   8.042 125.334  0.00  0.00    -0.251 OA
ATOM     23  C   LIG A   1     -12.367   9.044 129.094  0.00  0.00    +0.056 C 
ENDBRANCH   1  17
BRANCH  10  24
ATOM     24  C   LIG A   1      -7.641   1.213 132.656  0.00  0.00    -0.076 C 
ATOM     25  C   LIG A   1      -6.772   0.105 133.211  0.00  0.00    +0.038 C 
ATOM     26  C   LIG A   1      -8.833   0.863 132.142  0.00  0.00    +0.007 C 
ENDBRANCH  10  24
BRANCH   9  27
ATOM     27  C   LIG A   1      -5.653   4.575 131.843  0.00  0.00    +0.018 C 
BRANCH  27  28
ATOM     28  C   LIG A   1      -4.564   4.828 130.790  0.00  0.00    +0.121 C 
BRANCH  28  29
ATOM     29  C   LIG A   1      -4.885   6.053 129.981  0.00  0.00    +0.305 C 
ATOM     30  O   LIG A   1      -5.386   7.084 130.402  0.00  0.00    -0.251 OA
BRANCH  29  31
ATOM     31  O   LIG A   1      -4.586   5.913 128.677  0.00  0.00    -0.481 OA
ATOM     32  H   LIG A   1      -5.329   6.354 128.216  0.00  0.00    +0.295 HD
ENDBRANCH  29  31
ENDBRANCH  28  29
ENDBRANCH  27  28
ENDBRANCH   9  27
TORSDOF 6
ENDMDL
MODEL 3
REMARK VINA RESULT:      -8.3      6.715     10.951
REMARK  Name = NuBBE_1257
REMARK  11 active torsions:
REMARK  status: ('A' for Active; 'I' for Inactive)
REMARK    1  A    between atoms: C_2  and  C_3
REMARK    2  A    between atoms: C_3  and  C_9
REMARK    3  A    between atoms: C_12  and  C_35
REMARK    4  A    between atoms: C_17  and  C_18
REMARK    5  A    between atoms: C_17  and  C_32
REMARK    6  A    between atoms: C_18  and  C_19
REMARK    7  A    between atoms: C_19  and  C_20
REMARK    8  A    between atoms: C_20  and  O_21
REMARK    9  A    between atoms: C_23  and  C_25
REMARK   10  A    between atoms: C_25  and  C_26
REMARK   11  A    between atoms: C_30  and  C_31
REMARK                            x       y       z     vdW  Elec       q    Type
REMARK                         _______ _______ _______ _____ _____    ______ ____
ROOT
ATOM      1  C   LIG A   1      -6.306  -1.643 131.312  0.00  0.00    +0.036 C 
ATOM      2  C   LIG A   1      -5.183  -0.627 131.054  0.00  0.00    +0.008 C 
ATOM      3  C   LIG A   1      -4.466  -1.072 129.792  0.00  0.00    +0.008 C 
ATOM      4  C   LIG A   1      -5.428  -1.991 129.002  0.00  0.00    -0.023 C 
ATOM      5  C   LIG A   1      -6.316  -2.627 130.102  0.00  0.00    +0.002 C 
ATOM      6  C   LIG A   1      -7.739  -3.014 129.657  0.00  0.00    +0.005 C 
ATOM      7  C   LIG A   1      -8.027  -3.159 128.156  0.00  0.00    +0.005 C 
ATOM      8  C   LIG A   1      -7.159  -2.349 127.160  0.00  0.00    +0.002 C 
ATOM      9  C   LIG A   1      -7.866  -1.990 125.782  0.00  0.00    -0.022 C 
ATOM     10  C   LIG A   1      -6.758  -1.416 124.804  0.00  0.00    +0.020 C 
ATOM     11  C   LIG A   1      -6.001  -0.243 125.473  0.00  0.00    +0.009 C 
ATOM     12  C   LIG A   1      -5.380  -0.520 126.846  0.00  0.00    +0.008 C 
ATOM     13  C   LIG A   1      -6.300  -1.244 127.870  0.00  0.00    -0.023 C 
ATOM     14  C   LIG A   1      -7.185  -0.125 128.484  0.00  0.00    +0.012 C 
ATOM     15  C   LIG A   1      -8.491  -3.291 125.205  0.00  0.00    +0.012 C 
ATOM     16  C   LIG A   1      -4.542  -3.146 128.429  0.00  0.00    +0.012 C 
ENDROOT
BRANCH   1  17
ATOM     17  C   LIG A   1      -6.212  -2.311 132.710  0.00  0.00    +0.114 C 
ATOM     18  C   LIG A   1      -5.718  -3.756 132.631  0.00  0.00    +0.059 C 
ATOM     19  C   LIG A   1      -6.431  -4.438 133.779  0.00  0.00    +0.124 C 
ATOM     20  C   LIG A   1      -7.697  -3.640 133.881  0.00  0.00    +0.308 C 
ATOM     21  O   LIG A   1      -7.542  -2.442 133.233  0.00  0.00    -0.458 OA
ATOM     22  O   LIG A   1      -8.698  -3.974 134.474  0.00  0.00    -0.251 OA
ATOM     23  C   LIG A   1      -5.394  -1.501 133.735  0.00  0.00    +0.056 C 
ENDBRANCH   1  17
BRANCH  10  24
ATOM     24  C   LIG A   1      -5.837  -2.440 124.099  0.00  0.00    -0.076 C 
ATOM     25  C   LIG A   1      -5.812  -2.377 122.587  0.00  0.00    +0.038 C 
ATOM     26  C   LIG A   1      -5.001  -3.309 124.693  0.00  0.00    +0.007 C 
ENDBRANCH  10  24
BRANCH   9  27
ATOM     27  C   LIG A   1      -9.055  -0.974 125.947  0.00  0.00    +0.018 C 
BRANCH  27  28
ATOM     28  C   LIG A   1      -9.341  -0.049 124.755  0.00  0.00    +0.121 C 
BRANCH  28  29
ATOM     29  C   LIG A   1      -9.445   1.380 125.209  0.00  0.00    +0.305 C 
ATOM     30  O   LIG A   1      -8.954   1.852 126.221  0.00  0.00    -0.251 OA
BRANCH  29  31
ATOM     31  O   LIG A   1     -10.185   2.140 124.381  0.00  0.00    -0.481 OA
ATOM     32  H   LIG A   1     -11.109   1.894 124.597  0.00  0.00    +0.295 HD
ENDBRANCH  29  31
ENDBRANCH  28  29
ENDBRANCH  27  28
ENDBRANCH   9  27
TORSDOF 6
ENDMDL
MODEL 4
REMARK VINA RESULT:      -8.0      6.871      9.355
REMARK  Name = NuBBE_1257
REMARK  11 active torsions:
REMARK  status: ('A' for Active; 'I' for Inactive)
REMARK    1  A    between atoms: C_2  and  C_3
REMARK    2  A    between atoms: C_3  and  C_9
REMARK    3  A    between atoms: C_12  and  C_35
REMARK    4  A    between atoms: C_17  and  C_18
REMARK    5  A    between atoms: C_17  and  C_32
REMARK    6  A    between atoms: C_18  and  C_19
REMARK    7  A    between atoms: C_19  and  C_20
REMARK    8  A    between atoms: C_20  and  O_21
REMARK    9  A    between atoms: C_23  and  C_25
REMARK   10  A    between atoms: C_25  and  C_26
REMARK   11  A    between atoms: C_30  and  C_31
REMARK                            x       y       z     vdW  Elec       q    Type
REMARK                         _______ _______ _______ _____ _____    ______ ____
ROOT
ATOM      1  C   LIG A   1      -6.794  -2.502 125.964  0.00  0.00    +0.036 C 
ATOM      2  C   LIG A   1      -5.604  -1.549 125.770  0.00  0.00    +0.008 C 
ATOM      3  C   LIG A   1      -5.689  -0.509 126.873  0.00  0.00    +0.008 C 
ATOM      4  C   LIG A   1      -6.554  -1.097 128.012  0.00  0.00    -0.023 C 
ATOM      5  C   LIG A   1      -7.510  -2.074 127.281  0.00  0.00    +0.002 C 
ATOM      6  C   LIG A   1      -7.991  -3.274 128.118  0.00  0.00    +0.005 C 
ATOM      7  C   LIG A   1      -7.873  -3.200 129.646  0.00  0.00    +0.005 C 
ATOM      8  C   LIG A   1      -6.771  -2.296 130.256  0.00  0.00    +0.002 C 
ATOM      9  C   LIG A   1      -6.245  -2.741 131.688  0.00  0.00    -0.022 C 
ATOM     10  C   LIG A   1      -5.343  -1.568 132.258  0.00  0.00    +0.020 C 
ATOM     11  C   LIG A   1      -4.234  -1.196 131.244  0.00  0.00    +0.009 C 
ATOM     12  C   LIG A   1      -4.691  -0.848 129.825  0.00  0.00    +0.008 C 
ATOM     13  C   LIG A   1      -5.723  -1.822 129.188  0.00  0.00    -0.023 C 
ATOM     14  C   LIG A   1      -4.878  -3.005 128.638  0.00  0.00    +0.012 C 
ATOM     15  C   LIG A   1      -7.478  -2.984 132.603  0.00  0.00    +0.012 C 
ATOM     16  C   LIG A   1      -7.441   0.083 128.529  0.00  0.00    +0.012 C 
ENDROOT
BRANCH   1  17
ATOM     17  C   LIG A   1      -7.708  -2.594 124.712  0.00  0.00    +0.114 C 
ATOM     18  C   LIG A   1      -6.961  -2.254 123.422  0.00  0.00    +0.059 C 
ATOM     19  C   LIG A   1      -8.022  -1.610 122.556  0.00  0.00    +0.124 C 
ATOM     20  C   LIG A   1      -8.929  -0.991 123.579  0.00  0.00    +0.308 C 
ATOM     21  O   LIG A   1      -8.699  -1.560 124.805  0.00  0.00    -0.458 OA
ATOM     22  O   LIG A   1      -9.765  -0.144 123.362  0.00  0.00    -0.251 OA
ATOM     23  C   LIG A   1      -8.456  -3.935 124.583  0.00  0.00    +0.056 C 
ENDBRANCH   1  17
BRANCH  10  24
ATOM     24  C   LIG A   1      -6.072  -0.349 132.872  0.00  0.00    -0.076 C 
ATOM     25  C   LIG A   1      -5.866  -0.132 134.356  0.00  0.00    +0.038 C 
ATOM     26  C   LIG A   1      -6.788   0.574 132.208  0.00  0.00    +0.007 C 
ENDBRANCH  10  24
BRANCH   9  27
ATOM     27  C   LIG A   1      -5.453  -4.100 131.658  0.00  0.00    +0.018 C 
BRANCH  27  28
ATOM     28  C   LIG A   1      -5.313  -4.844 132.994  0.00  0.00    +0.121 C 
BRANCH  28  29
ATOM     29  C   LIG A   1      -3.874  -5.187 133.260  0.00  0.00    +0.305 C 
ATOM     30  O   LIG A   1      -3.467  -6.168 133.862  0.00  0.00    -0.251 OA
BRANCH  29  31
ATOM     31  O   LIG A   1      -3.019  -4.266 132.780  0.00  0.00    -0.481 OA
ATOM     32  H   LIG A   1      -2.194  -4.425 133.285  0.00  0.00    +0.295 HD
ENDBRANCH  29  31
ENDBRANCH  28  29
ENDBRANCH  27  28
ENDBRANCH   9  27
TORSDOF 6
ENDMDL
MODEL 5
REMARK VINA RESULT:      -7.7      7.309     11.531
REMARK  Name = NuBBE_1257
REMARK  11 active torsions:
REMARK  status: ('A' for Active; 'I' for Inactive)
REMARK    1  A    between atoms: C_2  and  C_3
REMARK    2  A    between atoms: C_3  and  C_9
REMARK    3  A    between atoms: C_12  and  C_35
REMARK    4  A    between atoms: C_17  and  C_18
REMARK    5  A    between atoms: C_17  and  C_32
REMARK    6  A    between atoms: C_18  and  C_19
REMARK    7  A    between atoms: C_19  and  C_20
REMARK    8  A    between atoms: C_20  and  O_21
REMARK    9  A    between atoms: C_23  and  C_25
REMARK   10  A    between atoms: C_25  and  C_26
REMARK   11  A    between atoms: C_30  and  C_31
REMARK                            x       y       z     vdW  Elec       q    Type
REMARK                         _______ _______ _______ _____ _____    ______ ____
ROOT
ATOM      1  C   LIG A   1      -6.446  -3.007 131.065  0.00  0.00    +0.036 C 
ATOM      2  C   LIG A   1      -7.572  -2.052 131.489  0.00  0.00    +0.008 C 
ATOM      3  C   LIG A   1      -7.339  -0.743 130.757  0.00  0.00    +0.008 C 
ATOM      4  C   LIG A   1      -6.447  -1.041 129.529  0.00  0.00    -0.023 C 
ATOM      5  C   LIG A   1      -5.616  -2.274 129.968  0.00  0.00    +0.002 C 
ATOM      6  C   LIG A   1      -5.171  -3.209 128.828  0.00  0.00    +0.005 C 
ATOM      7  C   LIG A   1      -5.183  -2.673 127.390  0.00  0.00    +0.005 C 
ATOM      8  C   LIG A   1      -6.172  -1.533 127.038  0.00  0.00    +0.002 C 
ATOM      9  C   LIG A   1      -6.635  -1.482 125.518  0.00  0.00    -0.022 C 
ATOM     10  C   LIG A   1      -7.409  -0.117 125.293  0.00  0.00    +0.020 C 
ATOM     11  C   LIG A   1      -8.551   0.036 126.327  0.00  0.00    +0.009 C 
ATOM     12  C   LIG A   1      -8.163  -0.097 127.803  0.00  0.00    +0.008 C 
ATOM     13  C   LIG A   1      -7.251  -1.306 128.156  0.00  0.00    -0.023 C 
ATOM     14  C   LIG A   1      -8.214  -2.517 128.290  0.00  0.00    +0.012 C 
ATOM     15  C   LIG A   1      -5.367  -1.553 124.623  0.00  0.00    +0.012 C 
ATOM     16  C   LIG A   1      -5.442   0.154 129.428  0.00  0.00    +0.012 C 
ENDROOT
BRANCH   1  17
ATOM     17  C   LIG A   1      -5.626  -3.550 132.267  0.00  0.00    +0.114 C 
ATOM     18  C   LIG A   1      -5.267  -5.027 132.105  0.00  0.00    +0.059 C 
ATOM     19  C   LIG A   1      -5.262  -5.549 133.525  0.00  0.00    +0.124 C 
ATOM     20  C   LIG A   1      -6.269  -4.657 134.191  0.00  0.00    +0.308 C 
ATOM     21  O   LIG A   1      -6.472  -3.537 133.426  0.00  0.00    -0.458 OA
ATOM     22  O   LIG A   1      -6.801  -4.864 135.258  0.00  0.00    -0.251 OA
ATOM     23  C   LIG A   1      -4.378  -2.709 132.601  0.00  0.00    +0.056 C 
ENDBRANCH   1  17
BRANCH  10  24
ATOM     24  C   LIG A   1      -6.553   1.158 125.106  0.00  0.00    -0.076 C 
ATOM     25  C   LIG A   1      -6.797   1.939 123.832  0.00  0.00    +0.038 C 
ATOM     26  C   LIG A   1      -5.690   1.682 125.994  0.00  0.00    +0.007 C 
ENDBRANCH  10  24
BRANCH   9  27
ATOM     27  C   LIG A   1      -7.525  -2.711 125.105  0.00  0.00    +0.018 C 
BRANCH  27  28
ATOM     28  C   LIG A   1      -7.841  -2.861 123.609  0.00  0.00    +0.121 C 
BRANCH  28  29
ATOM     29  C   LIG A   1      -9.284  -2.539 123.338  0.00  0.00    +0.305 C 
ATOM     30  O   LIG A   1      -9.724  -1.465 122.961  0.00  0.00    -0.251 OA
BRANCH  29  31
ATOM     31  O   LIG A   1     -10.106  -3.576 123.580  0.00  0.00    -0.481 OA
ATOM     32  H   LIG A   1      -9.516  -4.358 123.545  0.00  0.00    +0.295 HD
ENDBRANCH  29  31
ENDBRANCH  28  29
ENDBRANCH  27  28
ENDBRANCH   9  27
TORSDOF 6
ENDMDL
MODEL 6
REMARK VINA RESULT:      -7.7      4.726      7.564
REMARK  Name = NuBBE_1257
REMARK  11 active torsions:
REMARK  status: ('A' for Active; 'I' for Inactive)
REMARK    1  A    between atoms: C_2  and  C_3
REMARK    2  A    between atoms: C_3  and  C_9
REMARK    3  A    between atoms: C_12  and  C_35
REMARK    4  A    between atoms: C_17  and  C_18
REMARK    5  A    between atoms: C_17  and  C_32
REMARK    6  A    between atoms: C_18  and  C_19
REMARK    7  A    between atoms: C_19  and  C_20
REMARK    8  A    between atoms: C_20  and  O_21
REMARK    9  A    between atoms: C_23  and  C_25
REMARK   10  A    between atoms: C_25  and  C_26
REMARK   11  A    between atoms: C_30  and  C_31
REMARK                            x       y       z     vdW  Elec       q    Type
REMARK                         _______ _______ _______ _____ _____    ______ ____
ROOT
ATOM      1  C   LIG A   1      -8.564   3.576 129.505  0.00  0.00    +0.036 C 
ATOM      2  C   LIG A   1      -7.652   3.972 128.333  0.00  0.00    +0.008 C 
ATOM      3  C   LIG A   1      -6.343   3.227 128.523  0.00  0.00    +0.008 C 
ATOM      4  C   LIG A   1      -6.617   2.016 129.446  0.00  0.00    -0.023 C 
ATOM      5  C   LIG A   1      -7.809   2.483 130.321  0.00  0.00    +0.002 C 
ATOM      6  C   LIG A   1      -8.737   1.360 130.821  0.00  0.00    +0.005 C 
ATOM      7  C   LIG A   1      -8.219  -0.084 130.809  0.00  0.00    +0.005 C 
ATOM      8  C   LIG A   1      -7.125  -0.464 129.778  0.00  0.00    +0.002 C 
ATOM      9  C   LIG A   1      -7.111  -1.991 129.338  0.00  0.00    -0.022 C 
ATOM     10  C   LIG A   1      -5.782  -2.244 128.511  0.00  0.00    +0.020 C 
ATOM     11  C   LIG A   1      -5.665  -1.229 127.348  0.00  0.00    +0.009 C 
ATOM     12  C   LIG A   1      -5.765   0.253 127.718  0.00  0.00    +0.008 C 
ATOM     13  C   LIG A   1      -6.931   0.635 128.675  0.00  0.00    -0.023 C 
ATOM     14  C   LIG A   1      -8.180   0.768 127.760  0.00  0.00    +0.012 C 
ATOM     15  C   LIG A   1      -7.138  -2.867 130.621  0.00  0.00    +0.012 C 
ATOM     16  C   LIG A   1      -5.382   1.916 130.401  0.00  0.00    +0.012 C 
ENDROOT
BRANCH   1  17
ATOM     17  C   LIG A   1      -9.058   4.795 130.329  0.00  0.00    +0.114 C 
ATOM     18  C   LIG A   1     -10.582   4.840 130.442  0.00  0.00    +0.059 C 
ATOM     19  C   LIG A   1     -10.891   6.321 130.484  0.00  0.00    +0.124 C 
ATOM     20  C   LIG A   1      -9.762   6.901 129.684  0.00  0.00    +0.308 C 
ATOM     21  O   LIG A   1      -8.743   5.987 129.593  0.00  0.00    -0.458 OA
ATOM     22  O   LIG A   1      -9.726   8.016 129.217  0.00  0.00    -0.251 OA
ATOM     23  C   LIG A   1      -8.395   4.923 131.714  0.00  0.00    +0.056 C 
ENDBRANCH   1  17
BRANCH  10  24
ATOM     24  C   LIG A   1      -4.474  -2.433 129.316  0.00  0.00    -0.076 C 
ATOM     25  C   LIG A   1      -3.742  -3.739 129.092  0.00  0.00    +0.038 C 
ATOM     26  C   LIG A   1      -3.886  -1.527 130.115  0.00  0.00    +0.007 C 
ENDBRANCH  10  24
BRANCH   9  27
ATOM     27  C   LIG A   1      -8.381  -2.403 128.506  0.00  0.00    +0.018 C 
BRANCH  27  28
ATOM     28  C   LIG A   1      -8.224  -3.602 127.559  0.00  0.00    +0.121 C 
BRANCH  28  29
ATOM     29  C   LIG A   1      -8.701  -3.251 126.177  0.00  0.00    +0.305 C 
ATOM     30  O   LIG A   1      -9.837  -2.934 125.866  0.00  0.00    -0.251 OA
BRANCH  29  31
ATOM     31  O   LIG A   1      -7.731  -3.341 125.249  0.00  0.00    -0.481 OA
ATOM     32  H   LIG A   1      -6.911  -3.128 125.743  0.00  0.00    +0.295 HD
ENDBRANCH  29  31
ENDBRANCH  28  29
ENDBRANCH  27  28
ENDBRANCH   9  27
TORSDOF 6
ENDMDL
MODEL 7
REMARK VINA RESULT:      -7.7      5.213      7.412
REMARK  Name = NuBBE_1257
REMARK  11 active torsions:
REMARK  status: ('A' for Active; 'I' for Inactive)
REMARK    1  A    between atoms: C_2  and  C_3
REMARK    2  A    between atoms: C_3  and  C_9
REMARK    3  A    between atoms: C_12  and  C_35
REMARK    4  A    between atoms: C_17  and  C_18
REMARK    5  A    between atoms: C_17  and  C_32
REMARK    6  A    between atoms: C_18  and  C_19
REMARK    7  A    between atoms: C_19  and  C_20
REMARK    8  A    between atoms: C_20  and  O_21
REMARK    9  A    between atoms: C_23  and  C_25
REMARK   10  A    between atoms: C_25  and  C_26
REMARK   11  A    between atoms: C_30  and  C_31
REMARK                            x       y       z     vdW  Elec       q    Type
REMARK                         _______ _______ _______ _____ _____    ______ ____
ROOT
ATOM      1  C   LIG A   1      -7.762  -1.740 126.358  0.00  0.00    +0.036 C 
ATOM      2  C   LIG A   1      -6.613  -2.498 127.041  0.00  0.00    +0.008 C 
ATOM      3  C   LIG A   1      -5.540  -1.473 127.365  0.00  0.00    +0.008 C 
ATOM      4  C   LIG A   1      -6.210  -0.079 127.387  0.00  0.00    -0.023 C 
ATOM      5  C   LIG A   1      -7.397  -0.225 126.400  0.00  0.00    +0.002 C 
ATOM      6  C   LIG A   1      -8.611   0.676 126.693  0.00  0.00    +0.005 C 
ATOM      7  C   LIG A   1      -8.419   1.898 127.601  0.00  0.00    +0.005 C 
ATOM      8  C   LIG A   1      -7.284   1.860 128.655  0.00  0.00    +0.002 C 
ATOM      9  C   LIG A   1      -7.527   2.754 129.947  0.00  0.00    -0.022 C 
ATOM     10  C   LIG A   1      -6.169   2.804 130.764  0.00  0.00    +0.020 C 
ATOM     11  C   LIG A   1      -5.656   1.372 131.051  0.00  0.00    +0.009 C 
ATOM     12  C   LIG A   1      -5.494   0.446 129.842  0.00  0.00    +0.008 C 
ATOM     13  C   LIG A   1      -6.686   0.420 128.844  0.00  0.00    -0.023 C 
ATOM     14  C   LIG A   1      -7.717  -0.560 129.469  0.00  0.00    +0.012 C 
ATOM     15  C   LIG A   1      -7.943   4.177 129.480  0.00  0.00    +0.012 C 
ATOM     16  C   LIG A   1      -5.191   0.896 126.709  0.00  0.00    +0.012 C 
ENDROOT
BRANCH   1  17
ATOM     17  C   LIG A   1      -8.107  -2.301 124.952  0.00  0.00    +0.114 C 
ATOM     18  C   LIG A   1      -7.069  -1.909 123.900  0.00  0.00    +0.059 C 
ATOM     19  C   LIG A   1      -7.883  -1.780 122.630  0.00  0.00    +0.124 C 
ATOM     20  C   LIG A   1      -9.226  -1.367 123.158  0.00  0.00    +0.308 C 
ATOM     21  O   LIG A   1      -9.305  -1.655 124.496  0.00  0.00    -0.458 OA
ATOM     22  O   LIG A   1     -10.124  -0.886 122.505  0.00  0.00    -0.251 OA
ATOM     23  C   LIG A   1      -8.370  -3.819 124.933  0.00  0.00    +0.056 C 
ENDBRANCH   1  17
BRANCH  10  24
ATOM     24  C   LIG A   1      -5.076   3.776 130.260  0.00  0.00    -0.076 C 
ATOM     25  C   LIG A   1      -4.755   4.942 131.172  0.00  0.00    +0.038 C 
ATOM     26  C   LIG A   1      -4.332   3.640 129.150  0.00  0.00    +0.007 C 
ENDBRANCH  10  24
BRANCH   9  27
ATOM     27  C   LIG A   1      -8.708   2.230 130.844  0.00  0.00    +0.018 C 
BRANCH  27  28
ATOM     28  C   LIG A   1      -9.456   3.279 131.679  0.00  0.00    +0.121 C 
BRANCH  28  29
ATOM     29  C   LIG A   1      -9.150   3.108 133.141  0.00  0.00    +0.305 C 
ATOM     30  O   LIG A   1      -8.323   2.349 133.620  0.00  0.00    -0.251 OA
BRANCH  29  31
ATOM     31  O   LIG A   1      -9.919   3.878 133.931  0.00  0.00    -0.481 OA
ATOM     32  H   LIG A   1     -10.701   4.079 133.376  0.00  0.00    +0.295 HD
ENDBRANCH  29  31
ENDBRANCH  28  29
ENDBRANCH  27  28
ENDBRANCH   9  27
TORSDOF 6
ENDMDL
MODEL 8
REMARK VINA RESULT:      -7.7      5.212      9.457
REMARK  Name = NuBBE_1257
REMARK  11 active torsions:
REMARK  status: ('A' for Active; 'I' for Inactive)
REMARK    1  A    between atoms: C_2  and  C_3
REMARK    2  A    between atoms: C_3  and  C_9
REMARK    3  A    between atoms: C_12  and  C_35
REMARK    4  A    between atoms: C_17  and  C_18
REMARK    5  A    between atoms: C_17  and  C_32
REMARK    6  A    between atoms: C_18  and  C_19
REMARK    7  A    between atoms: C_19  and  C_20
REMARK    8  A    between atoms: C_20  and  O_21
REMARK    9  A    between atoms: C_23  and  C_25
REMARK   10  A    between atoms: C_25  and  C_26
REMARK   11  A    between atoms: C_30  and  C_31
REMARK                            x       y       z     vdW  Elec       q    Type
REMARK                         _______ _______ _______ _____ _____    ______ ____
ROOT
ATOM      1  C   LIG A   1      -5.568   1.125 130.028  0.00  0.00    +0.036 C 
ATOM      2  C   LIG A   1      -4.470   0.059 129.889  0.00  0.00    +0.008 C 
ATOM      3  C   LIG A   1      -5.132  -1.185 129.324  0.00  0.00    +0.008 C 
ATOM      4  C   LIG A   1      -6.444  -0.748 128.631  0.00  0.00    -0.023 C 
ATOM      5  C   LIG A   1      -6.867   0.523 129.413  0.00  0.00    +0.002 C 
ATOM      6  C   LIG A   1      -7.680   1.552 128.604  0.00  0.00    +0.005 C 
ATOM      7  C   LIG A   1      -8.363   1.097 127.308  0.00  0.00    +0.005 C 
ATOM      8  C   LIG A   1      -7.752  -0.100 126.536  0.00  0.00    +0.002 C 
ATOM      9  C   LIG A   1      -8.023  -0.106 124.969  0.00  0.00    -0.022 C 
ATOM     10  C   LIG A   1      -7.569  -1.515 124.404  0.00  0.00    +0.020 C 
ATOM     11  C   LIG A   1      -6.107  -1.818 124.813  0.00  0.00    +0.009 C 
ATOM     12  C   LIG A   1      -5.780  -1.734 126.307  0.00  0.00    +0.008 C 
ATOM     13  C   LIG A   1      -6.316  -0.476 127.047  0.00  0.00    -0.023 C 
ATOM     14  C   LIG A   1      -5.281   0.643 126.748  0.00  0.00    +0.012 C 
ATOM     15  C   LIG A   1      -9.544   0.117 124.740  0.00  0.00    +0.012 C 
ATOM     16  C   LIG A   1      -7.500  -1.850 128.979  0.00  0.00    +0.012 C 
ENDROOT
BRANCH   1  17
ATOM     17  C   LIG A   1      -5.708   1.667 131.476  0.00  0.00    +0.114 C 
ATOM     18  C   LIG A   1      -6.822   0.965 132.253  0.00  0.00    +0.059 C 
ATOM     19  C   LIG A   1      -7.346   2.044 133.175  0.00  0.00    +0.124 C 
ATOM     20  C   LIG A   1      -7.081   3.291 132.383  0.00  0.00    +0.308 C 
ATOM     21  O   LIG A   1      -6.160   3.027 131.402  0.00  0.00    -0.458 OA
ATOM     22  O   LIG A   1      -7.570   4.378 132.590  0.00  0.00    -0.251 OA
ATOM     23  C   LIG A   1      -4.389   1.665 132.274  0.00  0.00    +0.056 C 
ENDBRANCH   1  17
BRANCH  10  24
ATOM     24  C   LIG A   1      -8.538  -2.704 124.607  0.00  0.00    -0.076 C 
ATOM     25  C   LIG A   1      -9.326  -3.131 123.387  0.00  0.00    +0.038 C 
ATOM     26  C   LIG A   1      -8.682  -3.441 125.722  0.00  0.00    +0.007 C 
ENDBRANCH  10  24
BRANCH   9  27
ATOM     27  C   LIG A   1      -7.295   1.067 124.215  0.00  0.00    +0.018 C 
BRANCH  27  28
ATOM     28  C   LIG A   1      -8.187   2.187 123.661  0.00  0.00    +0.121 C 
BRANCH  28  29
ATOM     29  C   LIG A   1      -7.952   3.469 124.409  0.00  0.00    +0.305 C 
ATOM     30  O   LIG A   1      -6.913   4.111 124.431  0.00  0.00    -0.251 OA
BRANCH  29  31
ATOM     31  O   LIG A   1      -9.025   3.869 125.116  0.00  0.00    -0.481 OA
ATOM     32  H   LIG A   1      -9.255   4.737 124.725  0.00  0.00    +0.295 HD
ENDBRANCH  29  31
ENDBRANCH  28  29
ENDBRANCH  27  28
ENDBRANCH   9  27
TORSDOF 6
ENDMDL
MODEL 9
REMARK VINA RESULT:      -7.5      2.840      4.837
REMARK  Name = NuBBE_1257
REMARK  11 active torsions:
REMARK  status: ('A' for Active; 'I' for Inactive)
REMARK    1  A    between atoms: C_2  and  C_3
REMARK    2  A    between atoms: C_3  and  C_9
REMARK    3  A    between atoms: C_12  and  C_35
REMARK    4  A    between atoms: C_17  and  C_18
REMARK    5  A    between atoms: C_17  and  C_32
REMARK    6  A    between atoms: C_18  and  C_19
REMARK    7  A    between atoms: C_19  and  C_20
REMARK    8  A    between atoms: C_20  and  O_21
REMARK    9  A    between atoms: C_23  and  C_25
REMARK   10  A    between atoms: C_25  and  C_26
REMARK   11  A    between atoms: C_30  and  C_31
REMARK                            x       y       z     vdW  Elec       q    Type
REMARK                         _______ _______ _______ _____ _____    ______ ____
ROOT
ATOM      1  C   LIG A   1      -9.362   5.573 131.263  0.00  0.00    +0.036 C 
ATOM      2  C   LIG A   1      -9.232   5.994 132.736  0.00  0.00    +0.008 C 
ATOM      3  C   LIG A   1      -8.677   4.797 133.488  0.00  0.00    +0.008 C 
ATOM      4  C   LIG A   1      -7.982   3.873 132.460  0.00  0.00    -0.023 C 
ATOM      5  C   LIG A   1      -8.753   4.144 131.142  0.00  0.00    +0.002 C 
ATOM      6  C   LIG A   1      -7.937   3.947 129.850  0.00  0.00    +0.005 C 
ATOM      7  C   LIG A   1      -6.645   3.122 129.914  0.00  0.00    +0.005 C 
ATOM      8  C   LIG A   1      -5.882   3.053 131.261  0.00  0.00    +0.002 C 
ATOM      9  C   LIG A   1      -4.316   2.807 131.142  0.00  0.00    -0.022 C 
ATOM     10  C   LIG A   1      -3.762   2.496 132.594  0.00  0.00    +0.020 C 
ATOM     11  C   LIG A   1      -4.172   3.615 133.582  0.00  0.00    +0.009 C 
ATOM     12  C   LIG A   1      -5.665   3.948 133.662  0.00  0.00    +0.008 C 
ATOM     13  C   LIG A   1      -6.396   4.113 132.299  0.00  0.00    -0.023 C 
ATOM     14  C   LIG A   1      -6.086   5.567 131.846  0.00  0.00    +0.012 C 
ATOM     15  C   LIG A   1      -4.087   1.598 130.192  0.00  0.00    +0.012 C 
ATOM     16  C   LIG A   1      -8.339   2.411 132.887  0.00  0.00    +0.012 C 
ENDROOT
BRANCH   1  17
ATOM     17  C   LIG A   1     -10.806   5.728 130.714  0.00  0.00    +0.114 C 
ATOM     18  C   LIG A   1     -10.895   6.774 129.603  0.00  0.00    +0.059 C 
ATOM     19  C   LIG A   1     -12.280   7.360 129.778  0.00  0.00    +0.124 C 
ATOM     20  C   LIG A   1     -12.506   7.200 131.253  0.00  0.00    +0.308 C 
ATOM     21  O   LIG A   1     -11.624   6.279 131.758  0.00  0.00    -0.458 OA
ATOM     22  O   LIG A   1     -13.356   7.763 131.903  0.00  0.00    -0.251 OA
ATOM     23  C   LIG A   1     -11.454   4.399 130.278  0.00  0.00    +0.056 C 
ENDBRANCH   1  17
BRANCH  10  24
ATOM     24  C   LIG A   1      -3.976   1.064 133.140  0.00  0.00    -0.076 C 
ATOM     25  C   LIG A   1      -2.718   0.275 133.437  0.00  0.00    +0.038 C 
ATOM     26  C   LIG A   1      -5.150   0.494 133.457  0.00  0.00    +0.007 C 
ENDBRANCH  10  24
BRANCH   9  27
ATOM     27  C   LIG A   1      -3.551   4.018 130.493  0.00  0.00    +0.018 C 
BRANCH  27  28
ATOM     28  C   LIG A   1      -3.273   3.929 128.985  0.00  0.00    +0.121 C 
BRANCH  28  29
ATOM     29  C   LIG A   1      -3.361   5.288 128.349  0.00  0.00    +0.305 C 
ATOM     30  O   LIG A   1      -4.384   5.915 128.129  0.00  0.00    -0.251 OA
BRANCH  29  31
ATOM     31  O   LIG A   1      -2.159   5.780 127.997  0.00  0.00    -0.481 OA
ATOM     32  H   LIG A   1      -2.351   6.326 127.206  0.00  0.00    +0.295 HD
ENDBRANCH  29  31
ENDBRANCH  28  29
ENDBRANCH  27  28
ENDBRANCH   9  27
TORSDOF 6
ENDMDL
