MODEL 1
REMARK VINA RESULT:      -8.4      0.000      0.000
REMARK  Name = NuBBE_1524
REMARK  14 active torsions:
REMARK  status: ('A' for Active; 'I' for Inactive)
REMARK    1  A    between atoms: C_1  and  C_2
REMARK    2  A    between atoms: C_7  and  C_23
REMARK    3  A    between atoms: C_8  and  C_9
REMARK    4  A    between atoms: C_9  and  C_11
REMARK    5  A    between atoms: C_9  and  C_14
REMARK    6  A    between atoms: C_11  and  O_12
REMARK    7  A    between atoms: C_14  and  C_15
REMARK    8  A    between atoms: C_15  and  C_16
REMARK    9  A    between atoms: C_17  and  C_18
REMARK   10  A    between atoms: C_17  and  C_19
REMARK   11  A    between atoms: C_24  and  C_37
REMARK   12  A    between atoms: C_26  and  C_27
REMARK   13  A    between atoms: C_26  and  C_33
REMARK   14  A    between atoms: C_28  and  O_30
REMARK                            x       y       z     vdW  Elec       q    Type
REMARK                         _______ _______ _______ _____ _____    ______ ____
ROOT
ATOM      1  C   LIG A   1      -7.589   1.591 132.836  0.00  0.00    +0.016 C 
ATOM      2  C   LIG A   1      -8.254   1.048 131.536  0.00  0.00    -0.005 C 
ATOM      3  C   LIG A   1      -7.699  -0.371 131.242  0.00  0.00    -0.063 C 
ATOM      4  C   LIG A   1      -7.207  -0.739 130.029  0.00  0.00    -0.064 C 
ATOM      5  C   LIG A   1      -7.369   0.139 128.803  0.00  0.00    +0.032 C 
ATOM      6  C   LIG A   1      -8.319   1.307 129.002  0.00  0.00    +0.012 C 
ATOM      7  C   LIG A   1      -8.073   2.062 130.334  0.00  0.00    -0.019 C 
ATOM      8  C   LIG A   1      -9.264   3.105 130.470  0.00  0.00    +0.009 C 
ATOM      9  C   LIG A   1     -10.139   2.559 131.619  0.00  0.00    +0.006 C 
ATOM     10  C   LIG A   1      -9.781   1.076 131.742  0.00  0.00    +0.012 C 
ATOM     11  C   LIG A   1      -6.644   2.648 130.303  0.00  0.00    +0.012 C 
ATOM     12  C   LIG A   1      -6.446  -2.079 129.795  0.00  0.00    -0.007 C 
ATOM     13  C   LIG A   1      -5.939  -2.620 131.181  0.00  0.00    +0.007 C 
ATOM     14  C   LIG A   1      -4.973  -3.858 131.157  0.00  0.00    -0.005 C 
ATOM     15  C   LIG A   1      -4.359  -4.058 132.571  0.00  0.00    +0.014 C 
ATOM     16  C   LIG A   1      -3.812  -3.596 130.152  0.00  0.00    +0.121 C 
ATOM     17  C   LIG A   1      -4.280  -3.076 128.793  0.00  0.00    +0.032 C 
ATOM     18  C   LIG A   1      -5.194  -1.853 128.903  0.00  0.00    +0.013 C 
ATOM     19  C   LIG A   1      -5.671  -5.188 130.803  0.00  0.00    +0.014 C 
ATOM     20  C   LIG A   1      -7.127  -2.726 132.146  0.00  0.00    +0.009 C 
ATOM     21  C   LIG A   1      -7.671  -1.325 132.430  0.00  0.00    +0.031 C 
ATOM     22  C   LIG A   1      -7.435  -3.014 129.061  0.00  0.00    +0.016 C 
ENDROOT
BRANCH  16  23
ATOM     23  O   LIG A   1      -2.859  -2.669 130.683  0.00  0.00    -0.391 OA
ATOM     24  H   LIG A   1      -2.273  -2.373 129.966  0.00  0.00    +0.210 HD
ENDBRANCH  16  23
BRANCH   8  25
ATOM     25  C   LIG A   1      -8.920   4.623 130.564  0.00  0.00    +0.102 C 
BRANCH  25  26
ATOM     26  C   LIG A   1      -8.972   5.275 129.198  0.00  0.00    +0.308 C 
ATOM     27  O   LIG A   1      -8.569   4.774 128.150  0.00  0.00    -0.251 OA
BRANCH  26  28
ATOM     28  O   LIG A   1      -9.466   6.524 129.196  0.00  0.00    -0.480 OA
ATOM     29  H   LIG A   1      -8.702   7.085 128.932  0.00  0.00    +0.295 HD
ENDBRANCH  26  28
ENDBRANCH  25  26
BRANCH  25  30
ATOM     30  C   LIG A   1      -9.861   5.405 131.518  0.00  0.00    +0.019 C 
BRANCH  30  31
ATOM     31  C   LIG A   1      -9.134   6.056 132.710  0.00  0.00    +0.028 C 
BRANCH  31  32
ATOM     32  C   LIG A   1      -7.660   5.729 132.705  0.00  0.00    -0.028 C 
ATOM     33  C   LIG A   1      -6.948   5.138 133.684  0.00  0.00    -0.080 C 
ATOM     34  C   LIG A   1      -7.517   4.659 134.992  0.00  0.00    +0.038 C 
ATOM     35  C   LIG A   1      -5.465   4.903 133.539  0.00  0.00    +0.038 C 
ENDBRANCH  31  32
ENDBRANCH  30  31
ENDBRANCH  25  30
ENDBRANCH   8  25
TORSDOF 7
ENDMDL
MODEL 2
REMARK VINA RESULT:      -8.2      2.578      4.583
REMARK  Name = NuBBE_1524
REMARK  14 active torsions:
REMARK  status: ('A' for Active; 'I' for Inactive)
REMARK    1  A    between atoms: C_1  and  C_2
REMARK    2  A    between atoms: C_7  and  C_23
REMARK    3  A    between atoms: C_8  and  C_9
REMARK    4  A    between atoms: C_9  and  C_11
REMARK    5  A    between atoms: C_9  and  C_14
REMARK    6  A    between atoms: C_11  and  O_12
REMARK    7  A    between atoms: C_14  and  C_15
REMARK    8  A    between atoms: C_15  and  C_16
REMARK    9  A    between atoms: C_17  and  C_18
REMARK   10  A    between atoms: C_17  and  C_19
REMARK   11  A    between atoms: C_24  and  C_37
REMARK   12  A    between atoms: C_26  and  C_27
REMARK   13  A    between atoms: C_26  and  C_33
REMARK   14  A    between atoms: C_28  and  O_30
REMARK                            x       y       z     vdW  Elec       q    Type
REMARK                         _______ _______ _______ _____ _____    ______ ____
ROOT
ATOM      1  C   LIG A   1      -7.430   3.761 128.631  0.00  0.00    +0.016 C 
ATOM      2  C   LIG A   1      -7.292   3.416 130.144  0.00  0.00    -0.005 C 
ATOM      3  C   LIG A   1      -6.671   2.000 130.282  0.00  0.00    -0.063 C 
ATOM      4  C   LIG A   1      -7.208   1.028 131.068  0.00  0.00    -0.064 C 
ATOM      5  C   LIG A   1      -8.329   1.322 132.047  0.00  0.00    +0.032 C 
ATOM      6  C   LIG A   1      -8.609   2.802 132.237  0.00  0.00    +0.012 C 
ATOM      7  C   LIG A   1      -8.675   3.580 130.897  0.00  0.00    -0.019 C 
ATOM      8  C   LIG A   1      -8.769   5.117 131.289  0.00  0.00    +0.009 C 
ATOM      9  C   LIG A   1      -7.401   5.711 130.893  0.00  0.00    +0.006 C 
ATOM     10  C   LIG A   1      -6.443   4.521 130.803  0.00  0.00    +0.012 C 
ATOM     11  C   LIG A   1      -9.841   3.008 130.061  0.00  0.00    +0.012 C 
ATOM     12  C   LIG A   1      -6.723  -0.453 131.032  0.00  0.00    -0.007 C 
ATOM     13  C   LIG A   1      -5.950  -0.699 129.686  0.00  0.00    +0.007 C 
ATOM     14  C   LIG A   1      -5.547  -2.180 129.352  0.00  0.00    -0.005 C 
ATOM     15  C   LIG A   1      -5.065  -2.260 127.876  0.00  0.00    +0.014 C 
ATOM     16  C   LIG A   1      -6.789  -3.108 129.512  0.00  0.00    +0.121 C 
ATOM     17  C   LIG A   1      -7.553  -2.893 130.818  0.00  0.00    +0.032 C 
ATOM     18  C   LIG A   1      -7.932  -1.429 131.055  0.00  0.00    +0.013 C 
ATOM     19  C   LIG A   1      -4.385  -2.719 130.211  0.00  0.00    +0.014 C 
ATOM     20  C   LIG A   1      -4.828   0.339 129.552  0.00  0.00    +0.009 C 
ATOM     21  C   LIG A   1      -5.445   1.732 129.418  0.00  0.00    +0.031 C 
ATOM     22  C   LIG A   1      -5.875  -0.659 132.309  0.00  0.00    +0.016 C 
ENDROOT
BRANCH  16  23
ATOM     23  O   LIG A   1      -7.705  -2.950 128.424  0.00  0.00    -0.391 OA
ATOM     24  H   LIG A   1      -7.636  -3.722 127.838  0.00  0.00    +0.210 HD
ENDBRANCH  16  23
BRANCH   8  25
ATOM     25  C   LIG A   1     -10.008   5.933 130.811  0.00  0.00    +0.102 C 
BRANCH  25  26
ATOM     26  C   LIG A   1     -10.905   6.290 131.980  0.00  0.00    +0.308 C 
ATOM     27  O   LIG A   1     -12.117   6.485 131.918  0.00  0.00    -0.251 OA
BRANCH  26  28
ATOM     28  O   LIG A   1     -10.261   6.438 133.150  0.00  0.00    -0.480 OA
ATOM     29  H   LIG A   1      -9.871   7.340 133.097  0.00  0.00    +0.295 HD
ENDBRANCH  26  28
ENDBRANCH  25  26
BRANCH  25  30
ATOM     30  C   LIG A   1      -9.630   7.241 130.066  0.00  0.00    +0.019 C 
BRANCH  30  31
ATOM     31  C   LIG A   1     -10.329   7.402 128.703  0.00  0.00    +0.028 C 
BRANCH  31  32
ATOM     32  C   LIG A   1     -11.321   8.540 128.721  0.00  0.00    -0.028 C 
ATOM     33  C   LIG A   1     -12.665   8.457 128.684  0.00  0.00    -0.080 C 
ATOM     34  C   LIG A   1     -13.447   7.172 128.645  0.00  0.00    +0.038 C 
ATOM     35  C   LIG A   1     -13.525   9.696 128.681  0.00  0.00    +0.038 C 
ENDBRANCH  31  32
ENDBRANCH  30  31
ENDBRANCH  25  30
ENDBRANCH   8  25
TORSDOF 7
ENDMDL
MODEL 3
REMARK VINA RESULT:      -8.2      1.449      2.716
REMARK  Name = NuBBE_1524
REMARK  14 active torsions:
REMARK  status: ('A' for Active; 'I' for Inactive)
REMARK    1  A    between atoms: C_1  and  C_2
REMARK    2  A    between atoms: C_7  and  C_23
REMARK    3  A    between atoms: C_8  and  C_9
REMARK    4  A    between atoms: C_9  and  C_11
REMARK    5  A    between atoms: C_9  and  C_14
REMARK    6  A    between atoms: C_11  and  O_12
REMARK    7  A    between atoms: C_14  and  C_15
REMARK    8  A    between atoms: C_15  and  C_16
REMARK    9  A    between atoms: C_17  and  C_18
REMARK   10  A    between atoms: C_17  and  C_19
REMARK   11  A    between atoms: C_24  and  C_37
REMARK   12  A    between atoms: C_26  and  C_27
REMARK   13  A    between atoms: C_26  and  C_33
REMARK   14  A    between atoms: C_28  and  O_30
REMARK                            x       y       z     vdW  Elec       q    Type
REMARK                         _______ _______ _______ _____ _____    ______ ____
ROOT
ATOM      1  C   LIG A   1      -7.598   1.373 132.978  0.00  0.00    +0.016 C 
ATOM      2  C   LIG A   1      -8.239   0.880 131.645  0.00  0.00    -0.005 C 
ATOM      3  C   LIG A   1      -7.686  -0.532 131.315  0.00  0.00    -0.063 C 
ATOM      4  C   LIG A   1      -7.170  -0.861 130.101  0.00  0.00    -0.064 C 
ATOM      5  C   LIG A   1      -7.300   0.059 128.903  0.00  0.00    +0.032 C 
ATOM      6  C   LIG A   1      -8.246   1.226 129.121  0.00  0.00    +0.012 C 
ATOM      7  C   LIG A   1      -8.025   1.934 130.483  0.00  0.00    -0.019 C 
ATOM      8  C   LIG A   1      -9.212   2.979 130.629  0.00  0.00    +0.009 C 
ATOM      9  C   LIG A   1     -10.114   2.401 131.740  0.00  0.00    +0.006 C 
ATOM     10  C   LIG A   1      -9.770   0.912 131.820  0.00  0.00    +0.012 C 
ATOM     11  C   LIG A   1      -6.591   2.510 130.504  0.00  0.00    +0.012 C 
ATOM     12  C   LIG A   1      -6.412  -2.198 129.838  0.00  0.00    -0.007 C 
ATOM     13  C   LIG A   1      -5.940  -2.790 131.215  0.00  0.00    +0.007 C 
ATOM     14  C   LIG A   1      -4.981  -4.034 131.169  0.00  0.00    -0.005 C 
ATOM     15  C   LIG A   1      -4.400  -4.286 132.588  0.00  0.00    +0.014 C 
ATOM     16  C   LIG A   1      -3.796  -3.745 130.199  0.00  0.00    +0.121 C 
ATOM     17  C   LIG A   1      -4.232  -3.176 128.849  0.00  0.00    +0.032 C 
ATOM     18  C   LIG A   1      -5.140  -1.951 128.981  0.00  0.00    +0.013 C 
ATOM     19  C   LIG A   1      -5.680  -5.345 130.754  0.00  0.00    +0.014 C 
ATOM     20  C   LIG A   1      -7.149  -2.921 132.150  0.00  0.00    +0.009 C 
ATOM     21  C   LIG A   1      -7.690  -1.526 132.470  0.00  0.00    +0.031 C 
ATOM     22  C   LIG A   1      -7.392  -3.101 129.051  0.00  0.00    +0.016 C 
ENDROOT
BRANCH  16  23
ATOM     23  O   LIG A   1      -2.850  -2.843 130.782  0.00  0.00    -0.391 OA
ATOM     24  H   LIG A   1      -2.457  -2.300 130.078  0.00  0.00    +0.210 HD
ENDBRANCH  16  23
BRANCH   8  25
ATOM     25  C   LIG A   1      -8.860   4.491 130.784  0.00  0.00    +0.102 C 
BRANCH  25  26
ATOM     26  C   LIG A   1      -8.367   5.068 129.472  0.00  0.00    +0.308 C 
ATOM     27  O   LIG A   1      -8.958   5.006 128.396  0.00  0.00    -0.251 OA
BRANCH  26  28
ATOM     28  O   LIG A   1      -7.155   5.645 129.540  0.00  0.00    -0.480 OA
ATOM     29  H   LIG A   1      -6.850   5.455 130.456  0.00  0.00    +0.295 HD
ENDBRANCH  26  28
ENDBRANCH  25  26
BRANCH  25  30
ATOM     30  C   LIG A   1     -10.054   5.349 131.280  0.00  0.00    +0.019 C 
BRANCH  30  31
ATOM     31  C   LIG A   1      -9.980   6.824 130.842  0.00  0.00    +0.028 C 
BRANCH  31  32
ATOM     32  C   LIG A   1     -11.310   7.314 130.320  0.00  0.00    -0.028 C 
ATOM     33  C   LIG A   1     -11.539   8.014 129.191  0.00  0.00    -0.080 C 
ATOM     34  C   LIG A   1     -10.481   8.425 128.203  0.00  0.00    +0.038 C 
ATOM     35  C   LIG A   1     -12.932   8.457 128.817  0.00  0.00    +0.038 C 
ENDBRANCH  31  32
ENDBRANCH  30  31
ENDBRANCH  25  30
ENDBRANCH   8  25
TORSDOF 7
ENDMDL
MODEL 4
REMARK VINA RESULT:      -8.1      4.354      6.562
REMARK  Name = NuBBE_1524
REMARK  14 active torsions:
REMARK  status: ('A' for Active; 'I' for Inactive)
REMARK    1  A    between atoms: C_1  and  C_2
REMARK    2  A    between atoms: C_7  and  C_23
REMARK    3  A    between atoms: C_8  and  C_9
REMARK    4  A    between atoms: C_9  and  C_11
REMARK    5  A    between atoms: C_9  and  C_14
REMARK    6  A    between atoms: C_11  and  O_12
REMARK    7  A    between atoms: C_14  and  C_15
REMARK    8  A    between atoms: C_15  and  C_16
REMARK    9  A    between atoms: C_17  and  C_18
REMARK   10  A    between atoms: C_17  and  C_19
REMARK   11  A    between atoms: C_24  and  C_37
REMARK   12  A    between atoms: C_26  and  C_27
REMARK   13  A    between atoms: C_26  and  C_33
REMARK   14  A    between atoms: C_28  and  O_30
REMARK                            x       y       z     vdW  Elec       q    Type
REMARK                         _______ _______ _______ _____ _____    ______ ____
ROOT
ATOM      1  C   LIG A   1      -6.201   1.058 126.828  0.00  0.00    +0.016 C 
ATOM      2  C   LIG A   1      -7.389   0.174 127.313  0.00  0.00    -0.005 C 
ATOM      3  C   LIG A   1      -6.998  -0.500 128.656  0.00  0.00    -0.063 C 
ATOM      4  C   LIG A   1      -7.134  -1.834 128.883  0.00  0.00    -0.064 C 
ATOM      5  C   LIG A   1      -7.887  -2.734 127.923  0.00  0.00    +0.032 C 
ATOM      6  C   LIG A   1      -8.662  -1.985 126.854  0.00  0.00    +0.012 C 
ATOM      7  C   LIG A   1      -7.834  -0.852 126.193  0.00  0.00    -0.019 C 
ATOM      8  C   LIG A   1      -8.847  -0.058 125.262  0.00  0.00    +0.009 C 
ATOM      9  C   LIG A   1      -9.050   1.300 125.968  0.00  0.00    +0.006 C 
ATOM     10  C   LIG A   1      -8.633   1.078 127.423  0.00  0.00    +0.012 C 
ATOM     11  C   LIG A   1      -6.610  -1.489 125.496  0.00  0.00    +0.012 C 
ATOM     12  C   LIG A   1      -6.535  -2.544 130.135  0.00  0.00    -0.007 C 
ATOM     13  C   LIG A   1      -5.413  -1.628 130.746  0.00  0.00    +0.007 C 
ATOM     14  C   LIG A   1      -4.538  -2.240 131.899  0.00  0.00    -0.005 C 
ATOM     15  C   LIG A   1      -3.319  -1.314 132.165  0.00  0.00    +0.014 C 
ATOM     16  C   LIG A   1      -4.005  -3.639 131.464  0.00  0.00    +0.121 C 
ATOM     17  C   LIG A   1      -5.080  -4.551 130.873  0.00  0.00    +0.032 C 
ATOM     18  C   LIG A   1      -5.868  -3.890 129.739  0.00  0.00    +0.013 C 
ATOM     19  C   LIG A   1      -5.280  -2.367 133.245  0.00  0.00    +0.014 C 
ATOM     20  C   LIG A   1      -5.993  -0.236 131.024  0.00  0.00    +0.009 C 
ATOM     21  C   LIG A   1      -6.378   0.422 129.698  0.00  0.00    +0.031 C 
ATOM     22  C   LIG A   1      -7.726  -2.822 131.082  0.00  0.00    +0.016 C 
ENDROOT
BRANCH  16  23
ATOM     23  O   LIG A   1      -2.943  -3.522 130.511  0.00  0.00    -0.391 OA
ATOM     24  H   LIG A   1      -3.098  -4.151 129.787  0.00  0.00    +0.210 HD
ENDBRANCH  16  23
BRANCH   8  25
ATOM     25  C   LIG A   1      -8.546   0.029 123.735  0.00  0.00    +0.102 C 
BRANCH  25  26
ATOM     26  C   LIG A   1      -9.675  -0.576 122.925  0.00  0.00    +0.308 C 
ATOM     27  O   LIG A   1     -10.489   0.053 122.253  0.00  0.00    -0.251 OA
BRANCH  26  28
ATOM     28  O   LIG A   1      -9.775  -1.912 123.023  0.00  0.00    -0.480 OA
ATOM     29  H   LIG A   1     -10.227  -2.180 122.191  0.00  0.00    +0.295 HD
ENDBRANCH  26  28
ENDBRANCH  25  26
BRANCH  25  30
ATOM     30  C   LIG A   1      -8.308   1.480 123.239  0.00  0.00    +0.019 C 
BRANCH  30  31
ATOM     31  C   LIG A   1      -6.823   1.883 123.188  0.00  0.00    +0.028 C 
BRANCH  31  32
ATOM     32  C   LIG A   1      -6.501   2.655 121.931  0.00  0.00    -0.028 C 
ATOM     33  C   LIG A   1      -5.790   3.795 121.829  0.00  0.00    -0.080 C 
ATOM     34  C   LIG A   1      -5.147   4.515 122.984  0.00  0.00    +0.038 C 
ATOM     35  C   LIG A   1      -5.576   4.466 120.495  0.00  0.00    +0.038 C 
ENDBRANCH  31  32
ENDBRANCH  30  31
ENDBRANCH  25  30
ENDBRANCH   8  25
TORSDOF 7
ENDMDL
MODEL 5
REMARK VINA RESULT:      -7.9      3.123      5.174
REMARK  Name = NuBBE_1524
REMARK  14 active torsions:
REMARK  status: ('A' for Active; 'I' for Inactive)
REMARK    1  A    between atoms: C_1  and  C_2
REMARK    2  A    between atoms: C_7  and  C_23
REMARK    3  A    between atoms: C_8  and  C_9
REMARK    4  A    between atoms: C_9  and  C_11
REMARK    5  A    between atoms: C_9  and  C_14
REMARK    6  A    between atoms: C_11  and  O_12
REMARK    7  A    between atoms: C_14  and  C_15
REMARK    8  A    between atoms: C_15  and  C_16
REMARK    9  A    between atoms: C_17  and  C_18
REMARK   10  A    between atoms: C_17  and  C_19
REMARK   11  A    between atoms: C_24  and  C_37
REMARK   12  A    between atoms: C_26  and  C_27
REMARK   13  A    between atoms: C_26  and  C_33
REMARK   14  A    between atoms: C_28  and  O_30
REMARK                            x       y       z     vdW  Elec       q    Type
REMARK                         _______ _______ _______ _____ _____    ______ ____
ROOT
ATOM      1  C   LIG A   1      -7.294   3.708 127.951  0.00  0.00    +0.016 C 
ATOM      2  C   LIG A   1      -6.786   2.541 128.850  0.00  0.00    -0.005 C 
ATOM      3  C   LIG A   1      -6.509   1.303 127.956  0.00  0.00    -0.063 C 
ATOM      4  C   LIG A   1      -6.994   0.064 128.235  0.00  0.00    -0.064 C 
ATOM      5  C   LIG A   1      -7.658  -0.253 129.561  0.00  0.00    +0.032 C 
ATOM      6  C   LIG A   1      -7.506   0.840 130.604  0.00  0.00    +0.012 C 
ATOM      7  C   LIG A   1      -7.791   2.255 130.038  0.00  0.00    -0.019 C 
ATOM      8  C   LIG A   1      -7.393   3.274 131.191  0.00  0.00    +0.009 C 
ATOM      9  C   LIG A   1      -6.112   3.967 130.681  0.00  0.00    +0.006 C 
ATOM     10  C   LIG A   1      -5.539   3.040 129.607  0.00  0.00    +0.012 C 
ATOM     11  C   LIG A   1      -9.259   2.298 129.556  0.00  0.00    +0.012 C 
ATOM     12  C   LIG A   1      -6.910  -1.124 127.229  0.00  0.00    -0.007 C 
ATOM     13  C   LIG A   1      -6.668  -0.548 125.787  0.00  0.00    +0.007 C 
ATOM     14  C   LIG A   1      -6.750  -1.559 124.588  0.00  0.00    -0.005 C 
ATOM     15  C   LIG A   1      -6.776  -0.769 123.250  0.00  0.00    +0.014 C 
ATOM     16  C   LIG A   1      -8.067  -2.388 124.693  0.00  0.00    +0.121 C 
ATOM     17  C   LIG A   1      -8.321  -2.966 126.085  0.00  0.00    +0.032 C 
ATOM     18  C   LIG A   1      -8.249  -1.911 127.192  0.00  0.00    +0.013 C 
ATOM     19  C   LIG A   1      -5.545  -2.517 124.495  0.00  0.00    +0.014 C 
ATOM     20  C   LIG A   1      -5.428   0.355 125.806  0.00  0.00    +0.009 C 
ATOM     21  C   LIG A   1      -5.706   1.573 126.689  0.00  0.00    +0.031 C 
ATOM     22  C   LIG A   1      -5.786  -2.050 127.750  0.00  0.00    +0.016 C 
ENDROOT
BRANCH  16  23
ATOM     23  O   LIG A   1      -9.207  -1.609 124.315  0.00  0.00    -0.391 OA
ATOM     24  H   LIG A   1      -9.515  -1.106 125.088  0.00  0.00    +0.210 HD
ENDBRANCH  16  23
BRANCH   8  25
ATOM     25  C   LIG A   1      -8.488   4.234 131.749  0.00  0.00    +0.102 C 
BRANCH  25  26
ATOM     26  C   LIG A   1      -9.055   3.709 133.052  0.00  0.00    +0.308 C 
ATOM     27  O   LIG A   1      -8.857   2.590 133.518  0.00  0.00    -0.251 OA
BRANCH  26  28
ATOM     28  O   LIG A   1      -9.874   4.565 133.686  0.00  0.00    -0.480 OA
ATOM     29  H   LIG A   1     -10.306   4.015 134.378  0.00  0.00    +0.295 HD
ENDBRANCH  26  28
ENDBRANCH  25  26
BRANCH  25  30
ATOM     30  C   LIG A   1      -7.972   5.678 131.984  0.00  0.00    +0.019 C 
BRANCH  30  31
ATOM     31  C   LIG A   1      -8.532   6.707 130.983  0.00  0.00    +0.028 C 
BRANCH  31  32
ATOM     32  C   LIG A   1     -10.041   6.670 130.936  0.00  0.00    -0.028 C 
ATOM     33  C   LIG A   1     -10.847   7.259 130.032  0.00  0.00    -0.080 C 
ATOM     34  C   LIG A   1     -10.374   8.067 128.854  0.00  0.00    +0.038 C 
ATOM     35  C   LIG A   1     -12.348   7.151 130.136  0.00  0.00    +0.038 C 
ENDBRANCH  31  32
ENDBRANCH  30  31
ENDBRANCH  25  30
ENDBRANCH   8  25
TORSDOF 7
ENDMDL
MODEL 6
REMARK VINA RESULT:      -7.9      3.506      6.719
REMARK  Name = NuBBE_1524
REMARK  14 active torsions:
REMARK  status: ('A' for Active; 'I' for Inactive)
REMARK    1  A    between atoms: C_1  and  C_2
REMARK    2  A    between atoms: C_7  and  C_23
REMARK    3  A    between atoms: C_8  and  C_9
REMARK    4  A    between atoms: C_9  and  C_11
REMARK    5  A    between atoms: C_9  and  C_14
REMARK    6  A    between atoms: C_11  and  O_12
REMARK    7  A    between atoms: C_14  and  C_15
REMARK    8  A    between atoms: C_15  and  C_16
REMARK    9  A    between atoms: C_17  and  C_18
REMARK   10  A    between atoms: C_17  and  C_19
REMARK   11  A    between atoms: C_24  and  C_37
REMARK   12  A    between atoms: C_26  and  C_27
REMARK   13  A    between atoms: C_26  and  C_33
REMARK   14  A    between atoms: C_28  and  O_30
REMARK                            x       y       z     vdW  Elec       q    Type
REMARK                         _______ _______ _______ _____ _____    ______ ____
ROOT
ATOM      1  C   LIG A   1      -6.076   0.194 129.480  0.00  0.00    +0.016 C 
ATOM      2  C   LIG A   1      -6.087  -1.340 129.204  0.00  0.00    -0.005 C 
ATOM      3  C   LIG A   1      -6.258  -1.575 127.679  0.00  0.00    -0.063 C 
ATOM      4  C   LIG A   1      -7.187  -2.420 127.159  0.00  0.00    -0.064 C 
ATOM      5  C   LIG A   1      -7.980  -3.371 128.034  0.00  0.00    +0.032 C 
ATOM      6  C   LIG A   1      -7.474  -3.461 129.463  0.00  0.00    +0.012 C 
ATOM      7  C   LIG A   1      -7.178  -2.072 130.086  0.00  0.00    -0.019 C 
ATOM      8  C   LIG A   1      -6.477  -2.361 131.482  0.00  0.00    +0.009 C 
ATOM      9  C   LIG A   1      -5.008  -1.934 131.283  0.00  0.00    +0.006 C 
ATOM     10  C   LIG A   1      -4.780  -1.928 129.770  0.00  0.00    +0.012 C 
ATOM     11  C   LIG A   1      -8.498  -1.270 130.129  0.00  0.00    +0.012 C 
ATOM     12  C   LIG A   1      -7.513  -2.485 125.636  0.00  0.00    -0.007 C 
ATOM     13  C   LIG A   1      -7.006  -1.163 124.954  0.00  0.00    +0.007 C 
ATOM     14  C   LIG A   1      -7.411  -0.930 123.454  0.00  0.00    -0.005 C 
ATOM     15  C   LIG A   1      -7.076   0.535 123.054  0.00  0.00    +0.014 C 
ATOM     16  C   LIG A   1      -8.946  -1.145 123.287  0.00  0.00    +0.121 C 
ATOM     17  C   LIG A   1      -9.461  -2.429 123.935  0.00  0.00    +0.032 C 
ATOM     18  C   LIG A   1      -9.046  -2.567 125.403  0.00  0.00    +0.013 C 
ATOM     19  C   LIG A   1      -6.653  -1.829 122.456  0.00  0.00    +0.014 C 
ATOM     20  C   LIG A   1      -5.519  -0.966 125.276  0.00  0.00    +0.009 C 
ATOM     21  C   LIG A   1      -5.357  -0.737 126.780  0.00  0.00    +0.031 C 
ATOM     22  C   LIG A   1      -6.846  -3.778 125.108  0.00  0.00    +0.016 C 
ENDROOT
BRANCH  16  23
ATOM     23  O   LIG A   1      -9.689  -0.043 123.819  0.00  0.00    -0.391 OA
ATOM     24  H   LIG A   1      -9.792  -0.166 124.778  0.00  0.00    +0.210 HD
ENDBRANCH  16  23
BRANCH   8  25
ATOM     25  C   LIG A   1      -7.152  -1.823 132.781  0.00  0.00    +0.102 C 
BRANCH  25  26
ATOM     26  C   LIG A   1      -7.598  -2.965 133.672  0.00  0.00    +0.308 C 
ATOM     27  O   LIG A   1      -7.010  -4.035 133.810  0.00  0.00    -0.251 OA
BRANCH  26  28
ATOM     28  O   LIG A   1      -8.764  -2.754 134.304  0.00  0.00    -0.480 OA
ATOM     29  H   LIG A   1      -8.943  -3.604 134.767  0.00  0.00    +0.295 HD
ENDBRANCH  26  28
ENDBRANCH  25  26
BRANCH  25  30
ATOM     30  C   LIG A   1      -6.231  -0.887 133.607  0.00  0.00    +0.019 C 
BRANCH  30  31
ATOM     31  C   LIG A   1      -6.518   0.611 133.394  0.00  0.00    +0.028 C 
BRANCH  31  32
ATOM     32  C   LIG A   1      -7.808   0.826 132.639  0.00  0.00    -0.028 C 
ATOM     33  C   LIG A   1      -8.634   1.888 132.712  0.00  0.00    -0.080 C 
ATOM     34  C   LIG A   1      -8.399   3.103 133.568  0.00  0.00    +0.038 C 
ATOM     35  C   LIG A   1      -9.910   1.943 131.908  0.00  0.00    +0.038 C 
ENDBRANCH  31  32
ENDBRANCH  30  31
ENDBRANCH  25  30
ENDBRANCH   8  25
TORSDOF 7
ENDMDL
MODEL 7
REMARK VINA RESULT:      -7.8      4.020      6.684
REMARK  Name = NuBBE_1524
REMARK  14 active torsions:
REMARK  status: ('A' for Active; 'I' for Inactive)
REMARK    1  A    between atoms: C_1  and  C_2
REMARK    2  A    between atoms: C_7  and  C_23
REMARK    3  A    between atoms: C_8  and  C_9
REMARK    4  A    between atoms: C_9  and  C_11
REMARK    5  A    between atoms: C_9  and  C_14
REMARK    6  A    between atoms: C_11  and  O_12
REMARK    7  A    between atoms: C_14  and  C_15
REMARK    8  A    between atoms: C_15  and  C_16
REMARK    9  A    between atoms: C_17  and  C_18
REMARK   10  A    between atoms: C_17  and  C_19
REMARK   11  A    between atoms: C_24  and  C_37
REMARK   12  A    between atoms: C_26  and  C_27
REMARK   13  A    between atoms: C_26  and  C_33
REMARK   14  A    between atoms: C_28  and  O_30
REMARK                            x       y       z     vdW  Elec       q    Type
REMARK                         _______ _______ _______ _____ _____    ______ ____
ROOT
ATOM      1  C   LIG A   1      -5.156  -0.280 128.933  0.00  0.00    +0.016 C 
ATOM      2  C   LIG A   1      -6.415  -0.908 129.604  0.00  0.00    -0.005 C 
ATOM      3  C   LIG A   1      -6.019  -1.452 131.003  0.00  0.00    -0.063 C 
ATOM      4  C   LIG A   1      -6.320  -2.710 131.422  0.00  0.00    -0.064 C 
ATOM      5  C   LIG A   1      -7.262  -3.606 130.642  0.00  0.00    +0.032 C 
ATOM      6  C   LIG A   1      -8.005  -2.897 129.525  0.00  0.00    +0.012 C 
ATOM      7  C   LIG A   1      -7.081  -1.995 128.665  0.00  0.00    -0.019 C 
ATOM      8  C   LIG A   1      -8.043  -1.187 127.692  0.00  0.00    +0.009 C 
ATOM      9  C   LIG A   1      -8.002   0.266 128.211  0.00  0.00    +0.006 C 
ATOM     10  C   LIG A   1      -7.509   0.175 129.657  0.00  0.00    +0.012 C 
ATOM     11  C   LIG A   1      -6.015  -2.890 127.996  0.00  0.00    +0.012 C 
ATOM     12  C   LIG A   1      -5.732  -3.331 132.725  0.00  0.00    -0.007 C 
ATOM     13  C   LIG A   1      -4.450  -2.519 133.137  0.00  0.00    +0.007 C 
ATOM     14  C   LIG A   1      -3.583  -3.098 134.312  0.00  0.00    -0.005 C 
ATOM     15  C   LIG A   1      -2.230  -2.335 134.376  0.00  0.00    +0.014 C 
ATOM     16  C   LIG A   1      -3.283  -4.605 134.048  0.00  0.00    +0.121 C 
ATOM     17  C   LIG A   1      -4.516  -5.417 133.653  0.00  0.00    +0.032 C 
ATOM     18  C   LIG A   1      -5.290  -4.801 132.484  0.00  0.00    +0.013 C 
ATOM     19  C   LIG A   1      -4.230  -2.938 135.703  0.00  0.00    +0.014 C 
ATOM     20  C   LIG A   1      -4.809  -1.032 133.250  0.00  0.00    +0.009 C 
ATOM     21  C   LIG A   1      -5.200  -0.503 131.869  0.00  0.00    +0.031 C 
ATOM     22  C   LIG A   1      -6.873  -3.304 133.768  0.00  0.00    +0.016 C 
ENDROOT
BRANCH  16  23
ATOM     23  O   LIG A   1      -2.291  -4.771 133.029  0.00  0.00    -0.391 OA
ATOM     24  H   LIG A   1      -2.046  -3.896 132.683  0.00  0.00    +0.210 HD
ENDBRANCH  16  23
BRANCH   8  25
ATOM     25  C   LIG A   1      -7.851  -1.346 126.153  0.00  0.00    +0.102 C 
BRANCH  25  26
ATOM     26  C   LIG A   1      -9.128  -1.827 125.495  0.00  0.00    +0.308 C 
ATOM     27  O   LIG A   1      -9.862  -2.716 125.922  0.00  0.00    -0.251 OA
BRANCH  26  28
ATOM     28  O   LIG A   1      -9.409  -1.230 124.325  0.00  0.00    -0.480 OA
ATOM     29  H   LIG A   1      -9.717  -1.966 123.748  0.00  0.00    +0.295 HD
ENDBRANCH  26  28
ENDBRANCH  25  26
BRANCH  25  30
ATOM     30  C   LIG A   1      -7.402  -0.036 125.454  0.00  0.00    +0.019 C 
BRANCH  30  31
ATOM     31  C   LIG A   1      -5.929  -0.046 125.004  0.00  0.00    +0.028 C 
BRANCH  31  32
ATOM     32  C   LIG A   1      -5.407  -1.455 124.847  0.00  0.00    -0.028 C 
ATOM     33  C   LIG A   1      -5.550  -2.267 123.781  0.00  0.00    -0.080 C 
ATOM     34  C   LIG A   1      -6.255  -1.897 122.505  0.00  0.00    +0.038 C 
ATOM     35  C   LIG A   1      -4.991  -3.668 123.787  0.00  0.00    +0.038 C 
ENDBRANCH  31  32
ENDBRANCH  30  31
ENDBRANCH  25  30
ENDBRANCH   8  25
TORSDOF 7
ENDMDL
MODEL 8
REMARK VINA RESULT:      -7.7      1.574      8.306
REMARK  Name = NuBBE_1524
REMARK  14 active torsions:
REMARK  status: ('A' for Active; 'I' for Inactive)
REMARK    1  A    between atoms: C_1  and  C_2
REMARK    2  A    between atoms: C_7  and  C_23
REMARK    3  A    between atoms: C_8  and  C_9
REMARK    4  A    between atoms: C_9  and  C_11
REMARK    5  A    between atoms: C_9  and  C_14
REMARK    6  A    between atoms: C_11  and  O_12
REMARK    7  A    between atoms: C_14  and  C_15
REMARK    8  A    between atoms: C_15  and  C_16
REMARK    9  A    between atoms: C_17  and  C_18
REMARK   10  A    between atoms: C_17  and  C_19
REMARK   11  A    between atoms: C_24  and  C_37
REMARK   12  A    between atoms: C_26  and  C_27
REMARK   13  A    between atoms: C_26  and  C_33
REMARK   14  A    between atoms: C_28  and  O_30
REMARK                            x       y       z     vdW  Elec       q    Type
REMARK                         _______ _______ _______ _____ _____    ______ ____
ROOT
ATOM      1  C   LIG A   1      -7.675  -0.890 130.655  0.00  0.00    +0.016 C 
ATOM      2  C   LIG A   1      -7.589  -0.474 132.154  0.00  0.00    -0.005 C 
ATOM      3  C   LIG A   1      -8.083   0.990 132.298  0.00  0.00    -0.063 C 
ATOM      4  C   LIG A   1      -7.380   1.948 132.959  0.00  0.00    -0.064 C 
ATOM      5  C   LIG A   1      -6.165   1.609 133.801  0.00  0.00    +0.032 C 
ATOM      6  C   LIG A   1      -5.969   0.121 134.028  0.00  0.00    +0.012 C 
ATOM      7  C   LIG A   1      -6.135  -0.714 132.732  0.00  0.00    -0.019 C 
ATOM      8  C   LIG A   1      -6.100  -2.236 133.185  0.00  0.00    +0.009 C 
ATOM      9  C   LIG A   1      -7.547  -2.738 132.997  0.00  0.00    +0.006 C 
ATOM     10  C   LIG A   1      -8.421  -1.483 132.970  0.00  0.00    +0.012 C 
ATOM     11  C   LIG A   1      -5.050  -0.268 131.726  0.00  0.00    +0.012 C 
ATOM     12  C   LIG A   1      -7.759   3.460 132.911  0.00  0.00    -0.007 C 
ATOM     13  C   LIG A   1      -8.682   3.710 131.663  0.00  0.00    +0.007 C 
ATOM     14  C   LIG A   1      -9.018   5.203 131.309  0.00  0.00    -0.005 C 
ATOM     15  C   LIG A   1      -9.682   5.260 129.905  0.00  0.00    +0.014 C 
ATOM     16  C   LIG A   1      -7.703   6.038 131.263  0.00  0.00    +0.121 C 
ATOM     17  C   LIG A   1      -6.792   5.818 132.470  0.00  0.00    +0.032 C 
ATOM     18  C   LIG A   1      -6.491   4.340 132.731  0.00  0.00    +0.013 C 
ATOM     19  C   LIG A   1     -10.016   5.865 132.281  0.00  0.00    +0.014 C 
ATOM     20  C   LIG A   1      -9.883   2.758 131.725  0.00  0.00    +0.009 C 
ATOM     21  C   LIG A   1      -9.389   1.316 131.585  0.00  0.00    +0.031 C 
ATOM     22  C   LIG A   1      -8.416   3.782 134.273  0.00  0.00    +0.016 C 
ENDROOT
BRANCH  16  23
ATOM     23  O   LIG A   1      -6.950   5.765 130.077  0.00  0.00    -0.391 OA
ATOM     24  H   LIG A   1      -6.615   6.603 129.716  0.00  0.00    +0.210 HD
ENDBRANCH  16  23
BRANCH   8  25
ATOM     25  C   LIG A   1      -4.995  -3.165 132.596  0.00  0.00    +0.102 C 
BRANCH  25  26
ATOM     26  C   LIG A   1      -3.785  -3.214 133.507  0.00  0.00    +0.308 C 
ATOM     27  O   LIG A   1      -2.681  -3.661 133.206  0.00  0.00    -0.251 OA
BRANCH  26  28
ATOM     28  O   LIG A   1      -4.008  -2.759 134.751  0.00  0.00    -0.480 OA
ATOM     29  H   LIG A   1      -3.238  -2.175 134.935  0.00  0.00    +0.295 HD
ENDBRANCH  26  28
ENDBRANCH  25  26
BRANCH  25  30
ATOM     30  C   LIG A   1      -5.483  -4.617 132.350  0.00  0.00    +0.019 C 
BRANCH  30  31
ATOM     31  C   LIG A   1      -5.433  -5.046 130.871  0.00  0.00    +0.028 C 
BRANCH  31  32
ATOM     32  C   LIG A   1      -5.604  -3.865 129.946  0.00  0.00    -0.028 C 
ATOM     33  C   LIG A   1      -4.650  -3.243 129.225  0.00  0.00    -0.080 C 
ATOM     34  C   LIG A   1      -3.200  -3.641 129.192  0.00  0.00    +0.038 C 
ATOM     35  C   LIG A   1      -4.977  -2.050 128.361  0.00  0.00    +0.038 C 
ENDBRANCH  31  32
ENDBRANCH  30  31
ENDBRANCH  25  30
ENDBRANCH   8  25
TORSDOF 7
ENDMDL
MODEL 9
REMARK VINA RESULT:      -7.7      3.504      6.784
REMARK  Name = NuBBE_1524
REMARK  14 active torsions:
REMARK  status: ('A' for Active; 'I' for Inactive)
REMARK    1  A    between atoms: C_1  and  C_2
REMARK    2  A    between atoms: C_7  and  C_23
REMARK    3  A    between atoms: C_8  and  C_9
REMARK    4  A    between atoms: C_9  and  C_11
REMARK    5  A    between atoms: C_9  and  C_14
REMARK    6  A    between atoms: C_11  and  O_12
REMARK    7  A    between atoms: C_14  and  C_15
REMARK    8  A    between atoms: C_15  and  C_16
REMARK    9  A    between atoms: C_17  and  C_18
REMARK   10  A    between atoms: C_17  and  C_19
REMARK   11  A    between atoms: C_24  and  C_37
REMARK   12  A    between atoms: C_26  and  C_27
REMARK   13  A    between atoms: C_26  and  C_33
REMARK   14  A    between atoms: C_28  and  O_30
REMARK                            x       y       z     vdW  Elec       q    Type
REMARK                         _______ _______ _______ _____ _____    ______ ____
ROOT
ATOM      1  C   LIG A   1      -5.291  -0.734 126.626  0.00  0.00    +0.016 C 
ATOM      2  C   LIG A   1      -5.943   0.437 127.422  0.00  0.00    -0.005 C 
ATOM      3  C   LIG A   1      -5.758   0.177 128.941  0.00  0.00    -0.063 C 
ATOM      4  C   LIG A   1      -6.782   0.239 129.833  0.00  0.00    -0.064 C 
ATOM      5  C   LIG A   1      -8.143   0.788 129.450  0.00  0.00    +0.032 C 
ATOM      6  C   LIG A   1      -8.173   1.470 128.094  0.00  0.00    +0.012 C 
ATOM      7  C   LIG A   1      -7.452   0.651 126.992  0.00  0.00    -0.019 C 
ATOM      8  C   LIG A   1      -7.404   1.590 125.712  0.00  0.00    +0.009 C 
ATOM      9  C   LIG A   1      -5.919   1.988 125.568  0.00  0.00    +0.006 C 
ATOM     10  C   LIG A   1      -5.292   1.750 126.943  0.00  0.00    +0.012 C 
ATOM     11  C   LIG A   1      -8.187  -0.699 126.832  0.00  0.00    +0.012 C 
ATOM     12  C   LIG A   1      -6.647  -0.241 131.310  0.00  0.00    -0.007 C 
ATOM     13  C   LIG A   1      -5.406  -1.200 131.418  0.00  0.00    +0.007 C 
ATOM     14  C   LIG A   1      -5.203  -1.959 132.778  0.00  0.00    -0.005 C 
ATOM     15  C   LIG A   1      -4.120  -3.059 132.595  0.00  0.00    +0.014 C 
ATOM     16  C   LIG A   1      -6.537  -2.650 133.195  0.00  0.00    +0.121 C 
ATOM     17  C   LIG A   1      -7.757  -1.735 133.106  0.00  0.00    +0.032 C 
ATOM     18  C   LIG A   1      -7.898  -1.055 131.742  0.00  0.00    +0.013 C 
ATOM     19  C   LIG A   1      -4.708  -1.058 133.928  0.00  0.00    +0.014 C 
ATOM     20  C   LIG A   1      -4.166  -0.484 130.869  0.00  0.00    +0.009 C 
ATOM     21  C   LIG A   1      -4.354  -0.228 129.372  0.00  0.00    +0.031 C 
ATOM     22  C   LIG A   1      -6.548   1.039 132.172  0.00  0.00    +0.016 C 
ENDROOT
BRANCH  16  23
ATOM     23  O   LIG A   1      -6.791  -3.816 132.405  0.00  0.00    -0.391 OA
ATOM     24  H   LIG A   1      -6.426  -4.592 132.862  0.00  0.00    +0.210 HD
ENDBRANCH  16  23
BRANCH   8  25
ATOM     25  C   LIG A   1      -8.086   1.098 124.399  0.00  0.00    +0.102 C 
BRANCH  25  26
ATOM     26  C   LIG A   1      -9.071   2.127 123.882  0.00  0.00    +0.308 C 
ATOM     27  O   LIG A   1      -9.581   2.130 122.764  0.00  0.00    -0.251 OA
BRANCH  26  28
ATOM     28  O   LIG A   1      -9.337   3.123 124.743  0.00  0.00    -0.480 OA
ATOM     29  H   LIG A   1      -8.542   3.159 125.322  0.00  0.00    +0.295 HD
ENDBRANCH  26  28
ENDBRANCH  25  26
BRANCH  25  30
ATOM     30  C   LIG A   1      -7.075   0.773 123.268  0.00  0.00    +0.019 C 
BRANCH  30  31
ATOM     31  C   LIG A   1      -6.789  -0.732 123.106  0.00  0.00    +0.028 C 
BRANCH  31  32
ATOM     32  C   LIG A   1      -8.066  -1.538 123.066  0.00  0.00    -0.028 C 
ATOM     33  C   LIG A   1      -8.295  -2.739 123.632  0.00  0.00    -0.080 C 
ATOM     34  C   LIG A   1      -7.296  -3.507 124.454  0.00  0.00    +0.038 C 
ATOM     35  C   LIG A   1      -9.625  -3.434 123.479  0.00  0.00    +0.038 C 
ENDBRANCH  31  32
ENDBRANCH  30  31
ENDBRANCH  25  30
ENDBRANCH   8  25
TORSDOF 7
ENDMDL
