MODEL 1
REMARK VINA RESULT:      -6.4      0.000      0.000
REMARK  Name = NuBBE_932
REMARK  12 active torsions:
REMARK  status: ('A' for Active; 'I' for Inactive)
REMARK    1  A    between atoms: C_1  and  C_3
REMARK    2  A    between atoms: C_1  and  O_12
REMARK    3  A    between atoms: C_1  and  C_16
REMARK    4  A    between atoms: C_3  and  O_5
REMARK    5  A    between atoms: C_3  and  C_9
REMARK    6  A    between atoms: O_5  and  C_6
REMARK    7  A    between atoms: C_6  and  C_8
REMARK    8  A    between atoms: C_9  and  C_11
REMARK    9  A    between atoms: O_12  and  C_13
REMARK   10  A    between atoms: C_13  and  C_15
REMARK   11  A    between atoms: C_21  and  O_22
REMARK   12  A    between atoms: O_22  and  C_23
REMARK                            x       y       z     vdW  Elec       q    Type
REMARK                         _______ _______ _______ _____ _____    ______ ____
ROOT
ATOM      1  C   LIG A   1      -7.041  -0.758 125.722  0.00  0.00    +0.258 C 
ENDROOT
BRANCH   1   2
ATOM      2  C   LIG A   1      -7.784  -1.751 126.632  0.00  0.00    +0.081 A 
ATOM      3  C   LIG A   1      -7.273  -2.124 127.894  0.00  0.00    +0.149 A 
ATOM      4  C   LIG A   1      -7.732  -3.250 128.584  0.00  0.00    +0.018 A 
ATOM      5  C   LIG A   1      -8.802  -3.969 128.064  0.00  0.00    +0.015 A 
ATOM      6  C   LIG A   1      -9.401  -3.560 126.869  0.00  0.00    +0.047 A 
ATOM      7  C   LIG A   1      -8.904  -2.461 126.151  0.00  0.00    +0.131 A 
ATOM      8  C   LIG A   1      -7.038  -3.691 129.786  0.00  0.00    +0.018 A 
ATOM      9  C   LIG A   1      -5.972  -3.017 130.224  0.00  0.00    +0.092 A 
ATOM     10  C   LIG A   1      -5.468  -1.820 129.536  0.00  0.00    +0.337 A 
ATOM     11  O   LIG A   1      -4.465  -1.238 129.933  0.00  0.00    -0.245 OA
ATOM     12  O   LIG A   1      -6.185  -1.390 128.429  0.00  0.00    -0.422 OA
BRANCH   7  13
ATOM     13  O   LIG A   1      -9.409  -2.090 124.930  0.00  0.00    -0.495 OA
ATOM     14  C   LIG A   1      -9.431  -3.115 123.939  0.00  0.00    +0.277 C 
ENDBRANCH   7  13
ENDBRANCH   1   2
BRANCH   1  15
ATOM     15  C   LIG A   1      -6.889   0.678 126.362  0.00  0.00    +0.247 C 
BRANCH  15  16
ATOM     16  C   LIG A   1      -6.227   1.728 125.447  0.00  0.00    -0.036 C 
ATOM     17  C   LIG A   1      -6.698   1.983 124.210  0.00  0.00    +0.011 C 
ATOM     18  C   LIG A   1      -4.964   2.398 125.913  0.00  0.00    +0.042 C 
ENDBRANCH  15  16
BRANCH  15  19
ATOM     19  O   LIG A   1      -8.202   1.208 126.673  0.00  0.00    -0.453 OA
BRANCH  19  20
ATOM     20  C   LIG A   1      -8.292   2.076 127.725  0.00  0.00    +0.305 C 
ATOM     21  O   LIG A   1      -8.444   3.288 127.652  0.00  0.00    -0.251 OA
ATOM     22  C   LIG A   1      -8.209   1.327 129.015  0.00  0.00    +0.136 C 
ENDBRANCH  19  20
ENDBRANCH  15  19
ENDBRANCH   1  15
BRANCH   1  23
ATOM     23  O   LIG A   1      -5.713  -1.237 125.325  0.00  0.00    -0.452 OA
BRANCH  23  24
ATOM     24  C   LIG A   1      -5.576  -2.203 124.385  0.00  0.00    +0.305 C 
ATOM     25  O   LIG A   1      -5.048  -3.311 124.532  0.00  0.00    -0.251 OA
ATOM     26  C   LIG A   1      -6.137  -1.749 123.078  0.00  0.00    +0.136 C 
ENDBRANCH  23  24
ENDBRANCH   1  23
TORSDOF 8
ENDMDL
MODEL 2
REMARK VINA RESULT:      -6.3      2.457      6.620
REMARK  Name = NuBBE_932
REMARK  12 active torsions:
REMARK  status: ('A' for Active; 'I' for Inactive)
REMARK    1  A    between atoms: C_1  and  C_3
REMARK    2  A    between atoms: C_1  and  O_12
REMARK    3  A    between atoms: C_1  and  C_16
REMARK    4  A    between atoms: C_3  and  O_5
REMARK    5  A    between atoms: C_3  and  C_9
REMARK    6  A    between atoms: O_5  and  C_6
REMARK    7  A    between atoms: C_6  and  C_8
REMARK    8  A    between atoms: C_9  and  C_11
REMARK    9  A    between atoms: O_12  and  C_13
REMARK   10  A    between atoms: C_13  and  C_15
REMARK   11  A    between atoms: C_21  and  O_22
REMARK   12  A    between atoms: O_22  and  C_23
REMARK                            x       y       z     vdW  Elec       q    Type
REMARK                         _______ _______ _______ _____ _____    ______ ____
ROOT
ATOM      1  C   LIG A   1      -8.253   0.133 124.467  0.00  0.00    +0.258 C 
ENDROOT
BRANCH   1   2
ATOM      2  C   LIG A   1      -7.427   1.244 125.137  0.00  0.00    +0.081 A 
ATOM      3  C   LIG A   1      -6.887   2.317 124.394  0.00  0.00    +0.149 A 
ATOM      4  C   LIG A   1      -5.875   3.140 124.896  0.00  0.00    +0.018 A 
ATOM      5  C   LIG A   1      -5.457   2.968 126.211  0.00  0.00    +0.015 A 
ATOM      6  C   LIG A   1      -6.049   1.985 127.007  0.00  0.00    +0.047 A 
ATOM      7  C   LIG A   1      -7.028   1.125 126.484  0.00  0.00    +0.131 A 
ATOM      8  C   LIG A   1      -5.228   4.103 124.017  0.00  0.00    +0.018 A 
ATOM      9  C   LIG A   1      -5.606   4.199 122.740  0.00  0.00    +0.092 A 
ATOM     10  C   LIG A   1      -6.678   3.364 122.179  0.00  0.00    +0.337 A 
ATOM     11  O   LIG A   1      -6.984   3.440 120.994  0.00  0.00    -0.245 OA
ATOM     12  O   LIG A   1      -7.315   2.497 123.056  0.00  0.00    -0.422 OA
BRANCH   7  13
ATOM     13  O   LIG A   1      -7.563   0.091 127.211  0.00  0.00    -0.495 OA
ATOM     14  C   LIG A   1      -7.726   0.341 128.605  0.00  0.00    +0.277 C 
ENDBRANCH   7  13
ENDBRANCH   1   2
BRANCH   1  15
ATOM     15  C   LIG A   1      -7.763  -1.320 124.844  0.00  0.00    +0.247 C 
BRANCH  15  16
ATOM     16  C   LIG A   1      -8.821  -2.428 124.665  0.00  0.00    -0.036 C 
ATOM     17  C   LIG A   1      -9.412  -3.016 125.724  0.00  0.00    +0.011 C 
ATOM     18  C   LIG A   1      -9.112  -2.929 123.279  0.00  0.00    +0.042 C 
ENDBRANCH  15  16
BRANCH  15  19
ATOM     19  O   LIG A   1      -6.660  -1.695 123.980  0.00  0.00    -0.453 OA
BRANCH  19  20
ATOM     20  C   LIG A   1      -5.662  -2.448 124.532  0.00  0.00    +0.305 C 
ATOM     21  O   LIG A   1      -5.413  -2.557 125.725  0.00  0.00    -0.251 OA
ATOM     22  C   LIG A   1      -4.910  -3.166 123.459  0.00  0.00    +0.136 C 
ENDBRANCH  19  20
ENDBRANCH  15  19
ENDBRANCH   1  15
BRANCH   1  23
ATOM     23  O   LIG A   1      -9.686   0.235 124.764  0.00  0.00    -0.452 OA
BRANCH  23  24
ATOM     24  C   LIG A   1     -10.543   0.782 123.867  0.00  0.00    +0.305 C 
ATOM     25  O   LIG A   1     -11.608   1.357 124.116  0.00  0.00    -0.251 OA
ATOM     26  C   LIG A   1     -10.047   0.578 122.474  0.00  0.00    +0.136 C 
ENDBRANCH  23  24
ENDBRANCH   1  23
TORSDOF 8
ENDMDL
MODEL 3
REMARK VINA RESULT:      -6.2      1.805      3.436
REMARK  Name = NuBBE_932
REMARK  12 active torsions:
REMARK  status: ('A' for Active; 'I' for Inactive)
REMARK    1  A    between atoms: C_1  and  C_3
REMARK    2  A    between atoms: C_1  and  O_12
REMARK    3  A    between atoms: C_1  and  C_16
REMARK    4  A    between atoms: C_3  and  O_5
REMARK    5  A    between atoms: C_3  and  C_9
REMARK    6  A    between atoms: O_5  and  C_6
REMARK    7  A    between atoms: C_6  and  C_8
REMARK    8  A    between atoms: C_9  and  C_11
REMARK    9  A    between atoms: O_12  and  C_13
REMARK   10  A    between atoms: C_13  and  C_15
REMARK   11  A    between atoms: C_21  and  O_22
REMARK   12  A    between atoms: O_22  and  C_23
REMARK                            x       y       z     vdW  Elec       q    Type
REMARK                         _______ _______ _______ _____ _____    ______ ____
ROOT
ATOM      1  C   LIG A   1      -8.586   0.056 125.672  0.00  0.00    +0.258 C 
ENDROOT
BRANCH   1   2
ATOM      2  C   LIG A   1      -8.673  -1.205 126.548  0.00  0.00    +0.081 A 
ATOM      3  C   LIG A   1      -8.092  -1.256 127.834  0.00  0.00    +0.149 A 
ATOM      4  C   LIG A   1      -7.862  -2.460 128.504  0.00  0.00    +0.018 A 
ATOM      5  C   LIG A   1      -8.316  -3.645 127.936  0.00  0.00    +0.015 A 
ATOM      6  C   LIG A   1      -8.992  -3.616 126.713  0.00  0.00    +0.047 A 
ATOM      7  C   LIG A   1      -9.175  -2.411 126.017  0.00  0.00    +0.131 A 
ATOM      8  C   LIG A   1      -7.088  -2.462 129.738  0.00  0.00    +0.018 A 
ATOM      9  C   LIG A   1      -6.608  -1.315 130.224  0.00  0.00    +0.092 A 
ATOM     10  C   LIG A   1      -6.843  -0.026 129.558  0.00  0.00    +0.337 A 
ATOM     11  O   LIG A   1      -6.361   1.011 130.001  0.00  0.00    -0.245 OA
ATOM     12  O   LIG A   1      -7.632  -0.049 128.417  0.00  0.00    -0.422 OA
BRANCH   7  13
ATOM     13  O   LIG A   1      -9.752  -2.361 124.773  0.00  0.00    -0.495 OA
ATOM     14  C   LIG A   1      -9.381  -3.410 123.881  0.00  0.00    +0.277 C 
ENDBRANCH   7  13
ENDBRANCH   1   2
BRANCH   1  15
ATOM     15  C   LIG A   1      -7.266   0.124 124.807  0.00  0.00    +0.247 C 
BRANCH  15  16
ATOM     16  C   LIG A   1      -6.240   1.178 125.272  0.00  0.00    -0.036 C 
ATOM     17  C   LIG A   1      -6.235   2.427 124.765  0.00  0.00    +0.011 C 
ATOM     18  C   LIG A   1      -5.161   0.760 126.230  0.00  0.00    +0.042 C 
ENDBRANCH  15  16
BRANCH  15  19
ATOM     19  O   LIG A   1      -6.575  -1.149 124.884  0.00  0.00    -0.453 OA
BRANCH  19  20
ATOM     20  C   LIG A   1      -6.245  -1.753 123.703  0.00  0.00    +0.305 C 
ATOM     21  O   LIG A   1      -6.428  -1.298 122.582  0.00  0.00    -0.251 OA
ATOM     22  C   LIG A   1      -5.585  -3.066 123.967  0.00  0.00    +0.136 C 
ENDBRANCH  19  20
ENDBRANCH  15  19
ENDBRANCH   1  15
BRANCH   1  23
ATOM     23  O   LIG A   1      -9.739   0.205 124.778  0.00  0.00    -0.452 OA
BRANCH  23  24
ATOM     24  C   LIG A   1      -9.751   1.158 123.814  0.00  0.00    +0.305 C 
ATOM     25  O   LIG A   1      -9.538   2.366 123.964  0.00  0.00    -0.251 OA
ATOM     26  C   LIG A   1     -10.093   0.562 122.489  0.00  0.00    +0.136 C 
ENDBRANCH  23  24
ENDBRANCH   1  23
TORSDOF 8
ENDMDL
MODEL 4
REMARK VINA RESULT:      -6.1      4.712      8.528
REMARK  Name = NuBBE_932
REMARK  12 active torsions:
REMARK  status: ('A' for Active; 'I' for Inactive)
REMARK    1  A    between atoms: C_1  and  C_3
REMARK    2  A    between atoms: C_1  and  O_12
REMARK    3  A    between atoms: C_1  and  C_16
REMARK    4  A    between atoms: C_3  and  O_5
REMARK    5  A    between atoms: C_3  and  C_9
REMARK    6  A    between atoms: O_5  and  C_6
REMARK    7  A    between atoms: C_6  and  C_8
REMARK    8  A    between atoms: C_9  and  C_11
REMARK    9  A    between atoms: O_12  and  C_13
REMARK   10  A    between atoms: C_13  and  C_15
REMARK   11  A    between atoms: C_21  and  O_22
REMARK   12  A    between atoms: O_22  and  C_23
REMARK                            x       y       z     vdW  Elec       q    Type
REMARK                         _______ _______ _______ _____ _____    ______ ____
ROOT
ATOM      1  C   LIG A   1      -8.175   4.216 129.537  0.00  0.00    +0.258 C 
ENDROOT
BRANCH   1   2
ATOM      2  C   LIG A   1      -9.309   5.004 130.213  0.00  0.00    +0.081 A 
ATOM      3  C   LIG A   1     -10.065   5.967 129.509  0.00  0.00    +0.149 A 
ATOM      4  C   LIG A   1     -10.855   6.920 130.158  0.00  0.00    +0.018 A 
ATOM      5  C   LIG A   1     -10.989   6.854 131.540  0.00  0.00    +0.015 A 
ATOM      6  C   LIG A   1     -10.340   5.845 132.256  0.00  0.00    +0.047 A 
ATOM      7  C   LIG A   1      -9.505   4.922 131.607  0.00  0.00    +0.131 A 
ATOM      8  C   LIG A   1     -11.455   8.001 129.390  0.00  0.00    +0.018 A 
ATOM      9  C   LIG A   1     -11.252   8.076 128.073  0.00  0.00    +0.092 A 
ATOM     10  C   LIG A   1     -10.442   7.084 127.351  0.00  0.00    +0.337 A 
ATOM     11  O   LIG A   1     -10.237   7.192 126.147  0.00  0.00    -0.245 OA
ATOM     12  O   LIG A   1      -9.932   6.033 128.100  0.00  0.00    -0.422 OA
BRANCH   7  13
ATOM     13  O   LIG A   1      -8.781   3.977 132.291  0.00  0.00    -0.495 OA
ATOM     14  C   LIG A   1      -9.184   3.754 133.641  0.00  0.00    +0.277 C 
ENDBRANCH   7  13
ENDBRANCH   1   2
BRANCH   1  15
ATOM     15  C   LIG A   1      -6.736   4.657 130.019  0.00  0.00    +0.247 C 
BRANCH  15  16
ATOM     16  C   LIG A   1      -5.572   4.117 129.163  0.00  0.00    -0.036 C 
ATOM     17  C   LIG A   1      -5.529   4.310 127.830  0.00  0.00    +0.011 C 
ATOM     18  C   LIG A   1      -4.526   3.265 129.826  0.00  0.00    +0.042 C 
ENDBRANCH  15  16
BRANCH  15  19
ATOM     19  O   LIG A   1      -6.629   6.101 129.953  0.00  0.00    -0.453 OA
BRANCH  19  20
ATOM     20  C   LIG A   1      -5.791   6.707 130.847  0.00  0.00    +0.305 C 
ATOM     21  O   LIG A   1      -4.946   7.553 130.587  0.00  0.00    -0.251 OA
ATOM     22  C   LIG A   1      -6.069   6.209 132.227  0.00  0.00    +0.136 C 
ENDBRANCH  19  20
ENDBRANCH  15  19
ENDBRANCH   1  15
BRANCH   1  23
ATOM     23  O   LIG A   1      -8.305   2.766 129.721  0.00  0.00    -0.452 OA
BRANCH  23  24
ATOM     24  C   LIG A   1      -8.374   1.935 128.652  0.00  0.00    +0.305 C 
ATOM     25  O   LIG A   1      -9.004   2.125 127.606  0.00  0.00    -0.251 OA
ATOM     26  C   LIG A   1      -7.588   0.691 128.902  0.00  0.00    +0.136 C 
ENDBRANCH  23  24
ENDBRANCH   1  23
TORSDOF 8
ENDMDL
MODEL 5
REMARK VINA RESULT:      -6.1      1.647      3.008
REMARK  Name = NuBBE_932
REMARK  12 active torsions:
REMARK  status: ('A' for Active; 'I' for Inactive)
REMARK    1  A    between atoms: C_1  and  C_3
REMARK    2  A    between atoms: C_1  and  O_12
REMARK    3  A    between atoms: C_1  and  C_16
REMARK    4  A    between atoms: C_3  and  O_5
REMARK    5  A    between atoms: C_3  and  C_9
REMARK    6  A    between atoms: O_5  and  C_6
REMARK    7  A    between atoms: C_6  and  C_8
REMARK    8  A    between atoms: C_9  and  C_11
REMARK    9  A    between atoms: O_12  and  C_13
REMARK   10  A    between atoms: C_13  and  C_15
REMARK   11  A    between atoms: C_21  and  O_22
REMARK   12  A    between atoms: O_22  and  C_23
REMARK                            x       y       z     vdW  Elec       q    Type
REMARK                         _______ _______ _______ _____ _____    ______ ____
ROOT
ATOM      1  C   LIG A   1      -7.919  -0.193 125.918  0.00  0.00    +0.258 C 
ENDROOT
BRANCH   1   2
ATOM      2  C   LIG A   1      -8.375  -1.427 126.714  0.00  0.00    +0.081 A 
ATOM      3  C   LIG A   1      -7.936  -1.660 128.036  0.00  0.00    +0.149 A 
ATOM      4  C   LIG A   1      -8.054  -2.907 128.655  0.00  0.00    +0.018 A 
ATOM      5  C   LIG A   1      -8.722  -3.929 127.989  0.00  0.00    +0.015 A 
ATOM      6  C   LIG A   1      -9.264  -3.697 126.722  0.00  0.00    +0.047 A 
ATOM      7  C   LIG A   1      -9.098  -2.459 126.081  0.00  0.00    +0.131 A 
ATOM      8  C   LIG A   1      -7.413  -3.136 129.942  0.00  0.00    +0.018 A 
ATOM      9  C   LIG A   1      -6.721  -2.155 130.526  0.00  0.00    +0.092 A 
ATOM     10  C   LIG A   1      -6.589  -0.824 129.915  0.00  0.00    +0.337 A 
ATOM     11  O   LIG A   1      -5.917   0.052 130.449  0.00  0.00    -0.245 OA
ATOM     12  O   LIG A   1      -7.259  -0.619 128.718  0.00  0.00    -0.422 OA
BRANCH   7  13
ATOM     13  O   LIG A   1      -9.537  -2.229 124.801  0.00  0.00    -0.495 OA
ATOM     14  C   LIG A   1      -9.391  -3.321 123.897  0.00  0.00    +0.277 C 
ENDBRANCH   7  13
ENDBRANCH   1   2
BRANCH   1  15
ATOM     15  C   LIG A   1      -6.430  -0.300 125.402  0.00  0.00    +0.247 C 
BRANCH  15  16
ATOM     16  C   LIG A   1      -6.181  -1.417 124.368  0.00  0.00    -0.036 C 
ATOM     17  C   LIG A   1      -5.579  -2.573 124.710  0.00  0.00    +0.011 C 
ATOM     18  C   LIG A   1      -6.523  -1.156 122.928  0.00  0.00    +0.042 C 
ENDBRANCH  15  16
BRANCH  15  19
ATOM     19  O   LIG A   1      -6.062   0.934 124.736  0.00  0.00    -0.453 OA
BRANCH  19  20
ATOM     20  C   LIG A   1      -5.746   2.002 125.529  0.00  0.00    +0.305 C 
ATOM     21  O   LIG A   1      -6.174   3.142 125.412  0.00  0.00    -0.251 OA
ATOM     22  C   LIG A   1      -4.804   1.576 126.607  0.00  0.00    +0.136 C 
ENDBRANCH  19  20
ENDBRANCH  15  19
ENDBRANCH   1  15
BRANCH   1  23
ATOM     23  O   LIG A   1      -8.790   0.097 124.774  0.00  0.00    -0.452 OA
BRANCH  23  24
ATOM     24  C   LIG A   1      -9.420   1.292 124.667  0.00  0.00    +0.305 C 
ATOM     25  O   LIG A   1      -9.323   2.253 125.439  0.00  0.00    -0.251 OA
ATOM     26  C   LIG A   1     -10.309   1.312 123.468  0.00  0.00    +0.136 C 
ENDBRANCH  23  24
ENDBRANCH   1  23
TORSDOF 8
ENDMDL
MODEL 6
REMARK VINA RESULT:      -6.0      1.938      4.899
REMARK  Name = NuBBE_932
REMARK  12 active torsions:
REMARK  status: ('A' for Active; 'I' for Inactive)
REMARK    1  A    between atoms: C_1  and  C_3
REMARK    2  A    between atoms: C_1  and  O_12
REMARK    3  A    between atoms: C_1  and  C_16
REMARK    4  A    between atoms: C_3  and  O_5
REMARK    5  A    between atoms: C_3  and  C_9
REMARK    6  A    between atoms: O_5  and  C_6
REMARK    7  A    between atoms: C_6  and  C_8
REMARK    8  A    between atoms: C_9  and  C_11
REMARK    9  A    between atoms: O_12  and  C_13
REMARK   10  A    between atoms: C_13  and  C_15
REMARK   11  A    between atoms: C_21  and  O_22
REMARK   12  A    between atoms: O_22  and  C_23
REMARK                            x       y       z     vdW  Elec       q    Type
REMARK                         _______ _______ _______ _____ _____    ______ ____
ROOT
ATOM      1  C   LIG A   1      -7.134  -0.570 125.060  0.00  0.00    +0.258 C 
ENDROOT
BRANCH   1   2
ATOM      2  C   LIG A   1      -7.206   0.792 124.349  0.00  0.00    +0.081 A 
ATOM      3  C   LIG A   1      -6.376   1.870 124.728  0.00  0.00    +0.149 A 
ATOM      4  C   LIG A   1      -6.640   3.188 124.344  0.00  0.00    +0.018 A 
ATOM      5  C   LIG A   1      -7.694   3.437 123.472  0.00  0.00    +0.015 A 
ATOM      6  C   LIG A   1      -8.467   2.377 122.992  0.00  0.00    +0.047 A 
ATOM      7  C   LIG A   1      -8.233   1.061 123.421  0.00  0.00    +0.131 A 
ATOM      8  C   LIG A   1      -5.863   4.275 124.922  0.00  0.00    +0.018 A 
ATOM      9  C   LIG A   1      -4.901   4.009 125.809  0.00  0.00    +0.092 A 
ATOM     10  C   LIG A   1      -4.582   2.636 126.224  0.00  0.00    +0.337 A 
ATOM     11  O   LIG A   1      -3.721   2.416 127.069  0.00  0.00    -0.245 OA
ATOM     12  O   LIG A   1      -5.300   1.618 125.614  0.00  0.00    -0.422 OA
BRANCH   7  13
ATOM     13  O   LIG A   1      -9.031   0.010 123.041  0.00  0.00    -0.495 OA
ATOM     14  C   LIG A   1     -10.281   0.370 122.457  0.00  0.00    +0.277 C 
ENDBRANCH   7  13
ENDBRANCH   1   2
BRANCH   1  15
ATOM     15  C   LIG A   1      -8.203  -0.728 126.212  0.00  0.00    +0.247 C 
BRANCH  15  16
ATOM     16  C   LIG A   1      -8.510  -2.185 126.616  0.00  0.00    -0.036 C 
ATOM     17  C   LIG A   1      -9.511  -2.880 126.040  0.00  0.00    +0.011 C 
ATOM     18  C   LIG A   1      -7.739  -2.796 127.753  0.00  0.00    +0.042 C 
ENDBRANCH  15  16
BRANCH  15  19
ATOM     19  O   LIG A   1      -7.709  -0.088 127.416  0.00  0.00    -0.453 OA
BRANCH  19  20
ATOM     20  C   LIG A   1      -8.360   1.037 127.837  0.00  0.00    +0.305 C 
ATOM     21  O   LIG A   1      -9.016   1.798 127.138  0.00  0.00    -0.251 OA
ATOM     22  C   LIG A   1      -8.188   1.207 129.311  0.00  0.00    +0.136 C 
ENDBRANCH  19  20
ENDBRANCH  15  19
ENDBRANCH   1  15
BRANCH   1  23
ATOM     23  O   LIG A   1      -7.274  -1.700 124.135  0.00  0.00    -0.452 OA
BRANCH  23  24
ATOM     24  C   LIG A   1      -6.217  -2.136 123.407  0.00  0.00    +0.305 C 
ATOM     25  O   LIG A   1      -6.019  -1.950 122.201  0.00  0.00    -0.251 OA
ATOM     26  C   LIG A   1      -5.282  -2.928 124.261  0.00  0.00    +0.136 C 
ENDBRANCH  23  24
ENDBRANCH   1  23
TORSDOF 8
ENDMDL
MODEL 7
REMARK VINA RESULT:      -5.9      1.976      5.963
REMARK  Name = NuBBE_932
REMARK  12 active torsions:
REMARK  status: ('A' for Active; 'I' for Inactive)
REMARK    1  A    between atoms: C_1  and  C_3
REMARK    2  A    between atoms: C_1  and  O_12
REMARK    3  A    between atoms: C_1  and  C_16
REMARK    4  A    between atoms: C_3  and  O_5
REMARK    5  A    between atoms: C_3  and  C_9
REMARK    6  A    between atoms: O_5  and  C_6
REMARK    7  A    between atoms: C_6  and  C_8
REMARK    8  A    between atoms: C_9  and  C_11
REMARK    9  A    between atoms: O_12  and  C_13
REMARK   10  A    between atoms: C_13  and  C_15
REMARK   11  A    between atoms: C_21  and  O_22
REMARK   12  A    between atoms: O_22  and  C_23
REMARK                            x       y       z     vdW  Elec       q    Type
REMARK                         _______ _______ _______ _____ _____    ______ ____
ROOT
ATOM      1  C   LIG A   1      -6.930  -0.546 125.582  0.00  0.00    +0.258 C 
ENDROOT
BRANCH   1   2
ATOM      2  C   LIG A   1      -6.890   0.924 125.132  0.00  0.00    +0.081 A 
ATOM      3  C   LIG A   1      -7.815   1.438 124.196  0.00  0.00    +0.149 A 
ATOM      4  C   LIG A   1      -7.607   2.646 123.525  0.00  0.00    +0.018 A 
ATOM      5  C   LIG A   1      -6.507   3.425 123.865  0.00  0.00    +0.015 A 
ATOM      6  C   LIG A   1      -5.631   2.995 124.866  0.00  0.00    +0.047 A 
ATOM      7  C   LIG A   1      -5.813   1.757 125.500  0.00  0.00    +0.131 A 
ATOM      8  C   LIG A   1      -8.496   3.028 122.437  0.00  0.00    +0.018 A 
ATOM      9  C   LIG A   1      -9.505   2.226 122.089  0.00  0.00    +0.092 A 
ATOM     10  C   LIG A   1      -9.767   0.956 122.781  0.00  0.00    +0.337 A 
ATOM     11  O   LIG A   1     -10.676   0.216 122.421  0.00  0.00    -0.245 OA
ATOM     12  O   LIG A   1      -8.939   0.648 123.851  0.00  0.00    -0.422 OA
BRANCH   7  13
ATOM     13  O   LIG A   1      -4.921   1.263 126.421  0.00  0.00    -0.495 OA
ATOM     14  C   LIG A   1      -4.749   2.056 127.593  0.00  0.00    +0.277 C 
ENDBRANCH   7  13
ENDBRANCH   1   2
BRANCH   1  15
ATOM     15  C   LIG A   1      -7.918  -0.802 126.787  0.00  0.00    +0.247 C 
BRANCH  15  16
ATOM     16  C   LIG A   1      -8.365  -2.268 126.958  0.00  0.00    -0.036 C 
ATOM     17  C   LIG A   1      -7.753  -3.095 127.828  0.00  0.00    +0.011 C 
ATOM     18  C   LIG A   1      -9.437  -2.804 126.051  0.00  0.00    +0.042 C 
ENDBRANCH  15  16
BRANCH  15  19
ATOM     19  O   LIG A   1      -7.261  -0.449 128.031  0.00  0.00    -0.453 OA
BRANCH  19  20
ATOM     20  C   LIG A   1      -7.957   0.339 128.904  0.00  0.00    +0.305 C 
ATOM     21  O   LIG A   1      -8.141   0.115 130.092  0.00  0.00    -0.251 OA
ATOM     22  C   LIG A   1      -8.455   1.561 128.204  0.00  0.00    +0.136 C 
ENDBRANCH  19  20
ENDBRANCH  15  19
ENDBRANCH   1  15
BRANCH   1  23
ATOM     23  O   LIG A   1      -7.275  -1.463 124.491  0.00  0.00    -0.452 OA
BRANCH  23  24
ATOM     24  C   LIG A   1      -6.312  -1.988 123.695  0.00  0.00    +0.305 C 
ATOM     25  O   LIG A   1      -6.173  -1.805 122.480  0.00  0.00    -0.251 OA
ATOM     26  C   LIG A   1      -5.408  -2.879 124.480  0.00  0.00    +0.136 C 
ENDBRANCH  23  24
ENDBRANCH   1  23
TORSDOF 8
ENDMDL
MODEL 8
REMARK VINA RESULT:      -5.9      1.856      5.994
REMARK  Name = NuBBE_932
REMARK  12 active torsions:
REMARK  status: ('A' for Active; 'I' for Inactive)
REMARK    1  A    between atoms: C_1  and  C_3
REMARK    2  A    between atoms: C_1  and  O_12
REMARK    3  A    between atoms: C_1  and  C_16
REMARK    4  A    between atoms: C_3  and  O_5
REMARK    5  A    between atoms: C_3  and  C_9
REMARK    6  A    between atoms: O_5  and  C_6
REMARK    7  A    between atoms: C_6  and  C_8
REMARK    8  A    between atoms: C_9  and  C_11
REMARK    9  A    between atoms: O_12  and  C_13
REMARK   10  A    between atoms: C_13  and  C_15
REMARK   11  A    between atoms: C_21  and  O_22
REMARK   12  A    between atoms: O_22  and  C_23
REMARK                            x       y       z     vdW  Elec       q    Type
REMARK                         _______ _______ _______ _____ _____    ______ ____
ROOT
ATOM      1  C   LIG A   1      -8.054   0.126 126.024  0.00  0.00    +0.258 C 
ENDROOT
BRANCH   1   2
ATOM      2  C   LIG A   1      -7.812   1.114 124.870  0.00  0.00    +0.081 A 
ATOM      3  C   LIG A   1      -6.709   1.996 124.869  0.00  0.00    +0.149 A 
ATOM      4  C   LIG A   1      -6.644   3.111 124.028  0.00  0.00    +0.018 A 
ATOM      5  C   LIG A   1      -7.647   3.303 123.085  0.00  0.00    +0.015 A 
ATOM      6  C   LIG A   1      -8.697   2.386 122.988  0.00  0.00    +0.047 A 
ATOM      7  C   LIG A   1      -8.788   1.296 123.868  0.00  0.00    +0.131 A 
ATOM      8  C   LIG A   1      -5.577   4.085 124.207  0.00  0.00    +0.018 A 
ATOM      9  C   LIG A   1      -4.666   3.908 125.167  0.00  0.00    +0.092 A 
ATOM     10  C   LIG A   1      -4.690   2.740 126.059  0.00  0.00    +0.337 A 
ATOM     11  O   LIG A   1      -3.867   2.615 126.958  0.00  0.00    -0.245 OA
ATOM     12  O   LIG A   1      -5.684   1.799 125.826  0.00  0.00    -0.422 OA
BRANCH   7  13
ATOM     13  O   LIG A   1      -9.853   0.431 123.860  0.00  0.00    -0.495 OA
ATOM     14  C   LIG A   1     -10.156  -0.156 122.596  0.00  0.00    +0.277 C 
ENDBRANCH   7  13
ENDBRANCH   1   2
BRANCH   1  15
ATOM     15  C   LIG A   1      -7.479  -1.318 125.738  0.00  0.00    +0.247 C 
BRANCH  15  16
ATOM     16  C   LIG A   1      -8.392  -2.478 126.182  0.00  0.00    -0.036 C 
ATOM     17  C   LIG A   1      -9.377  -2.944 125.389  0.00  0.00    +0.011 C 
ATOM     18  C   LIG A   1      -8.242  -3.021 127.576  0.00  0.00    +0.042 C 
ENDBRANCH  15  16
BRANCH  15  19
ATOM     19  O   LIG A   1      -7.299  -1.490 124.310  0.00  0.00    -0.453 OA
BRANCH  19  20
ATOM     20  C   LIG A   1      -6.130  -2.060 123.892  0.00  0.00    +0.305 C 
ATOM     21  O   LIG A   1      -5.248  -2.512 124.610  0.00  0.00    -0.251 OA
ATOM     22  C   LIG A   1      -6.079  -2.088 122.399  0.00  0.00    +0.136 C 
ENDBRANCH  19  20
ENDBRANCH  15  19
ENDBRANCH   1  15
BRANCH   1  23
ATOM     23  O   LIG A   1      -7.511   0.602 127.300  0.00  0.00    -0.452 OA
BRANCH  23  24
ATOM     24  C   LIG A   1      -8.314   1.194 128.218  0.00  0.00    +0.305 C 
ATOM     25  O   LIG A   1      -9.107   2.122 128.020  0.00  0.00    -0.251 OA
ATOM     26  C   LIG A   1      -8.106   0.591 129.567  0.00  0.00    +0.136 C 
ENDBRANCH  23  24
ENDBRANCH   1  23
TORSDOF 8
ENDMDL
MODEL 9
REMARK VINA RESULT:      -5.8      4.829      9.016
REMARK  Name = NuBBE_932
REMARK  12 active torsions:
REMARK  status: ('A' for Active; 'I' for Inactive)
REMARK    1  A    between atoms: C_1  and  C_3
REMARK    2  A    between atoms: C_1  and  O_12
REMARK    3  A    between atoms: C_1  and  C_16
REMARK    4  A    between atoms: C_3  and  O_5
REMARK    5  A    between atoms: C_3  and  C_9
REMARK    6  A    between atoms: O_5  and  C_6
REMARK    7  A    between atoms: C_6  and  C_8
REMARK    8  A    between atoms: C_9  and  C_11
REMARK    9  A    between atoms: O_12  and  C_13
REMARK   10  A    between atoms: C_13  and  C_15
REMARK   11  A    between atoms: C_21  and  O_22
REMARK   12  A    between atoms: O_22  and  C_23
REMARK                            x       y       z     vdW  Elec       q    Type
REMARK                         _______ _______ _______ _____ _____    ______ ____
ROOT
ATOM      1  C   LIG A   1      -7.307   5.323 130.598  0.00  0.00    +0.258 C 
ENDROOT
BRANCH   1   2
ATOM      2  C   LIG A   1      -8.775   5.539 131.003  0.00  0.00    +0.081 A 
ATOM      3  C   LIG A   1      -9.748   5.960 130.070  0.00  0.00    +0.149 A 
ATOM      4  C   LIG A   1     -10.985   6.479 130.462  0.00  0.00    +0.018 A 
ATOM      5  C   LIG A   1     -11.316   6.485 131.812  0.00  0.00    +0.015 A 
ATOM      6  C   LIG A   1     -10.418   5.973 132.752  0.00  0.00    +0.047 A 
ATOM      7  C   LIG A   1      -9.155   5.501 132.361  0.00  0.00    +0.131 A 
ATOM      8  C   LIG A   1     -11.865   7.072 129.465  0.00  0.00    +0.018 A 
ATOM      9  C   LIG A   1     -11.489   7.112 128.185  0.00  0.00    +0.092 A 
ATOM     10  C   LIG A   1     -10.205   6.561 127.731  0.00  0.00    +0.337 A 
ATOM     11  O   LIG A   1      -9.862   6.643 126.556  0.00  0.00    -0.245 OA
ATOM     12  O   LIG A   1      -9.414   5.951 128.693  0.00  0.00    -0.422 OA
BRANCH   7  13
ATOM     13  O   LIG A   1      -8.214   5.079 133.268  0.00  0.00    -0.495 OA
ATOM     14  C   LIG A   1      -8.683   4.164 134.256  0.00  0.00    +0.277 C 
ENDBRANCH   7  13
ENDBRANCH   1   2
BRANCH   1  15
ATOM     15  C   LIG A   1      -7.113   4.139 129.570  0.00  0.00    +0.247 C 
BRANCH  15  16
ATOM     16  C   LIG A   1      -5.648   3.857 129.177  0.00  0.00    -0.036 C 
ATOM     17  C   LIG A   1      -5.192   4.104 127.933  0.00  0.00    +0.011 C 
ATOM     18  C   LIG A   1      -4.749   3.189 130.180  0.00  0.00    +0.042 C 
ENDBRANCH  15  16
BRANCH  15  19
ATOM     19  O   LIG A   1      -7.601   2.907 130.159  0.00  0.00    -0.453 OA
BRANCH  19  20
ATOM     20  C   LIG A   1      -8.389   2.110 129.376  0.00  0.00    +0.305 C 
ATOM     21  O   LIG A   1      -9.299   2.483 128.649  0.00  0.00    -0.251 OA
ATOM     22  C   LIG A   1      -7.962   0.684 129.505  0.00  0.00    +0.136 C 
ENDBRANCH  19  20
ENDBRANCH  15  19
ENDBRANCH   1  15
BRANCH   1  23
ATOM     23  O   LIG A   1      -6.690   6.531 130.041  0.00  0.00    -0.452 OA
BRANCH  23  24
ATOM     24  C   LIG A   1      -5.587   7.073 130.612  0.00  0.00    +0.305 C 
ATOM     25  O   LIG A   1      -4.874   7.969 130.145  0.00  0.00    -0.251 OA
ATOM     26  C   LIG A   1      -5.295   6.416 131.920  0.00  0.00    +0.136 C 
ENDBRANCH  23  24
ENDBRANCH   1  23
TORSDOF 8
ENDMDL
