MODEL 1
REMARK VINA RESULT:      -6.5      0.000      0.000
REMARK  Name = NuBBE_1065
REMARK  5 active torsions:
REMARK  status: ('A' for Active; 'I' for Inactive)
REMARK    1  A    between atoms: O_1  and  C_2
REMARK    2  A    between atoms: C_3  and  O_4
REMARK    3  A    between atoms: O_4  and  C_5
REMARK    4  A    between atoms: C_14  and  O_15
REMARK    5  A    between atoms: O_15  and  C_16
REMARK                            x       y       z     vdW  Elec       q    Type
REMARK                         _______ _______ _______ _____ _____    ______ ____
ROOT
ATOM      1  C   LIG A   1     -11.119   6.399 131.531  0.00  0.00    +0.159 A 
ATOM      2  C   LIG A   1     -10.814   7.040 130.331  0.00  0.00    +0.163 A 
ATOM      3  C   LIG A   1      -9.476   7.272 130.026  0.00  0.00    +0.078 A 
ATOM      4  C   LIG A   1      -8.448   6.878 130.873  0.00  0.00    +0.082 A 
ATOM      5  N   LIG A   1      -7.210   7.148 130.466  0.00  0.00    -0.212 NA
ATOM      6  C   LIG A   1      -6.239   6.774 131.307  0.00  0.00    +0.231 A 
ATOM      7  O   LIG A   1      -4.924   7.005 131.040  0.00  0.00    -0.445 OA
ATOM      8  C   LIG A   1      -4.212   6.535 132.092  0.00  0.00    +0.198 A 
ATOM      9  C   LIG A   1      -5.051   5.996 133.038  0.00  0.00    +0.055 A 
ATOM     10  C   LIG A   1      -6.378   6.134 132.538  0.00  0.00    +0.082 A 
ATOM     11  C   LIG A   1      -7.695   5.839 132.944  0.00  0.00    +0.142 A 
ATOM     12  C   LIG A   1      -8.763   6.230 132.094  0.00  0.00    +0.046 A 
ATOM     13  C   LIG A   1     -10.119   6.000 132.406  0.00  0.00    +0.062 A 
ENDROOT
BRANCH   1  14
ATOM     14  O   LIG A   1     -12.420   6.148 131.869  0.00  0.00    -0.503 OA
ATOM     15  H   LIG A   1     -12.448   6.204 132.844  0.00  0.00    +0.292 HD
ENDBRANCH   1  14
BRANCH   2  16
ATOM     16  O   LIG A   1     -11.894   7.379 129.555  0.00  0.00    -0.491 OA
ATOM     17  C   LIG A   1     -12.007   8.749 129.191  0.00  0.00    +0.277 C 
ENDBRANCH   2  16
BRANCH  11  18
ATOM     18  O   LIG A   1      -8.053   5.300 134.173  0.00  0.00    -0.494 OA
ATOM     19  C   LIG A   1      -7.843   3.902 134.316  0.00  0.00    +0.277 C 
ENDBRANCH  11  18
TORSDOF 3
ENDMDL
MODEL 2
REMARK VINA RESULT:      -5.9      2.204      2.361
REMARK  Name = NuBBE_1065
REMARK  5 active torsions:
REMARK  status: ('A' for Active; 'I' for Inactive)
REMARK    1  A    between atoms: O_1  and  C_2
REMARK    2  A    between atoms: C_3  and  O_4
REMARK    3  A    between atoms: O_4  and  C_5
REMARK    4  A    between atoms: C_14  and  O_15
REMARK    5  A    between atoms: O_15  and  C_16
REMARK                            x       y       z     vdW  Elec       q    Type
REMARK                         _______ _______ _______ _____ _____    ______ ____
ROOT
ATOM      1  C   LIG A   1     -12.291   6.963 131.061  0.00  0.00    +0.159 A 
ATOM      2  C   LIG A   1     -12.246   7.150 129.681  0.00  0.00    +0.163 A 
ATOM      3  C   LIG A   1     -11.136   6.681 128.985  0.00  0.00    +0.078 A 
ATOM      4  C   LIG A   1     -10.088   6.030 129.623  0.00  0.00    +0.082 A 
ATOM      5  N   LIG A   1      -9.086   5.620 128.847  0.00  0.00    -0.212 NA
ATOM      6  C   LIG A   1      -8.082   5.011 129.488  0.00  0.00    +0.231 A 
ATOM      7  O   LIG A   1      -6.977   4.559 128.832  0.00  0.00    -0.445 OA
ATOM      8  C   LIG A   1      -6.149   4.026 129.762  0.00  0.00    +0.198 A 
ATOM      9  C   LIG A   1      -6.706   4.124 131.015  0.00  0.00    +0.055 A 
ATOM     10  C   LIG A   1      -7.973   4.755 130.855  0.00  0.00    +0.082 A 
ATOM     11  C   LIG A   1      -9.051   5.180 131.658  0.00  0.00    +0.142 A 
ATOM     12  C   LIG A   1     -10.135   5.846 131.027  0.00  0.00    +0.046 A 
ATOM     13  C   LIG A   1     -11.258   6.326 131.733  0.00  0.00    +0.062 A 
ENDROOT
BRANCH   1  14
ATOM     14  O   LIG A   1     -13.364   7.406 131.784  0.00  0.00    -0.503 OA
ATOM     15  H   LIG A   1     -14.142   6.976 131.378  0.00  0.00    +0.292 HD
ENDBRANCH   1  14
BRANCH   2  16
ATOM     16  O   LIG A   1     -13.332   7.789 129.138  0.00  0.00    -0.491 OA
ATOM     17  C   LIG A   1     -13.114   9.109 128.654  0.00  0.00    +0.277 C 
ENDBRANCH   2  16
BRANCH  11  18
ATOM     18  O   LIG A   1      -9.092   5.112 133.043  0.00  0.00    -0.494 OA
ATOM     19  C   LIG A   1      -9.224   3.807 133.592  0.00  0.00    +0.277 C 
ENDBRANCH  11  18
TORSDOF 3
ENDMDL
MODEL 3
REMARK VINA RESULT:      -5.9      8.806     10.009
REMARK  Name = NuBBE_1065
REMARK  5 active torsions:
REMARK  status: ('A' for Active; 'I' for Inactive)
REMARK    1  A    between atoms: O_1  and  C_2
REMARK    2  A    between atoms: C_3  and  O_4
REMARK    3  A    between atoms: O_4  and  C_5
REMARK    4  A    between atoms: C_14  and  O_15
REMARK    5  A    between atoms: O_15  and  C_16
REMARK                            x       y       z     vdW  Elec       q    Type
REMARK                         _______ _______ _______ _____ _____    ______ ____
ROOT
ATOM      1  C   LIG A   1      -6.375   4.184 120.974  0.00  0.00    +0.159 A 
ATOM      2  C   LIG A   1      -7.666   3.907 120.526  0.00  0.00    +0.163 A 
ATOM      3  C   LIG A   1      -8.555   3.298 121.407  0.00  0.00    +0.078 A 
ATOM      4  C   LIG A   1      -8.196   2.972 122.709  0.00  0.00    +0.082 A 
ATOM      5  N   LIG A   1      -9.137   2.401 123.457  0.00  0.00    -0.212 NA
ATOM      6  C   LIG A   1      -8.761   2.081 124.700  0.00  0.00    +0.231 A 
ATOM      7  O   LIG A   1      -9.607   1.469 125.575  0.00  0.00    -0.445 OA
ATOM      8  C   LIG A   1      -8.916   1.262 126.721  0.00  0.00    +0.198 A 
ATOM      9  C   LIG A   1      -7.632   1.736 126.602  0.00  0.00    +0.055 A 
ATOM     10  C   LIG A   1      -7.515   2.285 125.292  0.00  0.00    +0.082 A 
ATOM     11  C   LIG A   1      -6.536   2.907 124.491  0.00  0.00    +0.142 A 
ATOM     12  C   LIG A   1      -6.881   3.252 123.158  0.00  0.00    +0.046 A 
ATOM     13  C   LIG A   1      -5.978   3.864 122.264  0.00  0.00    +0.062 A 
ENDROOT
BRANCH   1  14
ATOM     14  O   LIG A   1      -5.470   4.784 120.142  0.00  0.00    -0.503 OA
ATOM     15  H   LIG A   1      -5.592   5.744 120.279  0.00  0.00    +0.292 HD
ENDBRANCH   1  14
BRANCH   2  16
ATOM     16  O   LIG A   1      -7.932   4.277 119.232  0.00  0.00    -0.491 OA
ATOM     17  C   LIG A   1      -9.304   4.336 118.859  0.00  0.00    +0.277 C 
ENDBRANCH   2  16
BRANCH  11  18
ATOM     18  O   LIG A   1      -5.212   3.107 124.856  0.00  0.00    -0.494 OA
ATOM     19  C   LIG A   1      -4.979   4.165 125.775  0.00  0.00    +0.277 C 
ENDBRANCH  11  18
TORSDOF 3
ENDMDL
MODEL 4
REMARK VINA RESULT:      -5.8      1.560      2.361
REMARK  Name = NuBBE_1065
REMARK  5 active torsions:
REMARK  status: ('A' for Active; 'I' for Inactive)
REMARK    1  A    between atoms: O_1  and  C_2
REMARK    2  A    between atoms: C_3  and  O_4
REMARK    3  A    between atoms: O_4  and  C_5
REMARK    4  A    between atoms: C_14  and  O_15
REMARK    5  A    between atoms: O_15  and  C_16
REMARK                            x       y       z     vdW  Elec       q    Type
REMARK                         _______ _______ _______ _____ _____    ______ ____
ROOT
ATOM      1  C   LIG A   1      -9.262   5.207 132.937  0.00  0.00    +0.159 A 
ATOM      2  C   LIG A   1      -9.793   6.008 131.928  0.00  0.00    +0.163 A 
ATOM      3  C   LIG A   1      -8.917   6.746 131.138  0.00  0.00    +0.078 A 
ATOM      4  C   LIG A   1      -7.541   6.698 131.321  0.00  0.00    +0.082 A 
ATOM      5  N   LIG A   1      -6.808   7.442 130.496  0.00  0.00    -0.212 NA
ATOM      6  C   LIG A   1      -5.487   7.392 130.704  0.00  0.00    +0.231 A 
ATOM      7  O   LIG A   1      -4.610   8.118 129.957  0.00  0.00    -0.445 OA
ATOM      8  C   LIG A   1      -3.369   7.865 130.437  0.00  0.00    +0.198 A 
ATOM      9  C   LIG A   1      -3.431   6.980 131.486  0.00  0.00    +0.055 A 
ATOM     10  C   LIG A   1      -4.805   6.651 131.669  0.00  0.00    +0.082 A 
ATOM     11  C   LIG A   1      -5.596   5.855 132.521  0.00  0.00    +0.142 A 
ATOM     12  C   LIG A   1      -7.005   5.886 132.351  0.00  0.00    +0.046 A 
ATOM     13  C   LIG A   1      -7.893   5.142 133.156  0.00  0.00    +0.062 A 
ENDROOT
BRANCH   1  14
ATOM     14  O   LIG A   1     -10.086   4.463 133.735  0.00  0.00    -0.503 OA
ATOM     15  H   LIG A   1     -10.694   4.006 133.121  0.00  0.00    +0.292 HD
ENDBRANCH   1  14
BRANCH   2  16
ATOM     16  O   LIG A   1     -11.160   5.980 131.814  0.00  0.00    -0.491 OA
ATOM     17  C   LIG A   1     -11.683   5.587 130.550  0.00  0.00    +0.277 C 
ENDBRANCH   2  16
BRANCH  11  18
ATOM     18  O   LIG A   1      -5.122   5.126 133.604  0.00  0.00    -0.494 OA
ATOM     19  C   LIG A   1      -4.422   3.932 133.284  0.00  0.00    +0.277 C 
ENDBRANCH  11  18
TORSDOF 3
ENDMDL
MODEL 5
REMARK VINA RESULT:      -5.8     10.400     11.818
REMARK  Name = NuBBE_1065
REMARK  5 active torsions:
REMARK  status: ('A' for Active; 'I' for Inactive)
REMARK    1  A    between atoms: O_1  and  C_2
REMARK    2  A    between atoms: C_3  and  O_4
REMARK    3  A    between atoms: O_4  and  C_5
REMARK    4  A    between atoms: C_14  and  O_15
REMARK    5  A    between atoms: O_15  and  C_16
REMARK                            x       y       z     vdW  Elec       q    Type
REMARK                         _______ _______ _______ _____ _____    ______ ____
ROOT
ATOM      1  C   LIG A   1      -5.218  -2.017 128.575  0.00  0.00    +0.159 A 
ATOM      2  C   LIG A   1      -6.377  -2.267 129.309  0.00  0.00    +0.163 A 
ATOM      3  C   LIG A   1      -7.549  -2.557 128.616  0.00  0.00    +0.078 A 
ATOM      4  C   LIG A   1      -7.590  -2.613 127.228  0.00  0.00    +0.082 A 
ATOM      5  N   LIG A   1      -8.768  -2.910 126.683  0.00  0.00    -0.212 NA
ATOM      6  C   LIG A   1      -8.785  -2.941 125.346  0.00  0.00    +0.231 A 
ATOM      7  O   LIG A   1      -9.922  -3.205 124.644  0.00  0.00    -0.445 OA
ATOM      8  C   LIG A   1      -9.608  -3.133 123.329  0.00  0.00    +0.198 A 
ATOM      9  C   LIG A   1      -8.277  -2.828 123.169  0.00  0.00    +0.055 A 
ATOM     10  C   LIG A   1      -7.721  -2.709 124.474  0.00  0.00    +0.082 A 
ATOM     11  C   LIG A   1      -6.478  -2.415 125.070  0.00  0.00    +0.142 A 
ATOM     12  C   LIG A   1      -6.410  -2.354 126.487  0.00  0.00    +0.046 A 
ATOM     13  C   LIG A   1      -5.224  -2.054 127.189  0.00  0.00    +0.062 A 
ENDROOT
BRANCH   1  14
ATOM     14  O   LIG A   1      -4.044  -1.730 129.216  0.00  0.00    -0.503 OA
ATOM     15  H   LIG A   1      -4.300  -1.194 129.992  0.00  0.00    +0.292 HD
ENDBRANCH   1  14
BRANCH   2  16
ATOM     16  O   LIG A   1      -6.235  -2.202 130.672  0.00  0.00    -0.491 OA
ATOM     17  C   LIG A   1      -6.720  -3.316 131.412  0.00  0.00    +0.277 C 
ENDBRANCH   2  16
BRANCH  11  18
ATOM     18  O   LIG A   1      -5.326  -2.056 124.383  0.00  0.00    -0.494 OA
ATOM     19  C   LIG A   1      -4.711  -3.092 123.629  0.00  0.00    +0.277 C 
ENDBRANCH  11  18
TORSDOF 3
ENDMDL
MODEL 6
REMARK VINA RESULT:      -5.7      1.279      5.307
REMARK  Name = NuBBE_1065
REMARK  5 active torsions:
REMARK  status: ('A' for Active; 'I' for Inactive)
REMARK    1  A    between atoms: O_1  and  C_2
REMARK    2  A    between atoms: C_3  and  O_4
REMARK    3  A    between atoms: O_4  and  C_5
REMARK    4  A    between atoms: C_14  and  O_15
REMARK    5  A    between atoms: O_15  and  C_16
REMARK                            x       y       z     vdW  Elec       q    Type
REMARK                         _______ _______ _______ _____ _____    ______ ____
ROOT
ATOM      1  C   LIG A   1      -4.861   6.056 132.702  0.00  0.00    +0.159 A 
ATOM      2  C   LIG A   1      -4.649   6.740 131.506  0.00  0.00    +0.163 A 
ATOM      3  C   LIG A   1      -5.759   7.118 130.754  0.00  0.00    +0.078 A 
ATOM      4  C   LIG A   1      -7.056   6.842 131.166  0.00  0.00    +0.082 A 
ATOM      5  N   LIG A   1      -8.033   7.264 130.365  0.00  0.00    -0.212 NA
ATOM      6  C   LIG A   1      -9.272   6.971 130.775  0.00  0.00    +0.231 A 
ATOM      7  O   LIG A   1     -10.372   7.315 130.050  0.00  0.00    -0.445 OA
ATOM      8  C   LIG A   1     -11.455   6.853 130.720  0.00  0.00    +0.198 A 
ATOM      9  C   LIG A   1     -11.069   6.216 131.875  0.00  0.00    +0.055 A 
ATOM     10  C   LIG A   1      -9.648   6.292 131.934  0.00  0.00    +0.082 A 
ATOM     11  C   LIG A   1      -8.602   5.870 132.779  0.00  0.00    +0.142 A 
ATOM     12  C   LIG A   1      -7.267   6.142 132.380  0.00  0.00    +0.046 A 
ATOM     13  C   LIG A   1      -6.143   5.754 133.139  0.00  0.00    +0.062 A 
ENDROOT
BRANCH   1  14
ATOM     14  O   LIG A   1      -3.800   5.667 133.472  0.00  0.00    -0.503 OA
ATOM     15  H   LIG A   1      -3.523   6.472 133.953  0.00  0.00    +0.292 HD
ENDBRANCH   1  14
BRANCH   2  16
ATOM     16  O   LIG A   1      -3.336   6.979 131.190  0.00  0.00    -0.491 OA
ATOM     17  C   LIG A   1      -2.831   6.315 130.037  0.00  0.00    +0.277 C 
ENDBRANCH   2  16
BRANCH  11  18
ATOM     18  O   LIG A   1      -8.757   5.096 133.921  0.00  0.00    -0.494 OA
ATOM     19  C   LIG A   1      -9.123   3.741 133.700  0.00  0.00    +0.277 C 
ENDBRANCH  11  18
TORSDOF 3
ENDMDL
MODEL 7
REMARK VINA RESULT:      -5.7      8.545      9.520
REMARK  Name = NuBBE_1065
REMARK  5 active torsions:
REMARK  status: ('A' for Active; 'I' for Inactive)
REMARK    1  A    between atoms: O_1  and  C_2
REMARK    2  A    between atoms: C_3  and  O_4
REMARK    3  A    between atoms: O_4  and  C_5
REMARK    4  A    between atoms: C_14  and  O_15
REMARK    5  A    between atoms: O_15  and  C_16
REMARK                            x       y       z     vdW  Elec       q    Type
REMARK                         _______ _______ _______ _____ _____    ______ ____
ROOT
ATOM      1  C   LIG A   1      -6.695   4.435 124.531  0.00  0.00    +0.159 A 
ATOM      2  C   LIG A   1      -6.095   3.951 123.370  0.00  0.00    +0.163 A 
ATOM      3  C   LIG A   1      -6.292   2.615 123.030  0.00  0.00    +0.078 A 
ATOM      4  C   LIG A   1      -7.071   1.766 123.804  0.00  0.00    +0.082 A 
ATOM      5  N   LIG A   1      -7.192   0.513 123.370  0.00  0.00    -0.212 NA
ATOM      6  C   LIG A   1      -7.933  -0.289 124.142  0.00  0.00    +0.231 A 
ATOM      7  O   LIG A   1      -8.127  -1.603 123.840  0.00  0.00    -0.445 OA
ATOM      8  C   LIG A   1      -8.890  -2.132 124.826  0.00  0.00    +0.198 A 
ATOM      9  C   LIG A   1      -9.197  -1.175 125.763  0.00  0.00    +0.055 A 
ATOM     10  C   LIG A   1      -8.590   0.038 125.328  0.00  0.00    +0.082 A 
ATOM     11  C   LIG A   1      -8.466   1.373 125.763  0.00  0.00    +0.142 A 
ATOM     12  C   LIG A   1      -7.676   2.261 124.986  0.00  0.00    +0.046 A 
ATOM     13  C   LIG A   1      -7.472   3.613 125.334  0.00  0.00    +0.062 A 
ENDROOT
BRANCH   1  14
ATOM     14  O   LIG A   1      -6.529   5.741 124.901  0.00  0.00    -0.503 OA
ATOM     15  H   LIG A   1      -5.863   6.101 124.283  0.00  0.00    +0.292 HD
ENDBRANCH   1  14
BRANCH   2  16
ATOM     16  O   LIG A   1      -5.356   4.867 122.664  0.00  0.00    -0.491 OA
ATOM     17  C   LIG A   1      -4.988   4.499 121.340  0.00  0.00    +0.277 C 
ENDBRANCH   2  16
BRANCH  11  18
ATOM     18  O   LIG A   1      -8.955   1.873 126.962  0.00  0.00    -0.494 OA
ATOM     19  C   LIG A   1      -8.225   1.507 128.125  0.00  0.00    +0.277 C 
ENDBRANCH  11  18
TORSDOF 3
ENDMDL
MODEL 8
REMARK VINA RESULT:      -5.7      8.707      9.437
REMARK  Name = NuBBE_1065
REMARK  5 active torsions:
REMARK  status: ('A' for Active; 'I' for Inactive)
REMARK    1  A    between atoms: O_1  and  C_2
REMARK    2  A    between atoms: C_3  and  O_4
REMARK    3  A    between atoms: O_4  and  C_5
REMARK    4  A    between atoms: C_14  and  O_15
REMARK    5  A    between atoms: O_15  and  C_16
REMARK                            x       y       z     vdW  Elec       q    Type
REMARK                         _______ _______ _______ _____ _____    ______ ____
ROOT
ATOM      1  C   LIG A   1      -9.348   1.627 124.317  0.00  0.00    +0.159 A 
ATOM      2  C   LIG A   1      -8.742   2.425 125.286  0.00  0.00    +0.163 A 
ATOM      3  C   LIG A   1      -8.244   1.811 126.432  0.00  0.00    +0.078 A 
ATOM      4  C   LIG A   1      -8.326   0.439 126.628  0.00  0.00    +0.082 A 
ATOM      5  N   LIG A   1      -7.805  -0.029 127.760  0.00  0.00    -0.212 NA
ATOM      6  C   LIG A   1      -7.912  -1.352 127.932  0.00  0.00    +0.231 A 
ATOM      7  O   LIG A   1      -7.449  -1.974 129.052  0.00  0.00    -0.445 OA
ATOM      8  C   LIG A   1      -7.735  -3.291 128.927  0.00  0.00    +0.198 A 
ATOM      9  C   LIG A   1      -8.376  -3.532 127.735  0.00  0.00    +0.055 A 
ATOM     10  C   LIG A   1      -8.492  -2.280 127.067  0.00  0.00    +0.082 A 
ATOM     11  C   LIG A   1      -9.021  -1.768 125.865  0.00  0.00    +0.142 A 
ATOM     12  C   LIG A   1      -8.947  -0.368 125.642  0.00  0.00    +0.046 A 
ATOM     13  C   LIG A   1      -9.457   0.254 124.483  0.00  0.00    +0.062 A 
ENDROOT
BRANCH   1  14
ATOM     14  O   LIG A   1      -9.849   2.188 123.175  0.00  0.00    -0.503 OA
ATOM     15  H   LIG A   1     -10.500   2.851 123.478  0.00  0.00    +0.292 HD
ENDBRANCH   1  14
BRANCH   2  16
ATOM     16  O   LIG A   1      -8.695   3.766 124.998  0.00  0.00    -0.491 OA
ATOM     17  C   LIG A   1      -7.925   4.576 125.878  0.00  0.00    +0.277 C 
ENDBRANCH   2  16
BRANCH  11  18
ATOM     18  O   LIG A   1      -9.726  -2.505 124.923  0.00  0.00    -0.494 OA
ATOM     19  C   LIG A   1      -8.943  -3.354 124.095  0.00  0.00    +0.277 C 
ENDBRANCH  11  18
TORSDOF 3
ENDMDL
MODEL 9
REMARK VINA RESULT:      -5.6      8.942      9.782
REMARK  Name = NuBBE_1065
REMARK  5 active torsions:
REMARK  status: ('A' for Active; 'I' for Inactive)
REMARK    1  A    between atoms: O_1  and  C_2
REMARK    2  A    between atoms: C_3  and  O_4
REMARK    3  A    between atoms: O_4  and  C_5
REMARK    4  A    between atoms: C_14  and  O_15
REMARK    5  A    between atoms: O_15  and  C_16
REMARK                            x       y       z     vdW  Elec       q    Type
REMARK                         _______ _______ _______ _____ _____    ______ ____
ROOT
ATOM      1  C   LIG A   1      -9.221  -0.020 123.352  0.00  0.00    +0.159 A 
ATOM      2  C   LIG A   1      -8.855  -0.988 124.285  0.00  0.00    +0.163 A 
ATOM      3  C   LIG A   1      -7.798  -0.711 125.148  0.00  0.00    +0.078 A 
ATOM      4  C   LIG A   1      -7.114   0.497 125.109  0.00  0.00    +0.082 A 
ATOM      5  N   LIG A   1      -6.128   0.646 125.992  0.00  0.00    -0.212 NA
ATOM      6  C   LIG A   1      -5.473   1.811 125.923  0.00  0.00    +0.231 A 
ATOM      7  O   LIG A   1      -4.426   2.100 126.744  0.00  0.00    -0.445 OA
ATOM      8  C   LIG A   1      -3.974   3.329 126.401  0.00  0.00    +0.198 A 
ATOM      9  C   LIG A   1      -4.720   3.844 125.368  0.00  0.00    +0.055 A 
ATOM     10  C   LIG A   1      -5.711   2.871 125.049  0.00  0.00    +0.082 A 
ATOM     11  C   LIG A   1      -6.769   2.703 124.134  0.00  0.00    +0.142 A 
ATOM     12  C   LIG A   1      -7.486   1.477 124.156  0.00  0.00    +0.046 A 
ATOM     13  C   LIG A   1      -8.553   1.194 123.278  0.00  0.00    +0.062 A 
ENDROOT
BRANCH   1  14
ATOM     14  O   LIG A   1     -10.254  -0.250 122.487  0.00  0.00    -0.503 OA
ATOM     15  H   LIG A   1     -10.549   0.636 122.198  0.00  0.00    +0.292 HD
ENDBRANCH   1  14
BRANCH   2  16
ATOM     16  O   LIG A   1      -9.597  -2.142 124.257  0.00  0.00    -0.491 OA
ATOM     17  C   LIG A   1      -8.981  -3.278 123.663  0.00  0.00    +0.277 C 
ENDBRANCH   2  16
BRANCH  11  18
ATOM     18  O   LIG A   1      -7.101   3.591 123.120  0.00  0.00    -0.494 OA
ATOM     19  C   LIG A   1      -6.187   3.655 122.034  0.00  0.00    +0.277 C 
ENDBRANCH  11  18
TORSDOF 3
ENDMDL
