MODEL 1
REMARK VINA RESULT:      -7.2      0.000      0.000
REMARK  Name = NuBBE_1938
REMARK  3 active torsions:
REMARK  status: ('A' for Active; 'I' for Inactive)
REMARK    1  A    between atoms: C_1  and  C_2
REMARK    2  A    between atoms: C_3  and  C_4
REMARK    3  A    between atoms: C_14  and  C_18
REMARK                            x       y       z     vdW  Elec       q    Type
REMARK                         _______ _______ _______ _____ _____    ______ ____
ROOT
ATOM      1  C   LIG A   1      -6.227  -2.023 122.102  0.00  0.00    +0.012 C 
ATOM      2  C   LIG A   1      -7.243  -2.079 123.243  0.00  0.00    -0.020 C 
ATOM      3  C   LIG A   1      -7.409  -0.895 124.220  0.00  0.00    -0.005 C 
ATOM      4  C   LIG A   1      -7.766   0.472 123.579  0.00  0.00    +0.016 C 
ATOM      5  C   LIG A   1      -8.694  -1.517 125.102  0.00  0.00    -0.067 C 
ATOM      6  C   LIG A   1      -9.394  -0.893 126.028  0.00  0.00    +0.008 C 
ATOM      7  C   LIG A   1      -9.143  -3.066 124.701  0.00  0.00    +0.015 C 
ATOM      8  C   LIG A   1      -9.626  -3.067 123.259  0.00  0.00    +0.008 C 
ATOM      9  C   LIG A   1      -8.643  -2.216 122.496  0.00  0.00    +0.008 C 
ATOM     10  C   LIG A   1      -7.947  -4.084 124.692  0.00  0.00    +0.012 C 
ATOM     11  C   LIG A   1      -6.820  -3.161 124.369  0.00  0.00    -0.001 C 
ATOM     12  C   LIG A   1      -5.366  -3.281 124.753  0.00  0.00    -0.010 C 
ATOM     13  C   LIG A   1      -4.913  -1.828 125.102  0.00  0.00    +0.004 C 
ATOM     14  C   LIG A   1      -5.941  -0.652 124.846  0.00  0.00    +0.012 C 
ATOM     15  C   LIG A   1      -4.500  -4.056 123.776  0.00  0.00    +0.008 C 
ENDROOT
TORSDOF 0
ENDMDL
MODEL 2
REMARK VINA RESULT:      -6.7      1.366      3.884
REMARK  Name = NuBBE_1938
REMARK  3 active torsions:
REMARK  status: ('A' for Active; 'I' for Inactive)
REMARK    1  A    between atoms: C_1  and  C_2
REMARK    2  A    between atoms: C_3  and  C_4
REMARK    3  A    between atoms: C_14  and  C_18
REMARK                            x       y       z     vdW  Elec       q    Type
REMARK                         _______ _______ _______ _____ _____    ______ ____
ROOT
ATOM      1  C   LIG A   1      -9.461  -3.226 124.030  0.00  0.00    +0.012 C 
ATOM      2  C   LIG A   1      -8.106  -2.714 124.520  0.00  0.00    -0.020 C 
ATOM      3  C   LIG A   1      -7.921  -2.213 125.968  0.00  0.00    -0.005 C 
ATOM      4  C   LIG A   1      -8.271  -3.227 127.089  0.00  0.00    +0.016 C 
ATOM      5  C   LIG A   1      -6.269  -1.925 125.891  0.00  0.00    -0.067 C 
ATOM      6  C   LIG A   1      -5.476  -1.596 126.891  0.00  0.00    +0.008 C 
ATOM      7  C   LIG A   1      -5.583  -2.141 124.394  0.00  0.00    +0.015 C 
ATOM      8  C   LIG A   1      -5.740  -3.603 124.002  0.00  0.00    +0.008 C 
ATOM      9  C   LIG A   1      -7.150  -3.980 124.381  0.00  0.00    +0.008 C 
ATOM     10  C   LIG A   1      -6.323  -1.367 123.246  0.00  0.00    +0.012 C 
ATOM     11  C   LIG A   1      -7.703  -1.316 123.812  0.00  0.00    -0.001 C 
ATOM     12  C   LIG A   1      -8.775  -0.280 123.584  0.00  0.00    -0.010 C 
ATOM     13  C   LIG A   1      -9.458  -0.084 124.975  0.00  0.00    +0.004 C 
ATOM     14  C   LIG A   1      -9.016  -1.042 126.156  0.00  0.00    +0.012 C 
ATOM     15  C   LIG A   1      -9.688  -0.541 122.400  0.00  0.00    +0.008 C 
ENDROOT
TORSDOF 0
ENDMDL
MODEL 3
REMARK VINA RESULT:      -6.6      1.248      2.735
REMARK  Name = NuBBE_1938
REMARK  3 active torsions:
REMARK  status: ('A' for Active; 'I' for Inactive)
REMARK    1  A    between atoms: C_1  and  C_2
REMARK    2  A    between atoms: C_3  and  C_4
REMARK    3  A    between atoms: C_14  and  C_18
REMARK                            x       y       z     vdW  Elec       q    Type
REMARK                         _______ _______ _______ _____ _____    ______ ____
ROOT
ATOM      1  C   LIG A   1      -7.847  -4.013 124.363  0.00  0.00    +0.012 C 
ATOM      2  C   LIG A   1      -7.518  -2.592 124.821  0.00  0.00    -0.020 C 
ATOM      3  C   LIG A   1      -7.774  -1.380 123.901  0.00  0.00    -0.005 C 
ATOM      4  C   LIG A   1      -9.233  -1.196 123.406  0.00  0.00    +0.016 C 
ATOM      5  C   LIG A   1      -7.337  -0.181 124.991  0.00  0.00    -0.067 C 
ATOM      6  C   LIG A   1      -7.467   1.120 124.830  0.00  0.00    +0.008 C 
ATOM      7  C   LIG A   1      -6.731  -0.728 126.438  0.00  0.00    +0.015 C 
ATOM      8  C   LIG A   1      -7.822  -1.516 127.146  0.00  0.00    +0.008 C 
ATOM      9  C   LIG A   1      -8.463  -2.375 126.086  0.00  0.00    +0.008 C 
ATOM     10  C   LIG A   1      -5.566  -1.768 126.278  0.00  0.00    +0.012 C 
ATOM     11  C   LIG A   1      -5.923  -2.361 124.956  0.00  0.00    -0.001 C 
ATOM     12  C   LIG A   1      -5.010  -2.964 123.918  0.00  0.00    -0.010 C 
ATOM     13  C   LIG A   1      -5.581  -2.489 122.544  0.00  0.00    +0.004 C 
ATOM     14  C   LIG A   1      -6.949  -1.692 122.549  0.00  0.00    +0.012 C 
ATOM     15  C   LIG A   1      -4.741  -4.449 124.076  0.00  0.00    +0.008 C 
ENDROOT
TORSDOF 0
ENDMDL
MODEL 4
REMARK VINA RESULT:      -6.5      1.254      3.872
REMARK  Name = NuBBE_1938
REMARK  3 active torsions:
REMARK  status: ('A' for Active; 'I' for Inactive)
REMARK    1  A    between atoms: C_1  and  C_2
REMARK    2  A    between atoms: C_3  and  C_4
REMARK    3  A    between atoms: C_14  and  C_18
REMARK                            x       y       z     vdW  Elec       q    Type
REMARK                         _______ _______ _______ _____ _____    ______ ____
ROOT
ATOM      1  C   LIG A   1      -8.847  -0.034 126.219  0.00  0.00    +0.012 C 
ATOM      2  C   LIG A   1      -8.175  -1.067 125.314  0.00  0.00    -0.020 C 
ATOM      3  C   LIG A   1      -6.672  -0.971 124.975  0.00  0.00    -0.005 C 
ATOM      4  C   LIG A   1      -5.700  -0.967 126.184  0.00  0.00    +0.016 C 
ATOM      5  C   LIG A   1      -6.555  -2.394 124.094  0.00  0.00    -0.067 C 
ATOM      6  C   LIG A   1      -5.453  -2.949 123.630  0.00  0.00    +0.008 C 
ATOM      7  C   LIG A   1      -7.990  -3.192 123.844  0.00  0.00    +0.015 C 
ATOM      8  C   LIG A   1      -8.542  -3.618 125.196  0.00  0.00    +0.008 C 
ATOM      9  C   LIG A   1      -8.346  -2.436 126.111  0.00  0.00    +0.008 C 
ATOM     10  C   LIG A   1      -9.122  -2.279 123.252  0.00  0.00    +0.012 C 
ATOM     11  C   LIG A   1      -8.694  -0.953 123.786  0.00  0.00    -0.001 C 
ATOM     12  C   LIG A   1      -8.921   0.416 123.195  0.00  0.00    -0.010 C 
ATOM     13  C   LIG A   1      -7.593   1.197 123.448  0.00  0.00    +0.004 C 
ATOM     14  C   LIG A   1      -6.477   0.493 124.323  0.00  0.00    +0.012 C 
ATOM     15  C   LIG A   1     -10.211   1.098 123.616  0.00  0.00    +0.008 C 
ENDROOT
TORSDOF 0
ENDMDL
MODEL 5
REMARK VINA RESULT:      -6.5      2.109      3.849
REMARK  Name = NuBBE_1938
REMARK  3 active torsions:
REMARK  status: ('A' for Active; 'I' for Inactive)
REMARK    1  A    between atoms: C_1  and  C_2
REMARK    2  A    between atoms: C_3  and  C_4
REMARK    3  A    between atoms: C_14  and  C_18
REMARK                            x       y       z     vdW  Elec       q    Type
REMARK                         _______ _______ _______ _____ _____    ______ ____
ROOT
ATOM      1  C   LIG A   1      -8.252  -0.586 124.993  0.00  0.00    +0.012 C 
ATOM      2  C   LIG A   1      -7.562  -1.319 126.144  0.00  0.00    -0.020 C 
ATOM      3  C   LIG A   1      -6.035  -1.543 126.143  0.00  0.00    -0.005 C 
ATOM      4  C   LIG A   1      -5.159  -0.266 126.044  0.00  0.00    +0.016 C 
ATOM      5  C   LIG A   1      -5.917  -2.256 127.658  0.00  0.00    -0.067 C 
ATOM      6  C   LIG A   1      -4.810  -2.567 128.302  0.00  0.00    +0.008 C 
ATOM      7  C   LIG A   1      -7.365  -2.535 128.423  0.00  0.00    +0.015 C 
ATOM      8  C   LIG A   1      -8.038  -1.194 128.677  0.00  0.00    +0.008 C 
ATOM      9  C   LIG A   1      -7.857  -0.397 127.410  0.00  0.00    +0.008 C 
ATOM     10  C   LIG A   1      -8.404  -3.310 127.537  0.00  0.00    +0.012 C 
ATOM     11  C   LIG A   1      -7.957  -2.887 126.177  0.00  0.00    -0.001 C 
ATOM     12  C   LIG A   1      -8.075  -3.636 124.874  0.00  0.00    -0.010 C 
ATOM     13  C   LIG A   1      -6.734  -3.360 124.121  0.00  0.00    +0.004 C 
ATOM     14  C   LIG A   1      -5.722  -2.329 124.767  0.00  0.00    +0.012 C 
ATOM     15  C   LIG A   1      -9.359  -3.396 124.102  0.00  0.00    +0.008 C 
ENDROOT
TORSDOF 0
ENDMDL
MODEL 6
REMARK VINA RESULT:      -6.4      1.386      3.690
REMARK  Name = NuBBE_1938
REMARK  3 active torsions:
REMARK  status: ('A' for Active; 'I' for Inactive)
REMARK    1  A    between atoms: C_1  and  C_2
REMARK    2  A    between atoms: C_3  and  C_4
REMARK    3  A    between atoms: C_14  and  C_18
REMARK                            x       y       z     vdW  Elec       q    Type
REMARK                         _______ _______ _______ _____ _____    ______ ____
ROOT
ATOM      1  C   LIG A   1      -5.353  -0.719 125.767  0.00  0.00    +0.012 C 
ATOM      2  C   LIG A   1      -6.711  -1.356 125.471  0.00  0.00    -0.020 C 
ATOM      3  C   LIG A   1      -6.945  -2.170 124.181  0.00  0.00    -0.005 C 
ATOM      4  C   LIG A   1      -6.000  -3.381 123.960  0.00  0.00    +0.016 C 
ATOM      5  C   LIG A   1      -8.514  -2.664 124.514  0.00  0.00    -0.067 C 
ATOM      6  C   LIG A   1      -9.237  -3.521 123.822  0.00  0.00    +0.008 C 
ATOM      7  C   LIG A   1      -9.176  -2.029 125.898  0.00  0.00    +0.015 C 
ATOM      8  C   LIG A   1      -8.358  -2.513 127.086  0.00  0.00    +0.008 C 
ATOM      9  C   LIG A   1      -6.914  -2.387 126.669  0.00  0.00    +0.008 C 
ATOM     10  C   LIG A   1      -9.068  -0.465 125.986  0.00  0.00    +0.012 C 
ATOM     11  C   LIG A   1      -7.842  -0.240 125.166  0.00  0.00    -0.001 C 
ATOM     12  C   LIG A   1      -7.469   0.968 124.344  0.00  0.00    -0.010 C 
ATOM     13  C   LIG A   1      -6.813   0.395 123.048  0.00  0.00    +0.004 C 
ATOM     14  C   LIG A   1      -6.569  -1.168 122.972  0.00  0.00    +0.012 C 
ATOM     15  C   LIG A   1      -6.700   2.045 125.087  0.00  0.00    +0.008 C 
ENDROOT
TORSDOF 0
ENDMDL
MODEL 7
REMARK VINA RESULT:      -6.4      1.208      3.396
REMARK  Name = NuBBE_1938
REMARK  3 active torsions:
REMARK  status: ('A' for Active; 'I' for Inactive)
REMARK    1  A    between atoms: C_1  and  C_2
REMARK    2  A    between atoms: C_3  and  C_4
REMARK    3  A    between atoms: C_14  and  C_18
REMARK                            x       y       z     vdW  Elec       q    Type
REMARK                         _______ _______ _______ _____ _____    ______ ____
ROOT
ATOM      1  C   LIG A   1      -7.005   0.674 123.158  0.00  0.00    +0.012 C 
ATOM      2  C   LIG A   1      -6.977  -0.737 123.748  0.00  0.00    -0.020 C 
ATOM      3  C   LIG A   1      -8.284  -1.470 124.120  0.00  0.00    -0.005 C 
ATOM      4  C   LIG A   1      -9.313  -1.653 122.973  0.00  0.00    +0.016 C 
ATOM      5  C   LIG A   1      -7.594  -2.932 124.570  0.00  0.00    -0.067 C 
ATOM      6  C   LIG A   1      -8.230  -4.046 124.874  0.00  0.00    +0.008 C 
ATOM      7  C   LIG A   1      -5.934  -2.962 124.567  0.00  0.00    +0.015 C 
ATOM      8  C   LIG A   1      -5.453  -2.729 123.142  0.00  0.00    +0.008 C 
ATOM      9  C   LIG A   1      -6.309  -1.614 122.597  0.00  0.00    +0.008 C 
ATOM     10  C   LIG A   1      -5.283  -1.783 125.375  0.00  0.00    +0.012 C 
ATOM     11  C   LIG A   1      -6.352  -0.751 125.239  0.00  0.00    -0.001 C 
ATOM     12  C   LIG A   1      -6.703   0.370 126.186  0.00  0.00    -0.010 C 
ATOM     13  C   LIG A   1      -8.263   0.438 126.179  0.00  0.00    +0.004 C 
ATOM     14  C   LIG A   1      -9.039  -0.490 125.158  0.00  0.00    +0.012 C 
ATOM     15  C   LIG A   1      -5.956   1.671 125.956  0.00  0.00    +0.008 C 
ENDROOT
TORSDOF 0
ENDMDL
MODEL 8
REMARK VINA RESULT:      -6.2      2.756      3.844
REMARK  Name = NuBBE_1938
REMARK  3 active torsions:
REMARK  status: ('A' for Active; 'I' for Inactive)
REMARK    1  A    between atoms: C_1  and  C_2
REMARK    2  A    between atoms: C_3  and  C_4
REMARK    3  A    between atoms: C_14  and  C_18
REMARK                            x       y       z     vdW  Elec       q    Type
REMARK                         _______ _______ _______ _____ _____    ______ ____
ROOT
ATOM      1  C   LIG A   1      -5.394  -2.401 127.628  0.00  0.00    +0.012 C 
ATOM      2  C   LIG A   1      -6.744  -2.099 126.977  0.00  0.00    -0.020 C 
ATOM      3  C   LIG A   1      -7.291  -0.657 126.910  0.00  0.00    -0.005 C 
ATOM      4  C   LIG A   1      -6.385   0.381 126.197  0.00  0.00    +0.016 C 
ATOM      5  C   LIG A   1      -8.672  -0.988 126.016  0.00  0.00    -0.067 C 
ATOM      6  C   LIG A   1      -9.515  -0.111 125.510  0.00  0.00    +0.008 C 
ATOM      7  C   LIG A   1      -8.947  -2.597 125.708  0.00  0.00    +0.015 C 
ATOM      8  C   LIG A   1      -7.800  -3.124 124.858  0.00  0.00    +0.008 C 
ATOM      9  C   LIG A   1      -6.544  -2.551 125.463  0.00  0.00    +0.008 C 
ATOM     10  C   LIG A   1      -8.902  -3.499 126.992  0.00  0.00    +0.012 C 
ATOM     11  C   LIG A   1      -7.973  -2.699 127.842  0.00  0.00    -0.001 C 
ATOM     12  C   LIG A   1      -7.914  -2.613 129.347  0.00  0.00    -0.010 C 
ATOM     13  C   LIG A   1      -7.623  -1.111 129.660  0.00  0.00    +0.004 C 
ATOM     14  C   LIG A   1      -7.327  -0.145 128.441  0.00  0.00    +0.012 C 
ATOM     15  C   LIG A   1      -7.024  -3.642 130.020  0.00  0.00    +0.008 C 
ENDROOT
TORSDOF 0
ENDMDL
MODEL 9
REMARK VINA RESULT:      -6.0      1.494      2.991
REMARK  Name = NuBBE_1938
REMARK  3 active torsions:
REMARK  status: ('A' for Active; 'I' for Inactive)
REMARK    1  A    between atoms: C_1  and  C_2
REMARK    2  A    between atoms: C_3  and  C_4
REMARK    3  A    between atoms: C_14  and  C_18
REMARK                            x       y       z     vdW  Elec       q    Type
REMARK                         _______ _______ _______ _____ _____    ______ ____
ROOT
ATOM      1  C   LIG A   1      -6.354   0.357 125.691  0.00  0.00    +0.012 C 
ATOM      2  C   LIG A   1      -6.907  -0.852 124.935  0.00  0.00    -0.020 C 
ATOM      3  C   LIG A   1      -8.415  -1.183 124.956  0.00  0.00    -0.005 C 
ATOM      4  C   LIG A   1      -9.363  -0.064 124.451  0.00  0.00    +0.016 C 
ATOM      5  C   LIG A   1      -8.370  -2.480 123.893  0.00  0.00    -0.067 C 
ATOM      6  C   LIG A   1      -9.402  -3.128 123.392  0.00  0.00    +0.008 C 
ATOM      7  C   LIG A   1      -6.851  -2.936 123.397  0.00  0.00    +0.015 C 
ATOM      8  C   LIG A   1      -6.233  -1.781 122.624  0.00  0.00    +0.008 C 
ATOM      9  C   LIG A   1      -6.560  -0.538 123.413  0.00  0.00    +0.008 C 
ATOM     10  C   LIG A   1      -5.847  -3.169 124.582  0.00  0.00    +0.012 C 
ATOM     11  C   LIG A   1      -6.426  -2.246 125.601  0.00  0.00    -0.001 C 
ATOM     12  C   LIG A   1      -6.374  -2.354 127.105  0.00  0.00    -0.010 C 
ATOM     13  C   LIG A   1      -7.785  -1.898 127.597  0.00  0.00    +0.004 C 
ATOM     14  C   LIG A   1      -8.795  -1.330 126.519  0.00  0.00    +0.012 C 
ATOM     15  C   LIG A   1      -5.172  -1.701 127.761  0.00  0.00    +0.008 C 
ENDROOT
TORSDOF 0
ENDMDL
