MODEL 1
REMARK VINA RESULT:      -6.7      0.000      0.000
REMARK  Name = NuBBE_912
REMARK  16 active torsions:
REMARK  status: ('A' for Active; 'I' for Inactive)
REMARK    1  A    between atoms: C_3  and  O_4
REMARK    2  A    between atoms: O_4  and  C_5
REMARK    3  A    between atoms: C_6  and  C_7
REMARK    4  A    between atoms: C_7  and  C_8
REMARK    5  A    between atoms: C_8  and  C_9
REMARK    6  A    between atoms: C_9  and  C_10
REMARK    7  A    between atoms: C_10  and  C_11
REMARK    8  A    between atoms: C_11  and  C_12
REMARK    9  A    between atoms: C_12  and  C_13
REMARK   10  A    between atoms: C_13  and  C_14
REMARK   11  A    between atoms: C_14  and  C_15
REMARK   12  A    between atoms: C_15  and  C_16
REMARK   13  A    between atoms: C_16  and  C_17
REMARK   14  A    between atoms: C_17  and  C_18
REMARK   15  A    between atoms: C_18  and  C_19
REMARK   16  A    between atoms: C_18  and  O_20
REMARK                            x       y       z     vdW  Elec       q    Type
REMARK                         _______ _______ _______ _____ _____    ______ ____
ROOT
ATOM      1  C   LIG A   1      -8.571   2.629 124.401  0.00  0.00    +0.057 C 
ENDROOT
BRANCH   1   5
ATOM      2  O   LIG A   1      -4.504   4.420 122.313  0.00  0.00    -0.283 OA
ATOM      3  C   LIG A   1      -5.678   4.101 122.260  0.00  0.00    +0.231 A 
ATOM      4  C   LIG A   1      -6.446   3.556 123.450  0.00  0.00    +0.186 A 
ATOM      5  C   LIG A   1      -7.734   3.193 123.260  0.00  0.00    +0.062 A 
ATOM      6  N   LIG A   1      -8.376   3.295 122.038  0.00  0.00    -0.355 N 
ATOM      7  H   LIG A   1      -9.364   3.084 121.993  0.00  0.00    +0.166 HD
ATOM      8  C   LIG A   1      -7.755   3.854 120.914  0.00  0.00    +0.051 A 
ATOM      9  C   LIG A   1      -8.448   3.996 119.709  0.00  0.00    +0.026 A 
ATOM     10  C   LIG A   1      -7.816   4.545 118.587  0.00  0.00    +0.002 A 
ATOM     11  C   LIG A   1      -6.483   4.943 118.658  0.00  0.00    +0.001 A 
ATOM     12  C   LIG A   1      -5.778   4.795 119.855  0.00  0.00    +0.014 A 
ATOM     13  C   LIG A   1      -6.417   4.253 120.978  0.00  0.00    +0.049 A 
BRANCH   4  14
ATOM     14  O   LIG A   1      -5.864   3.410 124.702  0.00  0.00    -0.490 OA
ATOM     15  C   LIG A   1      -5.754   4.594 125.483  0.00  0.00    +0.277 C 
ENDBRANCH   4  14
ENDBRANCH   1   5
BRANCH   1  16
ATOM     16  C   LIG A   1      -8.455   1.102 124.495  0.00  0.00    +0.006 C 
BRANCH  16  17
ATOM     17  C   LIG A   1      -9.228   0.542 125.693  0.00  0.00    +0.000 C 
BRANCH  17  18
ATOM     18  C   LIG A   1      -8.306   0.321 126.890  0.00  0.00    +0.000 C 
BRANCH  18  19
ATOM     19  C   LIG A   1      -7.117  -0.566 126.525  0.00  0.00    -0.000 C 
BRANCH  19  20
ATOM     20  C   LIG A   1      -6.996  -1.786 127.439  0.00  0.00    -0.000 C 
BRANCH  20  21
ATOM     21  C   LIG A   1      -8.338  -2.487 127.680  0.00  0.00    -0.000 C 
BRANCH  21  22
ATOM     22  C   LIG A   1      -8.648  -3.578 126.650  0.00  0.00    -0.000 C 
BRANCH  22  23
ATOM     23  C   LIG A   1      -9.366  -3.025 125.416  0.00  0.00    +0.000 C 
BRANCH  23  24
ATOM     24  C   LIG A   1      -8.644  -3.330 124.098  0.00  0.00    +0.002 C 
BRANCH  24  25
ATOM     25  C   LIG A   1      -7.162  -3.668 124.348  0.00  0.00    +0.031 C 
BRANCH  25  26
ATOM     26  C   LIG A   1      -6.191  -2.833 123.497  0.00  0.00    +0.111 C 
ATOM     27  C   LIG A   1      -6.898  -1.671 122.804  0.00  0.00    +0.037 C 
BRANCH  26  28
ATOM     28  O   LIG A   1      -5.135  -2.305 124.296  0.00  0.00    -0.392 OA
ATOM     29  H   LIG A   1      -4.915  -1.416 123.969  0.00  0.00    +0.210 HD
ENDBRANCH  26  28
ENDBRANCH  25  26
ENDBRANCH  24  25
ENDBRANCH  23  24
ENDBRANCH  22  23
ENDBRANCH  21  22
ENDBRANCH  20  21
ENDBRANCH  19  20
ENDBRANCH  18  19
ENDBRANCH  17  18
ENDBRANCH  16  17
ENDBRANCH   1  16
TORSDOF 14
ENDMDL
MODEL 2
REMARK VINA RESULT:      -6.4      1.666      3.069
REMARK  Name = NuBBE_912
REMARK  16 active torsions:
REMARK  status: ('A' for Active; 'I' for Inactive)
REMARK    1  A    between atoms: C_3  and  O_4
REMARK    2  A    between atoms: O_4  and  C_5
REMARK    3  A    between atoms: C_6  and  C_7
REMARK    4  A    between atoms: C_7  and  C_8
REMARK    5  A    between atoms: C_8  and  C_9
REMARK    6  A    between atoms: C_9  and  C_10
REMARK    7  A    between atoms: C_10  and  C_11
REMARK    8  A    between atoms: C_11  and  C_12
REMARK    9  A    between atoms: C_12  and  C_13
REMARK   10  A    between atoms: C_13  and  C_14
REMARK   11  A    between atoms: C_14  and  C_15
REMARK   12  A    between atoms: C_15  and  C_16
REMARK   13  A    between atoms: C_16  and  C_17
REMARK   14  A    between atoms: C_17  and  C_18
REMARK   15  A    between atoms: C_18  and  C_19
REMARK   16  A    between atoms: C_18  and  O_20
REMARK                            x       y       z     vdW  Elec       q    Type
REMARK                         _______ _______ _______ _____ _____    ______ ____
ROOT
ATOM      1  C   LIG A   1      -8.521   2.499 124.596  0.00  0.00    +0.057 C 
ENDROOT
BRANCH   1   5
ATOM      2  O   LIG A   1      -4.775   3.997 121.797  0.00  0.00    -0.283 OA
ATOM      3  C   LIG A   1      -5.960   3.763 121.957  0.00  0.00    +0.231 A 
ATOM      4  C   LIG A   1      -6.540   3.273 123.271  0.00  0.00    +0.186 A 
ATOM      5  C   LIG A   1      -7.864   3.004 123.317  0.00  0.00    +0.062 A 
ATOM      6  N   LIG A   1      -8.704   3.155 122.228  0.00  0.00    -0.355 N 
ATOM      7  H   LIG A   1      -9.697   3.015 122.362  0.00  0.00    +0.166 HD
ATOM      8  C   LIG A   1      -8.256   3.670 121.006  0.00  0.00    +0.051 A 
ATOM      9  C   LIG A   1      -9.142   3.863 119.942  0.00  0.00    +0.026 A 
ATOM     10  C   LIG A   1      -8.682   4.368 118.720  0.00  0.00    +0.002 A 
ATOM     11  C   LIG A   1      -7.332   4.669 118.548  0.00  0.00    +0.001 A 
ATOM     12  C   LIG A   1      -6.438   4.468 119.601  0.00  0.00    +0.014 A 
ATOM     13  C   LIG A   1      -6.903   3.971 120.826  0.00  0.00    +0.049 A 
BRANCH   4  14
ATOM     14  O   LIG A   1      -5.756   3.083 124.401  0.00  0.00    -0.490 OA
ATOM     15  C   LIG A   1      -5.393   4.258 125.116  0.00  0.00    +0.277 C 
ENDBRANCH   4  14
ENDBRANCH   1   5
BRANCH   1  16
ATOM     16  C   LIG A   1      -8.328   0.989 124.780  0.00  0.00    +0.006 C 
BRANCH  16  17
ATOM     17  C   LIG A   1      -9.267   0.178 123.881  0.00  0.00    +0.000 C 
BRANCH  17  18
ATOM     18  C   LIG A   1      -8.507  -0.918 123.136  0.00  0.00    +0.000 C 
BRANCH  18  19
ATOM     19  C   LIG A   1      -9.343  -2.190 123.004  0.00  0.00    -0.000 C 
BRANCH  19  20
ATOM     20  C   LIG A   1      -8.977  -3.241 124.052  0.00  0.00    -0.000 C 
BRANCH  20  21
ATOM     21  C   LIG A   1      -7.583  -3.026 124.652  0.00  0.00    -0.000 C 
BRANCH  21  22
ATOM     22  C   LIG A   1      -7.597  -2.838 126.173  0.00  0.00    -0.000 C 
BRANCH  22  23
ATOM     23  C   LIG A   1      -8.867  -3.404 126.815  0.00  0.00    +0.000 C 
BRANCH  23  24
ATOM     24  C   LIG A   1      -8.703  -3.744 128.301  0.00  0.00    +0.002 C 
BRANCH  24  25
ATOM     25  C   LIG A   1      -7.998  -2.599 129.053  0.00  0.00    +0.031 C 
BRANCH  25  26
ATOM     26  C   LIG A   1      -6.572  -2.951 129.509  0.00  0.00    +0.111 C 
ATOM     27  C   LIG A   1      -6.077  -2.008 130.603  0.00  0.00    +0.037 C 
BRANCH  26  28
ATOM     28  O   LIG A   1      -6.508  -4.286 130.003  0.00  0.00    -0.392 OA
ATOM     29  H   LIG A   1      -7.054  -4.345 130.806  0.00  0.00    +0.210 HD
ENDBRANCH  26  28
ENDBRANCH  25  26
ENDBRANCH  24  25
ENDBRANCH  23  24
ENDBRANCH  22  23
ENDBRANCH  21  22
ENDBRANCH  20  21
ENDBRANCH  19  20
ENDBRANCH  18  19
ENDBRANCH  17  18
ENDBRANCH  16  17
ENDBRANCH   1  16
TORSDOF 14
ENDMDL
MODEL 3
REMARK VINA RESULT:      -6.4      1.708      3.276
REMARK  Name = NuBBE_912
REMARK  16 active torsions:
REMARK  status: ('A' for Active; 'I' for Inactive)
REMARK    1  A    between atoms: C_3  and  O_4
REMARK    2  A    between atoms: O_4  and  C_5
REMARK    3  A    between atoms: C_6  and  C_7
REMARK    4  A    between atoms: C_7  and  C_8
REMARK    5  A    between atoms: C_8  and  C_9
REMARK    6  A    between atoms: C_9  and  C_10
REMARK    7  A    between atoms: C_10  and  C_11
REMARK    8  A    between atoms: C_11  and  C_12
REMARK    9  A    between atoms: C_12  and  C_13
REMARK   10  A    between atoms: C_13  and  C_14
REMARK   11  A    between atoms: C_14  and  C_15
REMARK   12  A    between atoms: C_15  and  C_16
REMARK   13  A    between atoms: C_16  and  C_17
REMARK   14  A    between atoms: C_17  and  C_18
REMARK   15  A    between atoms: C_18  and  C_19
REMARK   16  A    between atoms: C_18  and  O_20
REMARK                            x       y       z     vdW  Elec       q    Type
REMARK                         _______ _______ _______ _____ _____    ______ ____
ROOT
ATOM      1  C   LIG A   1      -9.410   1.654 124.214  0.00  0.00    +0.057 C 
ENDROOT
BRANCH   1   5
ATOM      2  O   LIG A   1      -5.045   3.838 124.761  0.00  0.00    -0.283 OA
ATOM      3  C   LIG A   1      -5.997   3.514 124.073  0.00  0.00    +0.231 A 
ATOM      4  C   LIG A   1      -7.199   2.763 124.617  0.00  0.00    +0.186 A 
ATOM      5  C   LIG A   1      -8.176   2.418 123.749  0.00  0.00    +0.062 A 
ATOM      6  N   LIG A   1      -8.127   2.716 122.399  0.00  0.00    -0.355 N 
ATOM      7  H   LIG A   1      -8.934   2.500 121.828  0.00  0.00    +0.166 HD
ATOM      8  C   LIG A   1      -7.088   3.467 121.838  0.00  0.00    +0.051 A 
ATOM      9  C   LIG A   1      -7.096   3.801 120.480  0.00  0.00    +0.026 A 
ATOM     10  C   LIG A   1      -6.046   4.543 119.926  0.00  0.00    +0.002 A 
ATOM     11  C   LIG A   1      -4.974   4.943 120.721  0.00  0.00    +0.001 A 
ATOM     12  C   LIG A   1      -4.951   4.605 122.075  0.00  0.00    +0.014 A 
ATOM     13  C   LIG A   1      -6.008   3.870 122.629  0.00  0.00    +0.049 A 
BRANCH   4  14
ATOM     14  O   LIG A   1      -7.310   2.415 125.957  0.00  0.00    -0.490 OA
ATOM     15  C   LIG A   1      -7.698   3.457 126.844  0.00  0.00    +0.277 C 
ENDBRANCH   4  14
ENDBRANCH   1   5
BRANCH   1  16
ATOM     16  C   LIG A   1      -9.158   0.143 124.276  0.00  0.00    +0.006 C 
BRANCH  16  17
ATOM     17  C   LIG A   1      -9.380  -0.531 122.918  0.00  0.00    +0.000 C 
BRANCH  17  18
ATOM     18  C   LIG A   1      -8.698  -1.897 122.862  0.00  0.00    +0.000 C 
BRANCH  18  19
ATOM     19  C   LIG A   1      -9.130  -2.786 124.027  0.00  0.00    -0.000 C 
BRANCH  19  20
ATOM     20  C   LIG A   1      -7.968  -3.591 124.609  0.00  0.00    -0.000 C 
BRANCH  20  21
ATOM     21  C   LIG A   1      -6.623  -3.260 123.951  0.00  0.00    -0.000 C 
BRANCH  21  22
ATOM     22  C   LIG A   1      -5.586  -2.708 124.935  0.00  0.00    -0.000 C 
BRANCH  22  23
ATOM     23  C   LIG A   1      -5.757  -1.205 125.177  0.00  0.00    +0.000 C 
BRANCH  23  24
ATOM     24  C   LIG A   1      -6.144  -0.857 126.619  0.00  0.00    +0.002 C 
BRANCH  24  25
ATOM     25  C   LIG A   1      -6.249  -2.128 127.483  0.00  0.00    +0.031 C 
BRANCH  25  26
ATOM     26  C   LIG A   1      -7.580  -2.244 128.244  0.00  0.00    +0.111 C 
ATOM     27  C   LIG A   1      -7.598  -3.452 129.178  0.00  0.00    +0.037 C 
BRANCH  26  28
ATOM     28  O   LIG A   1      -7.830  -1.074 129.018  0.00  0.00    -0.392 OA
ATOM     29  H   LIG A   1      -7.470  -0.305 128.543  0.00  0.00    +0.210 HD
ENDBRANCH  26  28
ENDBRANCH  25  26
ENDBRANCH  24  25
ENDBRANCH  23  24
ENDBRANCH  22  23
ENDBRANCH  21  22
ENDBRANCH  20  21
ENDBRANCH  19  20
ENDBRANCH  18  19
ENDBRANCH  17  18
ENDBRANCH  16  17
ENDBRANCH   1  16
TORSDOF 14
ENDMDL
MODEL 4
REMARK VINA RESULT:      -6.2      5.717      7.543
REMARK  Name = NuBBE_912
REMARK  16 active torsions:
REMARK  status: ('A' for Active; 'I' for Inactive)
REMARK    1  A    between atoms: C_3  and  O_4
REMARK    2  A    between atoms: O_4  and  C_5
REMARK    3  A    between atoms: C_6  and  C_7
REMARK    4  A    between atoms: C_7  and  C_8
REMARK    5  A    between atoms: C_8  and  C_9
REMARK    6  A    between atoms: C_9  and  C_10
REMARK    7  A    between atoms: C_10  and  C_11
REMARK    8  A    between atoms: C_11  and  C_12
REMARK    9  A    between atoms: C_12  and  C_13
REMARK   10  A    between atoms: C_13  and  C_14
REMARK   11  A    between atoms: C_14  and  C_15
REMARK   12  A    between atoms: C_15  and  C_16
REMARK   13  A    between atoms: C_16  and  C_17
REMARK   14  A    between atoms: C_17  and  C_18
REMARK   15  A    between atoms: C_18  and  C_19
REMARK   16  A    between atoms: C_18  and  O_20
REMARK                            x       y       z     vdW  Elec       q    Type
REMARK                         _______ _______ _______ _____ _____    ______ ____
ROOT
ATOM      1  C   LIG A   1      -9.057   3.294 131.956  0.00  0.00    +0.057 C 
ENDROOT
BRANCH   1   5
ATOM      2  O   LIG A   1      -9.429   6.170 127.993  0.00  0.00    -0.283 OA
ATOM      3  C   LIG A   1      -9.777   5.851 129.115  0.00  0.00    +0.231 A 
ATOM      4  C   LIG A   1      -9.137   4.716 129.894  0.00  0.00    +0.186 A 
ATOM      5  C   LIG A   1      -9.637   4.425 131.115  0.00  0.00    +0.062 A 
ATOM      6  N   LIG A   1     -10.699   5.109 131.680  0.00  0.00    -0.355 N 
ATOM      7  H   LIG A   1     -10.963   4.890 132.631  0.00  0.00    +0.166 HD
ATOM      8  C   LIG A   1     -11.293   6.212 131.054  0.00  0.00    +0.051 A 
ATOM      9  C   LIG A   1     -12.327   6.918 131.676  0.00  0.00    +0.026 A 
ATOM     10  C   LIG A   1     -12.922   8.012 131.037  0.00  0.00    +0.002 A 
ATOM     11  C   LIG A   1     -12.500   8.398 129.767  0.00  0.00    +0.001 A 
ATOM     12  C   LIG A   1     -11.476   7.692 129.133  0.00  0.00    +0.014 A 
ATOM     13  C   LIG A   1     -10.875   6.603 129.779  0.00  0.00    +0.049 A 
BRANCH   4  14
ATOM     14  O   LIG A   1      -8.079   3.974 129.385  0.00  0.00    -0.490 OA
ATOM     15  C   LIG A   1      -6.787   4.557 129.514  0.00  0.00    +0.277 C 
ENDBRANCH   4  14
ENDBRANCH   1   5
BRANCH   1  16
ATOM     16  C   LIG A   1     -10.003   2.090 132.027  0.00  0.00    +0.006 C 
BRANCH  16  17
ATOM     17  C   LIG A   1      -9.261   0.766 131.819  0.00  0.00    +0.000 C 
BRANCH  17  18
ATOM     18  C   LIG A   1      -8.442   0.789 130.530  0.00  0.00    +0.000 C 
BRANCH  18  19
ATOM     19  C   LIG A   1      -7.093   0.095 130.709  0.00  0.00    -0.000 C 
BRANCH  19  20
ATOM     20  C   LIG A   1      -6.822  -0.945 129.622  0.00  0.00    -0.000 C 
BRANCH  20  21
ATOM     21  C   LIG A   1      -7.526  -2.281 129.884  0.00  0.00    -0.000 C 
BRANCH  21  22
ATOM     22  C   LIG A   1      -7.480  -3.237 128.688  0.00  0.00    -0.000 C 
BRANCH  22  23
ATOM     23  C   LIG A   1      -8.856  -3.825 128.362  0.00  0.00    +0.000 C 
BRANCH  23  24
ATOM     24  C   LIG A   1      -9.293  -3.593 126.911  0.00  0.00    +0.002 C 
BRANCH  24  25
ATOM     25  C   LIG A   1      -8.147  -2.984 126.081  0.00  0.00    +0.031 C 
BRANCH  25  26
ATOM     26  C   LIG A   1      -8.631  -2.198 124.851  0.00  0.00    +0.111 C 
ATOM     27  C   LIG A   1      -9.223  -3.117 123.785  0.00  0.00    +0.037 C 
BRANCH  26  28
ATOM     28  O   LIG A   1      -9.619  -1.237 125.215  0.00  0.00    -0.392 OA
ATOM     29  H   LIG A   1      -9.225  -0.350 125.159  0.00  0.00    +0.210 HD
ENDBRANCH  26  28
ENDBRANCH  25  26
ENDBRANCH  24  25
ENDBRANCH  23  24
ENDBRANCH  22  23
ENDBRANCH  21  22
ENDBRANCH  20  21
ENDBRANCH  19  20
ENDBRANCH  18  19
ENDBRANCH  17  18
ENDBRANCH  16  17
ENDBRANCH   1  16
TORSDOF 14
ENDMDL
MODEL 5
REMARK VINA RESULT:      -6.2      3.082      8.740
REMARK  Name = NuBBE_912
REMARK  16 active torsions:
REMARK  status: ('A' for Active; 'I' for Inactive)
REMARK    1  A    between atoms: C_3  and  O_4
REMARK    2  A    between atoms: O_4  and  C_5
REMARK    3  A    between atoms: C_6  and  C_7
REMARK    4  A    between atoms: C_7  and  C_8
REMARK    5  A    between atoms: C_8  and  C_9
REMARK    6  A    between atoms: C_9  and  C_10
REMARK    7  A    between atoms: C_10  and  C_11
REMARK    8  A    between atoms: C_11  and  C_12
REMARK    9  A    between atoms: C_12  and  C_13
REMARK   10  A    between atoms: C_13  and  C_14
REMARK   11  A    between atoms: C_14  and  C_15
REMARK   12  A    between atoms: C_15  and  C_16
REMARK   13  A    between atoms: C_16  and  C_17
REMARK   14  A    between atoms: C_17  and  C_18
REMARK   15  A    between atoms: C_18  and  C_19
REMARK   16  A    between atoms: C_18  and  O_20
REMARK                            x       y       z     vdW  Elec       q    Type
REMARK                         _______ _______ _______ _____ _____    ______ ____
ROOT
ATOM      1  C   LIG A   1      -5.883  -1.531 125.534  0.00  0.00    +0.057 C 
ENDROOT
BRANCH   1   5
ATOM      2  O   LIG A   1      -8.666  -3.333 129.156  0.00  0.00    -0.283 OA
ATOM      3  C   LIG A   1      -7.580  -3.032 128.695  0.00  0.00    +0.231 A 
ATOM      4  C   LIG A   1      -7.404  -2.402 127.325  0.00  0.00    +0.186 A 
ATOM      5  C   LIG A   1      -6.145  -2.152 126.901  0.00  0.00    +0.062 A 
ATOM      6  N   LIG A   1      -5.021  -2.445 127.653  0.00  0.00    -0.355 N 
ATOM      7  H   LIG A   1      -4.118  -2.152 127.305  0.00  0.00    +0.166 HD
ATOM      8  C   LIG A   1      -5.107  -2.959 128.952  0.00  0.00    +0.051 A 
ATOM      9  C   LIG A   1      -3.954  -3.191 129.709  0.00  0.00    +0.026 A 
ATOM     10  C   LIG A   1      -4.049  -3.716 131.003  0.00  0.00    +0.002 A 
ATOM     11  C   LIG A   1      -5.295  -4.028 131.544  0.00  0.00    +0.001 A 
ATOM     12  C   LIG A   1      -6.451  -3.811 130.792  0.00  0.00    +0.014 A 
ATOM     13  C   LIG A   1      -6.353  -3.276 129.500  0.00  0.00    +0.049 A 
BRANCH   4  14
ATOM     14  O   LIG A   1      -8.483  -2.096 126.508  0.00  0.00    -0.490 OA
ATOM     15  C   LIG A   1      -9.087  -3.191 125.831  0.00  0.00    +0.277 C 
ENDBRANCH   4  14
ENDBRANCH   1   5
BRANCH   1  16
ATOM     16  C   LIG A   1      -5.223  -2.525 124.570  0.00  0.00    +0.006 C 
BRANCH  16  17
ATOM     17  C   LIG A   1      -5.921  -2.547 123.206  0.00  0.00    +0.000 C 
BRANCH  17  18
ATOM     18  C   LIG A   1      -6.929  -1.406 123.084  0.00  0.00    +0.000 C 
BRANCH  18  19
ATOM     19  C   LIG A   1      -8.259  -1.892 122.509  0.00  0.00    -0.000 C 
BRANCH  19  20
ATOM     20  C   LIG A   1      -9.411  -0.934 122.812  0.00  0.00    -0.000 C 
BRANCH  20  21
ATOM     21  C   LIG A   1      -9.042   0.136 123.846  0.00  0.00    -0.000 C 
BRANCH  21  22
ATOM     22  C   LIG A   1      -9.696   1.495 123.575  0.00  0.00    -0.000 C 
BRANCH  22  23
ATOM     23  C   LIG A   1      -8.815   2.401 122.710  0.00  0.00    +0.000 C 
BRANCH  23  24
ATOM     24  C   LIG A   1      -7.331   2.358 123.093  0.00  0.00    +0.002 C 
BRANCH  24  25
ATOM     25  C   LIG A   1      -6.567   3.540 122.466  0.00  0.00    +0.031 C 
BRANCH  25  26
ATOM     26  C   LIG A   1      -6.118   3.281 121.019  0.00  0.00    +0.111 C 
ATOM     27  C   LIG A   1      -6.918   4.114 120.019  0.00  0.00    +0.037 C 
BRANCH  26  28
ATOM     28  O   LIG A   1      -4.736   3.582 120.850  0.00  0.00    -0.392 OA
ATOM     29  H   LIG A   1      -4.391   3.935 121.688  0.00  0.00    +0.210 HD
ENDBRANCH  26  28
ENDBRANCH  25  26
ENDBRANCH  24  25
ENDBRANCH  23  24
ENDBRANCH  22  23
ENDBRANCH  21  22
ENDBRANCH  20  21
ENDBRANCH  19  20
ENDBRANCH  18  19
ENDBRANCH  17  18
ENDBRANCH  16  17
ENDBRANCH   1  16
TORSDOF 14
ENDMDL
MODEL 6
REMARK VINA RESULT:      -6.1     11.174     14.300
REMARK  Name = NuBBE_912
REMARK  16 active torsions:
REMARK  status: ('A' for Active; 'I' for Inactive)
REMARK    1  A    between atoms: C_3  and  O_4
REMARK    2  A    between atoms: O_4  and  C_5
REMARK    3  A    between atoms: C_6  and  C_7
REMARK    4  A    between atoms: C_7  and  C_8
REMARK    5  A    between atoms: C_8  and  C_9
REMARK    6  A    between atoms: C_9  and  C_10
REMARK    7  A    between atoms: C_10  and  C_11
REMARK    8  A    between atoms: C_11  and  C_12
REMARK    9  A    between atoms: C_12  and  C_13
REMARK   10  A    between atoms: C_13  and  C_14
REMARK   11  A    between atoms: C_14  and  C_15
REMARK   12  A    between atoms: C_15  and  C_16
REMARK   13  A    between atoms: C_16  and  C_17
REMARK   14  A    between atoms: C_17  and  C_18
REMARK   15  A    between atoms: C_18  and  C_19
REMARK   16  A    between atoms: C_18  and  O_20
REMARK                            x       y       z     vdW  Elec       q    Type
REMARK                         _______ _______ _______ _____ _____    ______ ____
ROOT
ATOM      1  C   LIG A   1      -7.074   5.314 135.879  0.00  0.00    +0.057 C 
ENDROOT
BRANCH   1   5
ATOM      2  O   LIG A   1      -5.669   8.545 139.299  0.00  0.00    -0.283 OA
ATOM      3  C   LIG A   1      -6.511   8.084 138.550  0.00  0.00    +0.231 A 
ATOM      4  C   LIG A   1      -6.256   6.892 137.646  0.00  0.00    +0.186 A 
ATOM      5  C   LIG A   1      -7.253   6.496 136.823  0.00  0.00    +0.062 A 
ATOM      6  N   LIG A   1      -8.484   7.126 136.770  0.00  0.00    -0.355 N 
ATOM      7  H   LIG A   1      -9.208   6.722 136.192  0.00  0.00    +0.166 HD
ATOM      8  C   LIG A   1      -8.817   8.185 137.622  0.00  0.00    +0.051 A 
ATOM      9  C   LIG A   1     -10.089   8.765 137.583  0.00  0.00    +0.026 A 
ATOM     10  C   LIG A   1     -10.409   9.830 138.432  0.00  0.00    +0.002 A 
ATOM     11  C   LIG A   1      -9.456  10.335 139.315  0.00  0.00    +0.001 A 
ATOM     12  C   LIG A   1      -8.180   9.771 139.353  0.00  0.00    +0.014 A 
ATOM     13  C   LIG A   1      -7.865   8.698 138.508  0.00  0.00    +0.049 A 
BRANCH   4  14
ATOM     14  O   LIG A   1      -5.041   6.219 137.633  0.00  0.00    -0.490 OA
ATOM     15  C   LIG A   1      -3.938   6.930 137.086  0.00  0.00    +0.277 C 
ENDBRANCH   4  14
ENDBRANCH   1   5
BRANCH   1  16
ATOM     16  C   LIG A   1      -7.890   5.481 134.591  0.00  0.00    +0.006 C 
BRANCH  16  17
ATOM     17  C   LIG A   1      -8.538   4.165 134.150  0.00  0.00    +0.000 C 
BRANCH  17  18
ATOM     18  C   LIG A   1      -9.464   4.380 132.954  0.00  0.00    +0.000 C 
BRANCH  18  19
ATOM     19  C   LIG A   1      -8.826   5.292 131.908  0.00  0.00    -0.000 C 
BRANCH  19  20
ATOM     20  C   LIG A   1      -9.694   6.510 131.588  0.00  0.00    -0.000 C 
BRANCH  20  21
ATOM     21  C   LIG A   1     -11.192   6.237 131.758  0.00  0.00    -0.000 C 
BRANCH  21  22
ATOM     22  C   LIG A   1     -11.975   6.306 130.442  0.00  0.00    -0.000 C 
BRANCH  22  23
ATOM     23  C   LIG A   1     -13.007   7.438 130.440  0.00  0.00    +0.000 C 
BRANCH  23  24
ATOM     24  C   LIG A   1     -12.936   8.329 129.195  0.00  0.00    +0.002 C 
BRANCH  24  25
ATOM     25  C   LIG A   1     -12.950   7.482 127.908  0.00  0.00    +0.031 C 
BRANCH  25  26
ATOM     26  C   LIG A   1     -11.731   7.721 127.003  0.00  0.00    +0.111 C 
ATOM     27  C   LIG A   1     -10.558   8.321 127.775  0.00  0.00    +0.037 C 
BRANCH  26  28
ATOM     28  O   LIG A   1     -11.296   6.507 126.397  0.00  0.00    -0.392 OA
ATOM     29  H   LIG A   1     -10.404   6.299 126.725  0.00  0.00    +0.210 HD
ENDBRANCH  26  28
ENDBRANCH  25  26
ENDBRANCH  24  25
ENDBRANCH  23  24
ENDBRANCH  22  23
ENDBRANCH  21  22
ENDBRANCH  20  21
ENDBRANCH  19  20
ENDBRANCH  18  19
ENDBRANCH  17  18
ENDBRANCH  16  17
ENDBRANCH   1  16
TORSDOF 14
ENDMDL
MODEL 7
REMARK VINA RESULT:      -6.1      5.908      7.450
REMARK  Name = NuBBE_912
REMARK  16 active torsions:
REMARK  status: ('A' for Active; 'I' for Inactive)
REMARK    1  A    between atoms: C_3  and  O_4
REMARK    2  A    between atoms: O_4  and  C_5
REMARK    3  A    between atoms: C_6  and  C_7
REMARK    4  A    between atoms: C_7  and  C_8
REMARK    5  A    between atoms: C_8  and  C_9
REMARK    6  A    between atoms: C_9  and  C_10
REMARK    7  A    between atoms: C_10  and  C_11
REMARK    8  A    between atoms: C_11  and  C_12
REMARK    9  A    between atoms: C_12  and  C_13
REMARK   10  A    between atoms: C_13  and  C_14
REMARK   11  A    between atoms: C_14  and  C_15
REMARK   12  A    between atoms: C_15  and  C_16
REMARK   13  A    between atoms: C_16  and  C_17
REMARK   14  A    between atoms: C_17  and  C_18
REMARK   15  A    between atoms: C_18  and  C_19
REMARK   16  A    between atoms: C_18  and  O_20
REMARK                            x       y       z     vdW  Elec       q    Type
REMARK                         _______ _______ _______ _____ _____    ______ ____
ROOT
ATOM      1  C   LIG A   1      -7.939   4.125 130.130  0.00  0.00    +0.057 C 
ENDROOT
BRANCH   1   5
ATOM      2  O   LIG A   1     -11.322   6.843 132.429  0.00  0.00    -0.283 OA
ATOM      3  C   LIG A   1     -10.740   6.496 131.416  0.00  0.00    +0.231 A 
ATOM      4  C   LIG A   1      -9.653   5.438 131.403  0.00  0.00    +0.186 A 
ATOM      5  C   LIG A   1      -9.047   5.167 130.225  0.00  0.00    +0.062 A 
ATOM      6  N   LIG A   1      -9.371   5.809 129.043  0.00  0.00    -0.355 N 
ATOM      7  H   LIG A   1      -8.934   5.494 128.188  0.00  0.00    +0.166 HD
ATOM      8  C   LIG A   1     -10.411   6.744 128.964  0.00  0.00    +0.051 A 
ATOM      9  C   LIG A   1     -10.752   7.334 127.743  0.00  0.00    +0.026 A 
ATOM     10  C   LIG A   1     -11.785   8.275 127.674  0.00  0.00    +0.002 A 
ATOM     11  C   LIG A   1     -12.474   8.646 128.828  0.00  0.00    +0.001 A 
ATOM     12  C   LIG A   1     -12.133   8.071 130.053  0.00  0.00    +0.014 A 
ATOM     13  C   LIG A   1     -11.104   7.121 130.117  0.00  0.00    +0.049 A 
BRANCH   4  14
ATOM     14  O   LIG A   1      -9.263   4.763 132.552  0.00  0.00    -0.490 OA
ATOM     15  C   LIG A   1      -8.421   5.482 133.446  0.00  0.00    +0.277 C 
ENDBRANCH   4  14
ENDBRANCH   1   5
BRANCH   1  16
ATOM     16  C   LIG A   1      -8.467   2.772 129.638  0.00  0.00    +0.006 C 
BRANCH  16  17
ATOM     17  C   LIG A   1      -9.173   1.993 130.752  0.00  0.00    +0.000 C 
BRANCH  17  18
ATOM     18  C   LIG A   1      -8.606   0.581 130.882  0.00  0.00    +0.000 C 
BRANCH  18  19
ATOM     19  C   LIG A   1      -7.513   0.318 129.847  0.00  0.00    -0.000 C 
BRANCH  19  20
ATOM     20  C   LIG A   1      -7.763  -0.959 129.045  0.00  0.00    -0.000 C 
BRANCH  20  21
ATOM     21  C   LIG A   1      -7.744  -2.223 129.912  0.00  0.00    -0.000 C 
BRANCH  21  22
ATOM     22  C   LIG A   1      -7.721  -3.519 129.096  0.00  0.00    -0.000 C 
BRANCH  22  23
ATOM     23  C   LIG A   1      -8.953  -3.662 128.198  0.00  0.00    +0.000 C 
BRANCH  23  24
ATOM     24  C   LIG A   1      -8.619  -3.713 126.702  0.00  0.00    +0.002 C 
BRANCH  24  25
ATOM     25  C   LIG A   1      -9.280  -2.544 125.949  0.00  0.00    +0.031 C 
BRANCH  25  26
ATOM     26  C   LIG A   1      -9.055  -2.587 124.429  0.00  0.00    +0.111 C 
ATOM     27  C   LIG A   1      -7.708  -3.213 124.072  0.00  0.00    +0.037 C 
BRANCH  26  28
ATOM     28  O   LIG A   1     -10.083  -3.332 123.781  0.00  0.00    -0.392 OA
ATOM     29  H   LIG A   1     -10.315  -4.093 124.342  0.00  0.00    +0.210 HD
ENDBRANCH  26  28
ENDBRANCH  25  26
ENDBRANCH  24  25
ENDBRANCH  23  24
ENDBRANCH  22  23
ENDBRANCH  21  22
ENDBRANCH  20  21
ENDBRANCH  19  20
ENDBRANCH  18  19
ENDBRANCH  17  18
ENDBRANCH  16  17
ENDBRANCH   1  16
TORSDOF 14
ENDMDL
MODEL 8
REMARK VINA RESULT:      -6.1      2.718      5.559
REMARK  Name = NuBBE_912
REMARK  16 active torsions:
REMARK  status: ('A' for Active; 'I' for Inactive)
REMARK    1  A    between atoms: C_3  and  O_4
REMARK    2  A    between atoms: O_4  and  C_5
REMARK    3  A    between atoms: C_6  and  C_7
REMARK    4  A    between atoms: C_7  and  C_8
REMARK    5  A    between atoms: C_8  and  C_9
REMARK    6  A    between atoms: C_9  and  C_10
REMARK    7  A    between atoms: C_10  and  C_11
REMARK    8  A    between atoms: C_11  and  C_12
REMARK    9  A    between atoms: C_12  and  C_13
REMARK   10  A    between atoms: C_13  and  C_14
REMARK   11  A    between atoms: C_14  and  C_15
REMARK   12  A    between atoms: C_15  and  C_16
REMARK   13  A    between atoms: C_16  and  C_17
REMARK   14  A    between atoms: C_17  and  C_18
REMARK   15  A    between atoms: C_18  and  C_19
REMARK   16  A    between atoms: C_18  and  O_20
REMARK                            x       y       z     vdW  Elec       q    Type
REMARK                         _______ _______ _______ _____ _____    ______ ____
ROOT
ATOM      1  C   LIG A   1      -6.021   0.960 125.378  0.00  0.00    +0.057 C 
ENDROOT
BRANCH   1   5
ATOM      2  O   LIG A   1      -5.968   5.870 125.447  0.00  0.00    -0.283 OA
ATOM      3  C   LIG A   1      -5.592   4.793 125.874  0.00  0.00    +0.231 A 
ATOM      4  C   LIG A   1      -6.051   3.464 125.301  0.00  0.00    +0.186 A 
ATOM      5  C   LIG A   1      -5.600   2.333 125.887  0.00  0.00    +0.062 A 
ATOM      6  N   LIG A   1      -4.747   2.333 126.976  0.00  0.00    -0.355 N 
ATOM      7  H   LIG A   1      -4.386   1.449 127.307  0.00  0.00    +0.166 HD
ATOM      8  C   LIG A   1      -4.225   3.516 127.514  0.00  0.00    +0.051 A 
ATOM      9  C   LIG A   1      -3.321   3.481 128.580  0.00  0.00    +0.026 A 
ATOM     10  C   LIG A   1      -2.813   4.669 129.118  0.00  0.00    +0.002 A 
ATOM     11  C   LIG A   1      -3.217   5.901 128.606  0.00  0.00    +0.001 A 
ATOM     12  C   LIG A   1      -4.128   5.946 127.549  0.00  0.00    +0.014 A 
ATOM     13  C   LIG A   1      -4.628   4.754 127.006  0.00  0.00    +0.049 A 
BRANCH   4  14
ATOM     14  O   LIG A   1      -6.918   3.385 124.220  0.00  0.00    -0.490 OA
ATOM     15  C   LIG A   1      -6.335   3.568 122.935  0.00  0.00    +0.277 C 
ENDBRANCH   4  14
ENDBRANCH   1   5
BRANCH   1  16
ATOM     16  C   LIG A   1      -5.480  -0.170 126.262  0.00  0.00    +0.006 C 
BRANCH  16  17
ATOM     17  C   LIG A   1      -6.601  -1.067 126.796  0.00  0.00    +0.000 C 
BRANCH  17  18
ATOM     18  C   LIG A   1      -6.393  -2.520 126.375  0.00  0.00    +0.000 C 
BRANCH  18  19
ATOM     19  C   LIG A   1      -5.680  -2.617 125.027  0.00  0.00    -0.000 C 
BRANCH  19  20
ATOM     20  C   LIG A   1      -6.566  -3.225 123.941  0.00  0.00    -0.000 C 
BRANCH  20  21
ATOM     21  C   LIG A   1      -7.969  -3.581 124.444  0.00  0.00    -0.000 C 
BRANCH  21  22
ATOM     22  C   LIG A   1      -9.059  -2.636 123.924  0.00  0.00    -0.000 C 
BRANCH  22  23
ATOM     23  C   LIG A   1      -8.542  -1.702 122.826  0.00  0.00    +0.000 C 
BRANCH  23  24
ATOM     24  C   LIG A   1      -8.419  -0.241 123.273  0.00  0.00    +0.002 C 
BRANCH  24  25
ATOM     25  C   LIG A   1      -9.776   0.482 123.171  0.00  0.00    +0.031 C 
BRANCH  25  26
ATOM     26  C   LIG A   1     -10.159   1.248 124.447  0.00  0.00    +0.111 C 
ATOM     27  C   LIG A   1      -9.728   0.504 125.709  0.00  0.00    +0.037 C 
BRANCH  26  28
ATOM     28  O   LIG A   1      -9.564   2.543 124.464  0.00  0.00    -0.392 OA
ATOM     29  H   LIG A   1      -8.602   2.444 124.363  0.00  0.00    +0.210 HD
ENDBRANCH  26  28
ENDBRANCH  25  26
ENDBRANCH  24  25
ENDBRANCH  23  24
ENDBRANCH  22  23
ENDBRANCH  21  22
ENDBRANCH  20  21
ENDBRANCH  19  20
ENDBRANCH  18  19
ENDBRANCH  17  18
ENDBRANCH  16  17
ENDBRANCH   1  16
TORSDOF 14
ENDMDL
MODEL 9
REMARK VINA RESULT:      -6.1      7.220      9.851
REMARK  Name = NuBBE_912
REMARK  16 active torsions:
REMARK  status: ('A' for Active; 'I' for Inactive)
REMARK    1  A    between atoms: C_3  and  O_4
REMARK    2  A    between atoms: O_4  and  C_5
REMARK    3  A    between atoms: C_6  and  C_7
REMARK    4  A    between atoms: C_7  and  C_8
REMARK    5  A    between atoms: C_8  and  C_9
REMARK    6  A    between atoms: C_9  and  C_10
REMARK    7  A    between atoms: C_10  and  C_11
REMARK    8  A    between atoms: C_11  and  C_12
REMARK    9  A    between atoms: C_12  and  C_13
REMARK   10  A    between atoms: C_13  and  C_14
REMARK   11  A    between atoms: C_14  and  C_15
REMARK   12  A    between atoms: C_15  and  C_16
REMARK   13  A    between atoms: C_16  and  C_17
REMARK   14  A    between atoms: C_17  and  C_18
REMARK   15  A    between atoms: C_18  and  C_19
REMARK   16  A    between atoms: C_18  and  O_20
REMARK                            x       y       z     vdW  Elec       q    Type
REMARK                         _______ _______ _______ _____ _____    ______ ____
ROOT
ATOM      1  C   LIG A   1      -7.270   6.284 131.644  0.00  0.00    +0.057 C 
ENDROOT
BRANCH   1   5
ATOM      2  O   LIG A   1     -12.137   6.143 132.278  0.00  0.00    -0.283 OA
ATOM      3  C   LIG A   1     -11.155   6.453 131.628  0.00  0.00    +0.231 A 
ATOM      4  C   LIG A   1      -9.737   6.127 132.058  0.00  0.00    +0.186 A 
ATOM      5  C   LIG A   1      -8.723   6.562 131.277  0.00  0.00    +0.062 A 
ATOM      6  N   LIG A   1      -8.921   7.286 130.114  0.00  0.00    -0.355 N 
ATOM      7  H   LIG A   1      -8.119   7.503 129.539  0.00  0.00    +0.166 HD
ATOM      8  C   LIG A   1     -10.200   7.563 129.618  0.00  0.00    +0.051 A 
ATOM      9  C   LIG A   1     -10.367   8.248 128.410  0.00  0.00    +0.026 A 
ATOM     10  C   LIG A   1     -11.650   8.530 127.927  0.00  0.00    +0.002 A 
ATOM     11  C   LIG A   1     -12.775   8.143 128.654  0.00  0.00    +0.001 A 
ATOM     12  C   LIG A   1     -12.618   7.469 129.866  0.00  0.00    +0.014 A 
ATOM     13  C   LIG A   1     -11.332   7.180 130.343  0.00  0.00    +0.049 A 
BRANCH   4  14
ATOM     14  O   LIG A   1      -9.460   5.418 133.219  0.00  0.00    -0.490 OA
ATOM     15  C   LIG A   1      -9.399   4.003 133.090  0.00  0.00    +0.277 C 
ENDBRANCH   4  14
ENDBRANCH   1   5
BRANCH   1  16
ATOM     16  C   LIG A   1      -6.300   7.163 130.845  0.00  0.00    +0.006 C 
BRANCH  16  17
ATOM     17  C   LIG A   1      -4.853   6.999 131.323  0.00  0.00    +0.000 C 
BRANCH  17  18
ATOM     18  C   LIG A   1      -3.868   7.559 130.299  0.00  0.00    +0.000 C 
BRANCH  18  19
ATOM     19  C   LIG A   1      -2.540   6.803 130.328  0.00  0.00    -0.000 C 
BRANCH  19  20
ATOM     20  C   LIG A   1      -2.253   6.078 129.014  0.00  0.00    -0.000 C 
BRANCH  20  21
ATOM     21  C   LIG A   1      -3.362   6.264 127.973  0.00  0.00    -0.000 C 
BRANCH  21  22
ATOM     22  C   LIG A   1      -4.028   4.950 127.552  0.00  0.00    -0.000 C 
BRANCH  22  23
ATOM     23  C   LIG A   1      -5.314   4.673 128.336  0.00  0.00    +0.000 C 
BRANCH  23  24
ATOM     24  C   LIG A   1      -5.463   3.211 128.773  0.00  0.00    +0.002 C 
BRANCH  24  25
ATOM     25  C   LIG A   1      -4.112   2.636 129.241  0.00  0.00    +0.031 C 
BRANCH  25  26
ATOM     26  C   LIG A   1      -4.087   2.268 130.733  0.00  0.00    +0.111 C 
ATOM     27  C   LIG A   1      -3.754   3.472 131.611  0.00  0.00    +0.037 C 
BRANCH  26  28
ATOM     28  O   LIG A   1      -5.343   1.741 131.151  0.00  0.00    -0.392 OA
ATOM     29  H   LIG A   1      -5.335   1.653 132.120  0.00  0.00    +0.210 HD
ENDBRANCH  26  28
ENDBRANCH  25  26
ENDBRANCH  24  25
ENDBRANCH  23  24
ENDBRANCH  22  23
ENDBRANCH  21  22
ENDBRANCH  20  21
ENDBRANCH  19  20
ENDBRANCH  18  19
ENDBRANCH  17  18
ENDBRANCH  16  17
ENDBRANCH   1  16
TORSDOF 14
ENDMDL
