MODEL 1
REMARK VINA RESULT:      -8.6      0.000      0.000
REMARK  Name = NuBBE_1182
REMARK  11 active torsions:
REMARK  status: ('A' for Active; 'I' for Inactive)
REMARK    1  A    between atoms: O_1  and  C_2
REMARK    2  A    between atoms: C_4  and  O_40
REMARK    3  A    between atoms: C_6  and  O_36
REMARK    4  A    between atoms: C_8  and  C_35
REMARK    5  A    between atoms: C_11  and  O_13
REMARK    6  A    between atoms: O_13  and  C_14
REMARK    7  A    between atoms: C_15  and  O_34
REMARK    8  A    between atoms: C_28  and  O_29
REMARK    9  A    between atoms: C_30  and  O_31
REMARK   10  A    between atoms: O_36  and  C_37
REMARK   11  A    between atoms: C_37  and  C_38
REMARK                            x       y       z     vdW  Elec       q    Type
REMARK                         _______ _______ _______ _____ _____    ______ ____
ROOT
ATOM      1  C   LIG A   1      -7.572   3.013 128.258  0.00  0.00    +0.170 A 
ATOM      2  C   LIG A   1      -7.451   1.701 128.752  0.00  0.00    +0.203 A 
ATOM      3  C   LIG A   1      -7.738   0.605 127.933  0.00  0.00    +0.185 A 
ATOM      4  C   LIG A   1      -8.151   0.779 126.622  0.00  0.00    +0.047 A 
ATOM      5  C   LIG A   1      -8.234   2.073 126.109  0.00  0.00    +0.074 A 
ATOM      6  C   LIG A   1      -8.634   2.268 124.691  0.00  0.00    +0.345 A 
ATOM      7  O   LIG A   1      -9.046   1.131 123.996  0.00  0.00    -0.418 OA
ATOM      8  C   LIG A   1      -8.947  -0.176 124.522  0.00  0.00    +0.185 A 
ATOM      9  C   LIG A   1      -8.482  -0.364 125.818  0.00  0.00    +0.047 A 
ATOM     10  C   LIG A   1      -8.348  -1.661 126.319  0.00  0.00    +0.074 A 
ATOM     11  C   LIG A   1      -7.862  -1.858 127.709  0.00  0.00    +0.345 A 
ATOM     12  O   LIG A   1      -7.604  -0.703 128.457  0.00  0.00    -0.418 OA
ATOM     13  O   LIG A   1      -7.702  -2.979 128.173  0.00  0.00    -0.244 OA
ATOM     14  C   LIG A   1      -8.661  -2.770 125.513  0.00  0.00    +0.065 A 
ATOM     15  C   LIG A   1      -9.129  -2.557 124.219  0.00  0.00    +0.163 A 
ATOM     16  C   LIG A   1      -9.286  -1.262 123.724  0.00  0.00    +0.202 A 
ATOM     17  O   LIG A   1      -8.613   3.378 124.173  0.00  0.00    -0.244 OA
ATOM     18  C   LIG A   1      -7.941   3.188 126.921  0.00  0.00    +0.065 A 
ENDROOT
BRANCH  15  19
ATOM     19  O   LIG A   1      -9.440  -3.593 123.381  0.00  0.00    -0.503 OA
ATOM     20  H   LIG A   1      -8.701  -3.737 122.763  0.00  0.00    +0.292 HD
ENDBRANCH  15  19
BRANCH  16  21
ATOM     21  O   LIG A   1      -9.756  -1.075 122.456  0.00  0.00    -0.501 OA
ATOM     22  H   LIG A   1      -9.073  -0.548 121.997  0.00  0.00    +0.292 HD
ENDBRANCH  16  21
BRANCH   2  23
ATOM     23  O   LIG A   1      -7.042   1.494 130.044  0.00  0.00    -0.501 OA
ATOM     24  H   LIG A   1      -7.385   0.626 130.328  0.00  0.00    +0.292 HD
ENDBRANCH   2  23
BRANCH   1  25
ATOM     25  O   LIG A   1      -7.321   4.024 129.149  0.00  0.00    -0.457 OA
BRANCH  25  31
ATOM     26  C   LIG A   1      -7.781   5.911 130.521  0.00  0.00    +0.215 C 
ATOM     27  C   LIG A   1      -8.818   6.939 131.004  0.00  0.00    +0.192 C 
ATOM     28  C   LIG A   1     -10.036   7.067 130.084  0.00  0.00    +0.236 C 
ATOM     29  C   LIG A   1     -10.564   5.666 129.704  0.00  0.00    +0.163 C 
ATOM     30  O   LIG A   1      -9.536   4.847 129.129  0.00  0.00    -0.333 OA
ATOM     31  C   LIG A   1      -8.390   4.605 129.941  0.00  0.00    +0.339 C 
ATOM     32  C   LIG A   1     -11.302   4.959 130.846  0.00  0.00    +0.042 C 
BRANCH  26  33
ATOM     33  O   LIG A   1      -6.909   5.614 131.642  0.00  0.00    -0.383 OA
ATOM     34  H   LIG A   1      -6.918   6.406 132.214  0.00  0.00    +0.210 HD
ENDBRANCH  26  33
BRANCH  27  35
ATOM     35  O   LIG A   1      -9.246   6.590 132.330  0.00  0.00    -0.385 OA
ATOM     36  H   LIG A   1      -8.440   6.670 132.884  0.00  0.00    +0.210 HD
ENDBRANCH  27  35
BRANCH  28  37
ATOM     37  O   LIG A   1      -9.667   7.768 128.862  0.00  0.00    -0.456 OA
BRANCH  37  38
ATOM     38  C   LIG A   1     -10.687   8.261 128.086  0.00  0.00    +0.304 C 
ATOM     39  C   LIG A   1     -11.804   8.780 128.961  0.00  0.00    +0.136 C 
ATOM     40  O   LIG A   1     -10.706   8.284 126.873  0.00  0.00    -0.251 OA
ENDBRANCH  37  38
ENDBRANCH  28  37
ENDBRANCH  25  31
ENDBRANCH   1  25
TORSDOF 9
ENDMDL
MODEL 2
REMARK VINA RESULT:      -8.5      0.958      2.946
REMARK  Name = NuBBE_1182
REMARK  11 active torsions:
REMARK  status: ('A' for Active; 'I' for Inactive)
REMARK    1  A    between atoms: O_1  and  C_2
REMARK    2  A    between atoms: C_4  and  O_40
REMARK    3  A    between atoms: C_6  and  O_36
REMARK    4  A    between atoms: C_8  and  C_35
REMARK    5  A    between atoms: C_11  and  O_13
REMARK    6  A    between atoms: O_13  and  C_14
REMARK    7  A    between atoms: C_15  and  O_34
REMARK    8  A    between atoms: C_28  and  O_29
REMARK    9  A    between atoms: C_30  and  O_31
REMARK   10  A    between atoms: O_36  and  C_37
REMARK   11  A    between atoms: C_37  and  C_38
REMARK                            x       y       z     vdW  Elec       q    Type
REMARK                         _______ _______ _______ _____ _____    ______ ____
ROOT
ATOM      1  C   LIG A   1      -7.711   2.950 128.143  0.00  0.00    +0.170 A 
ATOM      2  C   LIG A   1      -8.129   3.196 126.822  0.00  0.00    +0.203 A 
ATOM      3  C   LIG A   1      -8.410   2.134 125.957  0.00  0.00    +0.185 A 
ATOM      4  C   LIG A   1      -8.283   0.818 126.374  0.00  0.00    +0.047 A 
ATOM      5  C   LIG A   1      -7.911   0.563 127.693  0.00  0.00    +0.074 A 
ATOM      6  C   LIG A   1      -7.814  -0.844 128.161  0.00  0.00    +0.345 A 
ATOM      7  O   LIG A   1      -7.965  -1.837 127.193  0.00  0.00    -0.418 OA
ATOM      8  C   LIG A   1      -8.353  -1.567 125.862  0.00  0.00    +0.185 A 
ATOM      9  C   LIG A   1      -8.535  -0.252 125.450  0.00  0.00    +0.047 A 
ATOM     10  C   LIG A   1      -8.958   0.007 124.144  0.00  0.00    +0.074 A 
ATOM     11  C   LIG A   1      -9.141   1.415 123.704  0.00  0.00    +0.345 A 
ATOM     12  O   LIG A   1      -8.831   2.413 124.635  0.00  0.00    -0.418 OA
ATOM     13  O   LIG A   1      -9.540   1.681 122.578  0.00  0.00    -0.244 OA
ATOM     14  C   LIG A   1      -9.218  -1.053 123.257  0.00  0.00    +0.065 A 
ATOM     15  C   LIG A   1      -9.023  -2.362 123.691  0.00  0.00    +0.163 A 
ATOM     16  C   LIG A   1      -8.579  -2.622 124.987  0.00  0.00    +0.202 A 
ATOM     17  O   LIG A   1      -7.598  -1.107 129.338  0.00  0.00    -0.244 OA
ATOM     18  C   LIG A   1      -7.630   1.625 128.578  0.00  0.00    +0.065 A 
ENDROOT
BRANCH  15  19
ATOM     19  O   LIG A   1      -9.268  -3.437 122.881  0.00  0.00    -0.503 OA
ATOM     20  H   LIG A   1      -8.816  -3.305 122.029  0.00  0.00    +0.292 HD
ENDBRANCH  15  19
BRANCH  16  21
ATOM     21  O   LIG A   1      -8.385  -3.913 125.389  0.00  0.00    -0.501 OA
ATOM     22  H   LIG A   1      -8.605  -3.928 126.341  0.00  0.00    +0.292 HD
ENDBRANCH  16  21
BRANCH   2  23
ATOM     23  O   LIG A   1      -8.267   4.486 126.380  0.00  0.00    -0.501 OA
ATOM     24  H   LIG A   1      -9.221   4.672 126.301  0.00  0.00    +0.292 HD
ENDBRANCH   2  23
BRANCH   1  25
ATOM     25  O   LIG A   1      -7.407   4.051 128.900  0.00  0.00    -0.457 OA
BRANCH  25  31
ATOM     26  C   LIG A   1      -7.691   5.900 130.369  0.00  0.00    +0.215 C 
ATOM     27  C   LIG A   1      -8.654   6.927 130.986  0.00  0.00    +0.192 C 
ATOM     28  C   LIG A   1      -9.957   7.105 130.197  0.00  0.00    +0.236 C 
ATOM     29  C   LIG A   1     -10.545   5.725 129.830  0.00  0.00    +0.163 C 
ATOM     30  O   LIG A   1      -9.596   4.909 129.128  0.00  0.00    -0.333 OA
ATOM     31  C   LIG A   1      -8.379   4.623 129.813  0.00  0.00    +0.339 C 
ATOM     32  C   LIG A   1     -11.179   4.992 131.018  0.00  0.00    +0.042 C 
BRANCH  26  33
ATOM     33  O   LIG A   1      -6.717   5.553 131.386  0.00  0.00    -0.383 OA
ATOM     34  H   LIG A   1      -5.984   6.193 131.295  0.00  0.00    +0.210 HD
ENDBRANCH  26  33
BRANCH  27  35
ATOM     35  O   LIG A   1      -8.954   6.542 132.336  0.00  0.00    -0.385 OA
ATOM     36  H   LIG A   1      -9.354   7.340 132.742  0.00  0.00    +0.210 HD
ENDBRANCH  27  35
BRANCH  28  37
ATOM     37  O   LIG A   1      -9.699   7.839 128.967  0.00  0.00    -0.456 OA
BRANCH  37  38
ATOM     38  C   LIG A   1     -10.788   8.270 128.250  0.00  0.00    +0.304 C 
ATOM     39  C   LIG A   1     -10.701   7.778 126.824  0.00  0.00    +0.136 C 
ATOM     40  O   LIG A   1     -11.697   8.947 128.682  0.00  0.00    -0.251 OA
ENDBRANCH  37  38
ENDBRANCH  28  37
ENDBRANCH  25  31
ENDBRANCH   1  25
TORSDOF 9
ENDMDL
MODEL 3
REMARK VINA RESULT:      -8.4      2.166      3.557
REMARK  Name = NuBBE_1182
REMARK  11 active torsions:
REMARK  status: ('A' for Active; 'I' for Inactive)
REMARK    1  A    between atoms: O_1  and  C_2
REMARK    2  A    between atoms: C_4  and  O_40
REMARK    3  A    between atoms: C_6  and  O_36
REMARK    4  A    between atoms: C_8  and  C_35
REMARK    5  A    between atoms: C_11  and  O_13
REMARK    6  A    between atoms: O_13  and  C_14
REMARK    7  A    between atoms: C_15  and  O_34
REMARK    8  A    between atoms: C_28  and  O_29
REMARK    9  A    between atoms: C_30  and  O_31
REMARK   10  A    between atoms: O_36  and  C_37
REMARK   11  A    between atoms: C_37  and  C_38
REMARK                            x       y       z     vdW  Elec       q    Type
REMARK                         _______ _______ _______ _____ _____    ______ ____
ROOT
ATOM      1  C   LIG A   1      -7.156   3.956 128.041  0.00  0.00    +0.170 A 
ATOM      2  C   LIG A   1      -7.813   4.075 126.802  0.00  0.00    +0.203 A 
ATOM      3  C   LIG A   1      -7.725   3.055 125.850  0.00  0.00    +0.185 A 
ATOM      4  C   LIG A   1      -6.990   1.906 126.097  0.00  0.00    +0.047 A 
ATOM      5  C   LIG A   1      -6.370   1.759 127.337  0.00  0.00    +0.074 A 
ATOM      6  C   LIG A   1      -5.615   0.512 127.627  0.00  0.00    +0.345 A 
ATOM      7  O   LIG A   1      -5.454  -0.383 126.569  0.00  0.00    -0.418 OA
ATOM      8  C   LIG A   1      -6.096  -0.228 125.321  0.00  0.00    +0.185 A 
ATOM      9  C   LIG A   1      -6.880   0.896 125.084  0.00  0.00    +0.047 A 
ATOM     10  C   LIG A   1      -7.545   1.024 123.862  0.00  0.00    +0.074 A 
ATOM     11  C   LIG A   1      -8.373   2.231 123.607  0.00  0.00    +0.345 A 
ATOM     12  O   LIG A   1      -8.400   3.203 124.614  0.00  0.00    -0.418 OA
ATOM     13  O   LIG A   1      -8.996   2.365 122.562  0.00  0.00    -0.244 OA
ATOM     14  C   LIG A   1      -7.441   0.016 122.886  0.00  0.00    +0.065 A 
ATOM     15  C   LIG A   1      -6.646  -1.098 123.145  0.00  0.00    +0.163 A 
ATOM     16  C   LIG A   1      -5.963  -1.217 124.355  0.00  0.00    +0.202 A 
ATOM     17  O   LIG A   1      -5.150   0.297 128.740  0.00  0.00    -0.244 OA
ATOM     18  C   LIG A   1      -6.456   2.776 128.309  0.00  0.00    +0.065 A 
ENDROOT
BRANCH  15  19
ATOM     19  O   LIG A   1      -6.512  -2.117 122.242  0.00  0.00    -0.503 OA
ATOM     20  H   LIG A   1      -6.656  -1.770 121.344  0.00  0.00    +0.292 HD
ENDBRANCH  15  19
BRANCH  16  21
ATOM     21  O   LIG A   1      -5.180  -2.313 124.583  0.00  0.00    -0.501 OA
ATOM     22  H   LIG A   1      -5.785  -3.081 124.546  0.00  0.00    +0.292 HD
ENDBRANCH  16  21
BRANCH   2  23
ATOM     23  O   LIG A   1      -8.551   5.197 126.527  0.00  0.00    -0.501 OA
ATOM     24  H   LIG A   1      -9.460   4.911 126.317  0.00  0.00    +0.292 HD
ENDBRANCH   2  23
BRANCH   1  25
ATOM     25  O   LIG A   1      -7.256   5.028 128.888  0.00  0.00    -0.457 OA
BRANCH  25  31
ATOM     26  C   LIG A   1      -8.684   6.387 130.217  0.00  0.00    +0.215 C 
ATOM     27  C   LIG A   1      -9.935   6.466 131.108  0.00  0.00    +0.192 C 
ATOM     28  C   LIG A   1     -10.903   5.292 130.921  0.00  0.00    +0.236 C 
ATOM     29  C   LIG A   1     -10.125   3.958 130.923  0.00  0.00    +0.163 C 
ATOM     30  O   LIG A   1      -9.073   3.953 129.946  0.00  0.00    -0.333 OA
ATOM     31  C   LIG A   1      -8.078   4.964 130.082  0.00  0.00    +0.339 C 
ATOM     32  C   LIG A   1      -9.633   3.537 132.312  0.00  0.00    +0.042 C 
BRANCH  26  33
ATOM     33  O   LIG A   1      -7.706   7.310 130.759  0.00  0.00    -0.383 OA
ATOM     34  H   LIG A   1      -7.146   6.790 131.369  0.00  0.00    +0.210 HD
ENDBRANCH  26  33
BRANCH  27  35
ATOM     35  O   LIG A   1      -9.530   6.545 132.484  0.00  0.00    -0.385 OA
ATOM     36  H   LIG A   1      -8.550   6.503 132.460  0.00  0.00    +0.210 HD
ENDBRANCH  27  35
BRANCH  28  37
ATOM     37  O   LIG A   1     -11.600   5.419 129.649  0.00  0.00    -0.456 OA
BRANCH  37  38
ATOM     38  C   LIG A   1     -12.383   6.532 129.467  0.00  0.00    +0.304 C 
ATOM     39  C   LIG A   1     -12.118   7.139 128.109  0.00  0.00    +0.136 C 
ATOM     40  O   LIG A   1     -13.178   6.977 130.269  0.00  0.00    -0.251 OA
ENDBRANCH  37  38
ENDBRANCH  28  37
ENDBRANCH  25  31
ENDBRANCH   1  25
TORSDOF 9
ENDMDL
MODEL 4
REMARK VINA RESULT:      -8.3      3.318      4.755
REMARK  Name = NuBBE_1182
REMARK  11 active torsions:
REMARK  status: ('A' for Active; 'I' for Inactive)
REMARK    1  A    between atoms: O_1  and  C_2
REMARK    2  A    between atoms: C_4  and  O_40
REMARK    3  A    between atoms: C_6  and  O_36
REMARK    4  A    between atoms: C_8  and  C_35
REMARK    5  A    between atoms: C_11  and  O_13
REMARK    6  A    between atoms: O_13  and  C_14
REMARK    7  A    between atoms: C_15  and  O_34
REMARK    8  A    between atoms: C_28  and  O_29
REMARK    9  A    between atoms: C_30  and  O_31
REMARK   10  A    between atoms: O_36  and  C_37
REMARK   11  A    between atoms: C_37  and  C_38
REMARK                            x       y       z     vdW  Elec       q    Type
REMARK                         _______ _______ _______ _____ _____    ______ ____
ROOT
ATOM      1  C   LIG A   1      -5.128   3.818 127.316  0.00  0.00    +0.170 A 
ATOM      2  C   LIG A   1      -4.676   2.510 127.061  0.00  0.00    +0.203 A 
ATOM      3  C   LIG A   1      -5.448   1.628 126.298  0.00  0.00    +0.185 A 
ATOM      4  C   LIG A   1      -6.673   2.015 125.779  0.00  0.00    +0.047 A 
ATOM      5  C   LIG A   1      -7.111   3.321 125.990  0.00  0.00    +0.074 A 
ATOM      6  C   LIG A   1      -8.404   3.757 125.400  0.00  0.00    +0.345 A 
ATOM      7  O   LIG A   1      -9.174   2.771 124.784  0.00  0.00    -0.418 OA
ATOM      8  C   LIG A   1      -8.715   1.453 124.567  0.00  0.00    +0.185 A 
ATOM      9  C   LIG A   1      -7.464   1.073 125.038  0.00  0.00    +0.047 A 
ATOM     10  C   LIG A   1      -6.998  -0.220 124.784  0.00  0.00    +0.074 A 
ATOM     11  C   LIG A   1      -5.665  -0.627 125.299  0.00  0.00    +0.345 A 
ATOM     12  O   LIG A   1      -4.965   0.320 126.056  0.00  0.00    -0.418 OA
ATOM     13  O   LIG A   1      -5.209  -1.740 125.071  0.00  0.00    -0.244 OA
ATOM     14  C   LIG A   1      -7.778  -1.124 124.042  0.00  0.00    +0.065 A 
ATOM     15  C   LIG A   1      -9.031  -0.721 123.585  0.00  0.00    +0.163 A 
ATOM     16  C   LIG A   1      -9.508   0.561 123.856  0.00  0.00    +0.202 A 
ATOM     17  O   LIG A   1      -8.770   4.924 125.469  0.00  0.00    -0.244 OA
ATOM     18  C   LIG A   1      -6.340   4.223 126.751  0.00  0.00    +0.065 A 
ENDROOT
BRANCH  15  19
ATOM     19  O   LIG A   1      -9.833  -1.549 122.848  0.00  0.00    -0.503 OA
ATOM     20  H   LIG A   1      -9.515  -1.568 121.928  0.00  0.00    +0.292 HD
ENDBRANCH  15  19
BRANCH  16  21
ATOM     21  O   LIG A   1     -10.743   0.931 123.407  0.00  0.00    -0.501 OA
ATOM     22  H   LIG A   1     -10.987   0.267 122.731  0.00  0.00    +0.292 HD
ENDBRANCH  16  21
BRANCH   2  23
ATOM     23  O   LIG A   1      -3.466   2.098 127.558  0.00  0.00    -0.501 OA
ATOM     24  H   LIG A   1      -3.195   2.735 128.245  0.00  0.00    +0.292 HD
ENDBRANCH   2  23
BRANCH   1  25
ATOM     25  O   LIG A   1      -4.330   4.592 128.117  0.00  0.00    -0.457 OA
BRANCH  25  31
ATOM     26  C   LIG A   1      -3.736   4.369 130.409  0.00  0.00    +0.215 C 
ATOM     27  C   LIG A   1      -3.690   5.015 131.803  0.00  0.00    +0.192 C 
ATOM     28  C   LIG A   1      -3.803   6.544 131.780  0.00  0.00    +0.236 C 
ATOM     29  C   LIG A   1      -4.954   6.976 130.846  0.00  0.00    +0.163 C 
ATOM     30  O   LIG A   1      -4.807   6.425 129.529  0.00  0.00    -0.333 OA
ATOM     31  C   LIG A   1      -4.769   5.003 129.438  0.00  0.00    +0.339 C 
ATOM     32  C   LIG A   1      -6.347   6.724 131.431  0.00  0.00    +0.042 C 
BRANCH  26  33
ATOM     33  O   LIG A   1      -4.010   2.956 130.594  0.00  0.00    -0.383 OA
ATOM     34  H   LIG A   1      -3.157   2.540 130.827  0.00  0.00    +0.210 HD
ENDBRANCH  26  33
BRANCH  27  35
ATOM     35  O   LIG A   1      -4.739   4.464 132.614  0.00  0.00    -0.385 OA
ATOM     36  H   LIG A   1      -4.395   4.502 133.531  0.00  0.00    +0.210 HD
ENDBRANCH  27  35
BRANCH  28  37
ATOM     37  O   LIG A   1      -2.564   7.128 131.288  0.00  0.00    -0.456 OA
BRANCH  37  38
ATOM     38  C   LIG A   1      -1.649   7.547 132.222  0.00  0.00    +0.304 C 
ATOM     39  C   LIG A   1      -2.224   8.677 133.044  0.00  0.00    +0.136 C 
ATOM     40  O   LIG A   1      -0.537   7.088 132.381  0.00  0.00    -0.251 OA
ENDBRANCH  37  38
ENDBRANCH  28  37
ENDBRANCH  25  31
ENDBRANCH   1  25
TORSDOF 9
ENDMDL
MODEL 5
REMARK VINA RESULT:      -8.3      1.745      7.784
REMARK  Name = NuBBE_1182
REMARK  11 active torsions:
REMARK  status: ('A' for Active; 'I' for Inactive)
REMARK    1  A    between atoms: O_1  and  C_2
REMARK    2  A    between atoms: C_4  and  O_40
REMARK    3  A    between atoms: C_6  and  O_36
REMARK    4  A    between atoms: C_8  and  C_35
REMARK    5  A    between atoms: C_11  and  O_13
REMARK    6  A    between atoms: O_13  and  C_14
REMARK    7  A    between atoms: C_15  and  O_34
REMARK    8  A    between atoms: C_28  and  O_29
REMARK    9  A    between atoms: C_30  and  O_31
REMARK   10  A    between atoms: O_36  and  C_37
REMARK   11  A    between atoms: C_37  and  C_38
REMARK                            x       y       z     vdW  Elec       q    Type
REMARK                         _______ _______ _______ _____ _____    ______ ____
ROOT
ATOM      1  C   LIG A   1      -6.841   0.360 127.603  0.00  0.00    +0.170 A 
ATOM      2  C   LIG A   1      -7.407   0.193 128.881  0.00  0.00    +0.203 A 
ATOM      3  C   LIG A   1      -8.060   1.256 129.512  0.00  0.00    +0.185 A 
ATOM      4  C   LIG A   1      -8.163   2.497 128.903  0.00  0.00    +0.047 A 
ATOM      5  C   LIG A   1      -7.643   2.661 127.620  0.00  0.00    +0.074 A 
ATOM      6  C   LIG A   1      -7.787   3.976 126.941  0.00  0.00    +0.345 A 
ATOM      7  O   LIG A   1      -8.317   5.018 127.703  0.00  0.00    -0.418 OA
ATOM      8  C   LIG A   1      -8.851   4.836 128.997  0.00  0.00    +0.185 A 
ATOM      9  C   LIG A   1      -8.800   3.582 129.594  0.00  0.00    +0.047 A 
ATOM     10  C   LIG A   1      -9.366   3.399 130.859  0.00  0.00    +0.074 A 
ATOM     11  C   LIG A   1      -9.300   2.060 131.499  0.00  0.00    +0.345 A 
ATOM     12  O   LIG A   1      -8.622   1.057 130.796  0.00  0.00    -0.418 OA
ATOM     13  O   LIG A   1      -9.811   1.853 132.592  0.00  0.00    -0.244 OA
ATOM     14  C   LIG A   1     -10.000   4.469 131.515  0.00  0.00    +0.065 A 
ATOM     15  C   LIG A   1     -10.035   5.717 130.899  0.00  0.00    +0.163 A 
ATOM     16  C   LIG A   1      -9.450   5.908 129.647  0.00  0.00    +0.202 A 
ATOM     17  O   LIG A   1      -7.443   4.128 125.776  0.00  0.00    -0.244 OA
ATOM     18  C   LIG A   1      -6.988   1.596 126.968  0.00  0.00    +0.065 A 
ENDROOT
BRANCH  15  19
ATOM     19  O   LIG A   1     -10.646   6.795 131.479  0.00  0.00    -0.503 OA
ATOM     20  H   LIG A   1     -11.598   6.611 131.571  0.00  0.00    +0.292 HD
ENDBRANCH  15  19
BRANCH  16  21
ATOM     21  O   LIG A   1      -9.486   7.143 129.065  0.00  0.00    -0.501 OA
ATOM     22  H   LIG A   1      -8.984   7.056 128.231  0.00  0.00    +0.292 HD
ENDBRANCH  16  21
BRANCH   2  23
ATOM     23  O   LIG A   1      -7.325  -1.022 129.510  0.00  0.00    -0.501 OA
ATOM     24  H   LIG A   1      -6.417  -1.359 129.386  0.00  0.00    +0.292 HD
ENDBRANCH   2  23
BRANCH   1  25
ATOM     25  O   LIG A   1      -6.176  -0.721 127.087  0.00  0.00    -0.457 OA
BRANCH  25  31
ATOM     26  C   LIG A   1      -8.088  -1.888 126.290  0.00  0.00    +0.215 C 
ATOM     27  C   LIG A   1      -8.995  -2.224 125.094  0.00  0.00    +0.192 C 
ATOM     28  C   LIG A   1      -8.868  -1.239 123.926  0.00  0.00    +0.236 C 
ATOM     29  C   LIG A   1      -7.379  -0.968 123.621  0.00  0.00    +0.163 C 
ATOM     30  O   LIG A   1      -6.669  -0.520 124.786  0.00  0.00    -0.333 OA
ATOM     31  C   LIG A   1      -6.664  -1.404 125.903  0.00  0.00    +0.339 C 
ATOM     32  C   LIG A   1      -6.673  -2.134 122.921  0.00  0.00    +0.042 C 
BRANCH  26  33
ATOM     33  O   LIG A   1      -8.016  -3.071 127.126  0.00  0.00    -0.383 OA
ATOM     34  H   LIG A   1      -8.778  -3.631 126.876  0.00  0.00    +0.210 HD
ENDBRANCH  26  33
BRANCH  27  35
ATOM     35  O   LIG A   1      -8.703  -3.554 124.640  0.00  0.00    -0.385 OA
ATOM     36  H   LIG A   1      -9.308  -3.699 123.881  0.00  0.00    +0.210 HD
ENDBRANCH  27  35
BRANCH  28  37
ATOM     37  O   LIG A   1      -9.507   0.024 124.267  0.00  0.00    -0.456 OA
BRANCH  37  38
ATOM     38  C   LIG A   1      -9.972   0.795 123.231  0.00  0.00    +0.304 C 
ATOM     39  C   LIG A   1      -9.275   2.136 123.224  0.00  0.00    +0.136 C 
ATOM     40  O   LIG A   1     -10.819   0.465 122.427  0.00  0.00    -0.251 OA
ENDBRANCH  37  38
ENDBRANCH  28  37
ENDBRANCH  25  31
ENDBRANCH   1  25
TORSDOF 9
ENDMDL
MODEL 6
REMARK VINA RESULT:      -8.3      2.886      5.078
REMARK  Name = NuBBE_1182
REMARK  11 active torsions:
REMARK  status: ('A' for Active; 'I' for Inactive)
REMARK    1  A    between atoms: O_1  and  C_2
REMARK    2  A    between atoms: C_4  and  O_40
REMARK    3  A    between atoms: C_6  and  O_36
REMARK    4  A    between atoms: C_8  and  C_35
REMARK    5  A    between atoms: C_11  and  O_13
REMARK    6  A    between atoms: O_13  and  C_14
REMARK    7  A    between atoms: C_15  and  O_34
REMARK    8  A    between atoms: C_28  and  O_29
REMARK    9  A    between atoms: C_30  and  O_31
REMARK   10  A    between atoms: O_36  and  C_37
REMARK   11  A    between atoms: C_37  and  C_38
REMARK                            x       y       z     vdW  Elec       q    Type
REMARK                         _______ _______ _______ _____ _____    ______ ____
ROOT
ATOM      1  C   LIG A   1      -8.945   2.140 129.668  0.00  0.00    +0.170 A 
ATOM      2  C   LIG A   1      -8.427   1.524 128.512  0.00  0.00    +0.203 A 
ATOM      3  C   LIG A   1      -7.445   0.535 128.614  0.00  0.00    +0.185 A 
ATOM      4  C   LIG A   1      -6.954   0.138 129.848  0.00  0.00    +0.047 A 
ATOM      5  C   LIG A   1      -7.489   0.709 131.001  0.00  0.00    +0.074 A 
ATOM      6  C   LIG A   1      -7.000   0.258 132.330  0.00  0.00    +0.345 A 
ATOM      7  O   LIG A   1      -5.917  -0.621 132.332  0.00  0.00    -0.418 OA
ATOM      8  C   LIG A   1      -5.390  -1.202 131.157  0.00  0.00    +0.185 A 
ATOM      9  C   LIG A   1      -5.913  -0.849 129.919  0.00  0.00    +0.047 A 
ATOM     10  C   LIG A   1      -5.415  -1.457 128.764  0.00  0.00    +0.074 A 
ATOM     11  C   LIG A   1      -5.968  -1.069 127.441  0.00  0.00    +0.345 A 
ATOM     12  O   LIG A   1      -6.946  -0.067 127.434  0.00  0.00    -0.418 OA
ATOM     13  O   LIG A   1      -5.580  -1.602 126.409  0.00  0.00    -0.244 OA
ATOM     14  C   LIG A   1      -4.407  -2.433 128.852  0.00  0.00    +0.065 A 
ATOM     15  C   LIG A   1      -3.895  -2.767 130.104  0.00  0.00    +0.163 A 
ATOM     16  C   LIG A   1      -4.374  -2.145 131.257  0.00  0.00    +0.202 A 
ATOM     17  O   LIG A   1      -7.521   0.655 133.365  0.00  0.00    -0.244 OA
ATOM     18  C   LIG A   1      -8.486   1.703 130.914  0.00  0.00    +0.065 A 
ENDROOT
BRANCH  15  19
ATOM     19  O   LIG A   1      -2.922  -3.716 130.259  0.00  0.00    -0.503 OA
ATOM     20  H   LIG A   1      -3.341  -4.587 130.381  0.00  0.00    +0.292 HD
ENDBRANCH  15  19
BRANCH  16  21
ATOM     21  O   LIG A   1      -3.851  -2.480 132.473  0.00  0.00    -0.501 OA
ATOM     22  H   LIG A   1      -3.011  -2.941 132.279  0.00  0.00    +0.292 HD
ENDBRANCH  16  21
BRANCH   2  23
ATOM     23  O   LIG A   1      -8.893   1.893 127.277  0.00  0.00    -0.501 OA
ATOM     24  H   LIG A   1      -8.384   2.674 126.989  0.00  0.00    +0.292 HD
ENDBRANCH   2  23
BRANCH   1  25
ATOM     25  O   LIG A   1      -9.865   3.135 129.467  0.00  0.00    -0.457 OA
BRANCH  25  31
ATOM     26  C   LIG A   1      -9.401   5.446 129.153  0.00  0.00    +0.215 C 
ATOM     27  C   LIG A   1      -9.709   6.896 129.563  0.00  0.00    +0.192 C 
ATOM     28  C   LIG A   1     -11.054   7.064 130.278  0.00  0.00    +0.236 C 
ATOM     29  C   LIG A   1     -11.214   5.979 131.366  0.00  0.00    +0.163 C 
ATOM     30  O   LIG A   1     -11.047   4.658 130.832  0.00  0.00    -0.333 OA
ATOM     31  C   LIG A   1      -9.795   4.379 130.210  0.00  0.00    +0.339 C 
ATOM     32  C   LIG A   1     -10.344   6.220 132.605  0.00  0.00    +0.042 C 
BRANCH  26  33
ATOM     33  O   LIG A   1      -7.983   5.370 128.855  0.00  0.00    -0.383 OA
ATOM     34  H   LIG A   1      -7.877   4.647 128.206  0.00  0.00    +0.210 HD
ENDBRANCH  26  33
BRANCH  27  35
ATOM     35  O   LIG A   1      -8.650   7.384 130.400  0.00  0.00    -0.385 OA
ATOM     36  H   LIG A   1      -9.097   7.699 131.214  0.00  0.00    +0.210 HD
ENDBRANCH  27  35
BRANCH  28  37
ATOM     37  O   LIG A   1     -12.147   6.926 129.326  0.00  0.00    -0.456 OA
BRANCH  37  38
ATOM     38  C   LIG A   1     -12.807   8.072 128.956  0.00  0.00    +0.304 C 
ATOM     39  C   LIG A   1     -13.700   7.798 127.768  0.00  0.00    +0.136 C 
ATOM     40  O   LIG A   1     -12.702   9.155 129.492  0.00  0.00    -0.251 OA
ENDBRANCH  37  38
ENDBRANCH  28  37
ENDBRANCH  25  31
ENDBRANCH   1  25
TORSDOF 9
ENDMDL
MODEL 7
REMARK VINA RESULT:      -8.0      4.988      8.146
REMARK  Name = NuBBE_1182
REMARK  11 active torsions:
REMARK  status: ('A' for Active; 'I' for Inactive)
REMARK    1  A    between atoms: O_1  and  C_2
REMARK    2  A    between atoms: C_4  and  O_40
REMARK    3  A    between atoms: C_6  and  O_36
REMARK    4  A    between atoms: C_8  and  C_35
REMARK    5  A    between atoms: C_11  and  O_13
REMARK    6  A    between atoms: O_13  and  C_14
REMARK    7  A    between atoms: C_15  and  O_34
REMARK    8  A    between atoms: C_28  and  O_29
REMARK    9  A    between atoms: C_30  and  O_31
REMARK   10  A    between atoms: O_36  and  C_37
REMARK   11  A    between atoms: C_37  and  C_38
REMARK                            x       y       z     vdW  Elec       q    Type
REMARK                         _______ _______ _______ _____ _____    ______ ____
ROOT
ATOM      1  C   LIG A   1      -5.899  -1.520 127.437  0.00  0.00    +0.170 A 
ATOM      2  C   LIG A   1      -7.004  -1.833 126.622  0.00  0.00    +0.203 A 
ATOM      3  C   LIG A   1      -7.441  -0.936 125.643  0.00  0.00    +0.185 A 
ATOM      4  C   LIG A   1      -6.805   0.280 125.451  0.00  0.00    +0.047 A 
ATOM      5  C   LIG A   1      -5.684   0.583 126.222  0.00  0.00    +0.074 A 
ATOM      6  C   LIG A   1      -4.969   1.866 125.994  0.00  0.00    +0.345 A 
ATOM      7  O   LIG A   1      -5.562   2.762 125.104  0.00  0.00    -0.418 OA
ATOM      8  C   LIG A   1      -6.692   2.440 124.320  0.00  0.00    +0.185 A 
ATOM      9  C   LIG A   1      -7.304   1.201 124.468  0.00  0.00    +0.047 A 
ATOM     10  C   LIG A   1      -8.395   0.872 123.660  0.00  0.00    +0.074 A 
ATOM     11  C   LIG A   1      -9.054  -0.449 123.829  0.00  0.00    +0.345 A 
ATOM     12  O   LIG A   1      -8.553  -1.280 124.837  0.00  0.00    -0.418 OA
ATOM     13  O   LIG A   1      -9.993  -0.785 123.120  0.00  0.00    -0.244 OA
ATOM     14  C   LIG A   1      -8.861   1.778 122.691  0.00  0.00    +0.065 A 
ATOM     15  C   LIG A   1      -8.234   3.016 122.564  0.00  0.00    +0.163 A 
ATOM     16  C   LIG A   1      -7.159   3.355 123.385  0.00  0.00    +0.202 A 
ATOM     17  O   LIG A   1      -3.920   2.119 126.573  0.00  0.00    -0.244 OA
ATOM     18  C   LIG A   1      -5.228  -0.315 127.209  0.00  0.00    +0.065 A 
ENDROOT
BRANCH  15  19
ATOM     19  O   LIG A   1      -8.632   3.936 121.634  0.00  0.00    -0.503 OA
ATOM     20  H   LIG A   1      -9.475   4.333 121.916  0.00  0.00    +0.292 HD
ENDBRANCH  15  19
BRANCH  16  21
ATOM     21  O   LIG A   1      -6.566   4.578 123.251  0.00  0.00    -0.501 OA
ATOM     22  H   LIG A   1      -6.840   4.908 122.372  0.00  0.00    +0.292 HD
ENDBRANCH  16  21
BRANCH   2  23
ATOM     23  O   LIG A   1      -7.653  -3.029 126.785  0.00  0.00    -0.501 OA
ATOM     24  H   LIG A   1      -7.010  -3.742 126.611  0.00  0.00    +0.292 HD
ENDBRANCH   2  23
BRANCH   1  25
ATOM     25  O   LIG A   1      -5.578  -2.436 128.403  0.00  0.00    -0.457 OA
BRANCH  25  31
ATOM     26  C   LIG A   1      -6.629  -3.390 130.311  0.00  0.00    +0.215 C 
ATOM     27  C   LIG A   1      -6.618  -3.578 131.837  0.00  0.00    +0.192 C 
ATOM     28  C   LIG A   1      -5.257  -3.301 132.485  0.00  0.00    +0.236 C 
ATOM     29  C   LIG A   1      -4.669  -1.982 131.937  0.00  0.00    +0.163 C 
ATOM     30  O   LIG A   1      -4.595  -1.985 130.504  0.00  0.00    -0.333 OA
ATOM     31  C   LIG A   1      -5.826  -2.161 129.807  0.00  0.00    +0.339 C 
ATOM     32  C   LIG A   1      -5.362  -0.728 132.482  0.00  0.00    +0.042 C 
BRANCH  26  33
ATOM     33  O   LIG A   1      -8.015  -3.301 129.894  0.00  0.00    -0.383 OA
ATOM     34  H   LIG A   1      -8.343  -4.219 129.827  0.00  0.00    +0.210 HD
ENDBRANCH  26  33
BRANCH  27  35
ATOM     35  O   LIG A   1      -7.617  -2.729 132.424  0.00  0.00    -0.385 OA
ATOM     36  H   LIG A   1      -7.588  -1.904 131.895  0.00  0.00    +0.210 HD
ENDBRANCH  27  35
BRANCH  28  37
ATOM     37  O   LIG A   1      -4.330  -4.381 132.180  0.00  0.00    -0.456 OA
BRANCH  37  38
ATOM     38  C   LIG A   1      -3.546  -4.847 133.206  0.00  0.00    +0.304 C 
ATOM     39  C   LIG A   1      -4.391  -5.603 134.206  0.00  0.00    +0.136 C 
ATOM     40  O   LIG A   1      -2.348  -4.685 133.312  0.00  0.00    -0.251 OA
ENDBRANCH  37  38
ENDBRANCH  28  37
ENDBRANCH  25  31
ENDBRANCH   1  25
TORSDOF 9
ENDMDL
MODEL 8
REMARK VINA RESULT:      -8.0      3.915      5.168
REMARK  Name = NuBBE_1182
REMARK  11 active torsions:
REMARK  status: ('A' for Active; 'I' for Inactive)
REMARK    1  A    between atoms: O_1  and  C_2
REMARK    2  A    between atoms: C_4  and  O_40
REMARK    3  A    between atoms: C_6  and  O_36
REMARK    4  A    between atoms: C_8  and  C_35
REMARK    5  A    between atoms: C_11  and  O_13
REMARK    6  A    between atoms: O_13  and  C_14
REMARK    7  A    between atoms: C_15  and  O_34
REMARK    8  A    between atoms: C_28  and  O_29
REMARK    9  A    between atoms: C_30  and  O_31
REMARK   10  A    between atoms: O_36  and  C_37
REMARK   11  A    between atoms: C_37  and  C_38
REMARK                            x       y       z     vdW  Elec       q    Type
REMARK                         _______ _______ _______ _____ _____    ______ ____
ROOT
ATOM      1  C   LIG A   1      -8.632   2.072 129.982  0.00  0.00    +0.170 A 
ATOM      2  C   LIG A   1      -8.895   1.281 131.117  0.00  0.00    +0.203 A 
ATOM      3  C   LIG A   1      -8.005   0.274 131.502  0.00  0.00    +0.185 A 
ATOM      4  C   LIG A   1      -6.849   0.025 130.780  0.00  0.00    +0.047 A 
ATOM      5  C   LIG A   1      -6.557   0.830 129.679  0.00  0.00    +0.074 A 
ATOM      6  C   LIG A   1      -5.298   0.599 128.924  0.00  0.00    +0.345 A 
ATOM      7  O   LIG A   1      -4.548  -0.520 129.287  0.00  0.00    -0.418 OA
ATOM      8  C   LIG A   1      -4.847  -1.321 130.411  0.00  0.00    +0.185 A 
ATOM      9  C   LIG A   1      -5.977  -1.045 131.173  0.00  0.00    +0.047 A 
ATOM     10  C   LIG A   1      -6.246  -1.816 132.306  0.00  0.00    +0.074 A 
ATOM     11  C   LIG A   1      -7.460  -1.526 133.112  0.00  0.00    +0.345 A 
ATOM     12  O   LIG A   1      -8.296  -0.503 132.649  0.00  0.00    -0.418 OA
ATOM     13  O   LIG A   1      -7.714  -2.159 134.129  0.00  0.00    -0.244 OA
ATOM     14  C   LIG A   1      -5.373  -2.850 132.687  0.00  0.00    +0.065 A 
ATOM     15  C   LIG A   1      -4.250  -3.111 131.905  0.00  0.00    +0.163 A 
ATOM     16  C   LIG A   1      -3.991  -2.358 130.760  0.00  0.00    +0.202 A 
ATOM     17  O   LIG A   1      -4.953   1.352 128.022  0.00  0.00    -0.244 OA
ATOM     18  C   LIG A   1      -7.442   1.854 129.284  0.00  0.00    +0.065 A 
ENDROOT
BRANCH  15  19
ATOM     19  O   LIG A   1      -3.356  -4.095 132.227  0.00  0.00    -0.503 OA
ATOM     20  H   LIG A   1      -3.256  -4.132 133.195  0.00  0.00    +0.292 HD
ENDBRANCH  15  19
BRANCH  16  21
ATOM     21  O   LIG A   1      -2.890  -2.637 130.002  0.00  0.00    -0.501 OA
ATOM     22  H   LIG A   1      -2.208  -1.995 130.282  0.00  0.00    +0.292 HD
ENDBRANCH  16  21
BRANCH   2  23
ATOM     23  O   LIG A   1     -10.029   1.503 131.854  0.00  0.00    -0.501 OA
ATOM     24  H   LIG A   1      -9.754   1.836 132.729  0.00  0.00    +0.292 HD
ENDBRANCH   2  23
BRANCH   1  25
ATOM     25  O   LIG A   1      -9.586   2.998 129.652  0.00  0.00    -0.457 OA
BRANCH  25  31
ATOM     26  C   LIG A   1      -9.337   5.315 129.177  0.00  0.00    +0.215 C 
ATOM     27  C   LIG A   1      -9.778   6.755 129.488  0.00  0.00    +0.192 C 
ATOM     28  C   LIG A   1     -11.133   6.847 130.199  0.00  0.00    +0.236 C 
ATOM     29  C   LIG A   1     -11.192   5.831 131.360  0.00  0.00    +0.163 C 
ATOM     30  O   LIG A   1     -10.905   4.496 130.916  0.00  0.00    -0.333 OA
ATOM     31  C   LIG A   1      -9.632   4.292 130.308  0.00  0.00    +0.339 C 
ATOM     32  C   LIG A   1     -10.349   6.235 132.574  0.00  0.00    +0.042 C 
BRANCH  26  33
ATOM     33  O   LIG A   1      -7.919   5.350 128.877  0.00  0.00    -0.383 OA
ATOM     34  H   LIG A   1      -7.846   5.473 127.910  0.00  0.00    +0.210 HD
ENDBRANCH  26  33
BRANCH  27  35
ATOM     35  O   LIG A   1      -8.768   7.396 130.283  0.00  0.00    -0.385 OA
ATOM     36  H   LIG A   1      -7.947   7.325 129.752  0.00  0.00    +0.210 HD
ENDBRANCH  27  35
BRANCH  28  37
ATOM     37  O   LIG A   1     -12.208   6.545 129.265  0.00  0.00    -0.456 OA
BRANCH  37  38
ATOM     38  C   LIG A   1     -12.980   7.595 128.832  0.00  0.00    +0.304 C 
ATOM     39  C   LIG A   1     -13.887   7.146 127.710  0.00  0.00    +0.136 C 
ATOM     40  O   LIG A   1     -12.952   8.724 129.274  0.00  0.00    -0.251 OA
ENDBRANCH  37  38
ENDBRANCH  28  37
ENDBRANCH  25  31
ENDBRANCH   1  25
TORSDOF 9
ENDMDL
MODEL 9
REMARK VINA RESULT:      -8.0      4.336      9.220
REMARK  Name = NuBBE_1182
REMARK  11 active torsions:
REMARK  status: ('A' for Active; 'I' for Inactive)
REMARK    1  A    between atoms: O_1  and  C_2
REMARK    2  A    between atoms: C_4  and  O_40
REMARK    3  A    between atoms: C_6  and  O_36
REMARK    4  A    between atoms: C_8  and  C_35
REMARK    5  A    between atoms: C_11  and  O_13
REMARK    6  A    between atoms: O_13  and  C_14
REMARK    7  A    between atoms: C_15  and  O_34
REMARK    8  A    between atoms: C_28  and  O_29
REMARK    9  A    between atoms: C_30  and  O_31
REMARK   10  A    between atoms: O_36  and  C_37
REMARK   11  A    between atoms: C_37  and  C_38
REMARK                            x       y       z     vdW  Elec       q    Type
REMARK                         _______ _______ _______ _____ _____    ______ ____
ROOT
ATOM      1  C   LIG A   1      -4.112   3.453 127.069  0.00  0.00    +0.170 A 
ATOM      2  C   LIG A   1      -4.359   2.681 128.220  0.00  0.00    +0.203 A 
ATOM      3  C   LIG A   1      -3.922   3.117 129.475  0.00  0.00    +0.185 A 
ATOM      4  C   LIG A   1      -3.236   4.312 129.619  0.00  0.00    +0.047 A 
ATOM      5  C   LIG A   1      -3.023   5.105 128.493  0.00  0.00    +0.074 A 
ATOM      6  C   LIG A   1      -2.326   6.409 128.644  0.00  0.00    +0.345 A 
ATOM      7  O   LIG A   1      -1.795   6.691 129.903  0.00  0.00    -0.418 OA
ATOM      8  C   LIG A   1      -2.026   5.885 131.039  0.00  0.00    +0.185 A 
ATOM      9  C   LIG A   1      -2.761   4.712 130.913  0.00  0.00    +0.047 A 
ATOM     10  C   LIG A   1      -3.021   3.939 132.048  0.00  0.00    +0.074 A 
ATOM     11  C   LIG A   1      -3.796   2.680 131.909  0.00  0.00    +0.345 A 
ATOM     12  O   LIG A   1      -4.188   2.319 130.614  0.00  0.00    -0.418 OA
ATOM     13  O   LIG A   1      -4.071   1.992 132.883  0.00  0.00    -0.244 OA
ATOM     14  C   LIG A   1      -2.563   4.354 133.311  0.00  0.00    +0.065 A 
ATOM     15  C   LIG A   1      -1.825   5.531 133.411  0.00  0.00    +0.163 A 
ATOM     16  C   LIG A   1      -1.544   6.292 132.276  0.00  0.00    +0.202 A 
ATOM     17  O   LIG A   1      -2.217   7.183 127.701  0.00  0.00    -0.244 OA
ATOM     18  C   LIG A   1      -3.464   4.682 127.222  0.00  0.00    +0.065 A 
ENDROOT
BRANCH  15  19
ATOM     19  O   LIG A   1      -1.361   5.995 134.611  0.00  0.00    -0.503 OA
ATOM     20  H   LIG A   1      -0.436   6.282 134.507  0.00  0.00    +0.292 HD
ENDBRANCH  15  19
BRANCH  16  21
ATOM     21  O   LIG A   1      -0.810   7.438 132.396  0.00  0.00    -0.501 OA
ATOM     22  H   LIG A   1      -1.443   8.127 132.682  0.00  0.00    +0.292 HD
ENDBRANCH  16  21
BRANCH   2  23
ATOM     23  O   LIG A   1      -5.038   1.495 128.112  0.00  0.00    -0.501 OA
ATOM     24  H   LIG A   1      -4.892   1.151 127.210  0.00  0.00    +0.292 HD
ENDBRANCH   2  23
BRANCH   1  25
ATOM     25  O   LIG A   1      -4.530   2.921 125.878  0.00  0.00    -0.457 OA
BRANCH  25  31
ATOM     26  C   LIG A   1      -6.046   3.249 124.076  0.00  0.00    +0.215 C 
ATOM     27  C   LIG A   1      -7.329   2.791 123.363  0.00  0.00    +0.192 C 
ATOM     28  C   LIG A   1      -7.757   1.362 123.717  0.00  0.00    +0.236 C 
ATOM     29  C   LIG A   1      -7.692   1.154 125.246  0.00  0.00    +0.163 C 
ATOM     30  O   LIG A   1      -6.398   1.478 125.775  0.00  0.00    -0.333 OA
ATOM     31  C   LIG A   1      -5.942   2.812 125.562  0.00  0.00    +0.339 C 
ATOM     32  C   LIG A   1      -8.824   1.852 126.009  0.00  0.00    +0.042 C 
BRANCH  26  33
ATOM     33  O   LIG A   1      -5.979   4.694 123.963  0.00  0.00    -0.383 OA
ATOM     34  H   LIG A   1      -5.306   4.885 123.281  0.00  0.00    +0.210 HD
ENDBRANCH  26  33
BRANCH  27  35
ATOM     35  O   LIG A   1      -8.392   3.705 123.670  0.00  0.00    -0.385 OA
ATOM     36  H   LIG A   1      -8.457   4.289 122.885  0.00  0.00    +0.210 HD
ENDBRANCH  27  35
BRANCH  28  37
ATOM     37  O   LIG A   1      -6.864   0.402 123.083  0.00  0.00    -0.456 OA
BRANCH  37  38
ATOM     38  C   LIG A   1      -7.305  -0.894 122.980  0.00  0.00    +0.304 C 
ATOM     39  C   LIG A   1      -6.130  -1.845 122.977  0.00  0.00    +0.136 C 
ATOM     40  O   LIG A   1      -8.464  -1.245 122.902  0.00  0.00    -0.251 OA
ENDBRANCH  37  38
ENDBRANCH  28  37
ENDBRANCH  25  31
ENDBRANCH   1  25
TORSDOF 9
ENDMDL
