MODEL 1
REMARK VINA RESULT:      -5.7      0.000      0.000
REMARK  Name = NuBBE_2140
REMARK  6 active torsions:
REMARK  status: ('A' for Active; 'I' for Inactive)
REMARK    1  A    between atoms: C_1  and  C_2
REMARK    2  A    between atoms: C_2  and  C_3
REMARK    3  A    between atoms: C_3  and  C_4
REMARK    4  A    between atoms: C_4  and  C_5
REMARK    5  A    between atoms: C_5  and  C_6
REMARK    6  A    between atoms: C_6  and  C_7
REMARK                            x       y       z     vdW  Elec       q    Type
REMARK                         _______ _______ _______ _____ _____    ______ ____
ROOT
ATOM      1  C   LIG A   1      -9.178  -3.045 125.482  0.00  0.00    +0.030 C 
ENDROOT
BRANCH   1   2
ATOM      2  C   LIG A   1      -8.607  -2.776 126.857  0.00  0.00    -0.073 C 
ATOM      3  C   LIG A   1      -7.976  -1.617 127.145  0.00  0.00    -0.028 C 
ATOM      4  C   LIG A   1      -7.440  -1.276 128.504  0.00  0.00    +0.027 C 
ATOM      5  C   LIG A   1      -7.983  -2.190 129.602  0.00  0.00    +0.004 C 
ATOM      6  C   LIG A   1      -7.932  -3.648 129.159  0.00  0.00    +0.005 C 
ATOM      7  C   LIG A   1      -8.767  -3.866 127.894  0.00  0.00    +0.030 C 
ENDBRANCH   1   2
BRANCH   1   8
ATOM      8  C   LIG A   1      -8.217  -3.779 124.533  0.00  0.00    +0.004 C 
BRANCH   8   9
ATOM      9  C   LIG A   1      -7.155  -2.863 123.913  0.00  0.00    +0.000 C 
BRANCH   9  10
ATOM     10  C   LIG A   1      -5.749  -3.070 124.491  0.00  0.00    -0.000 C 
BRANCH  10  12
ATOM     11  C   LIG A   1      -4.283  -4.848 123.464  0.00  0.00    +0.004 C 
ATOM     12  C   LIG A   1      -4.693  -3.384 123.430  0.00  0.00    -0.003 C 
ENDBRANCH  10  12
ENDBRANCH   9  10
ENDBRANCH   8   9
ENDBRANCH   1   8
TORSDOF 5
ENDMDL
MODEL 2
REMARK VINA RESULT:      -5.6      0.520      1.525
REMARK  Name = NuBBE_2140
REMARK  6 active torsions:
REMARK  status: ('A' for Active; 'I' for Inactive)
REMARK    1  A    between atoms: C_1  and  C_2
REMARK    2  A    between atoms: C_2  and  C_3
REMARK    3  A    between atoms: C_3  and  C_4
REMARK    4  A    between atoms: C_4  and  C_5
REMARK    5  A    between atoms: C_5  and  C_6
REMARK    6  A    between atoms: C_6  and  C_7
REMARK                            x       y       z     vdW  Elec       q    Type
REMARK                         _______ _______ _______ _____ _____    ______ ____
ROOT
ATOM      1  C   LIG A   1      -9.033  -2.668 125.009  0.00  0.00    +0.030 C 
ENDROOT
BRANCH   1   2
ATOM      2  C   LIG A   1      -8.644  -2.623 126.471  0.00  0.00    -0.073 C 
ATOM      3  C   LIG A   1      -8.951  -3.632 127.314  0.00  0.00    -0.028 C 
ATOM      4  C   LIG A   1      -8.543  -3.664 128.758  0.00  0.00    +0.027 C 
ATOM      5  C   LIG A   1      -7.458  -2.641 129.090  0.00  0.00    +0.004 C 
ATOM      6  C   LIG A   1      -7.789  -1.288 128.472  0.00  0.00    +0.005 C 
ATOM      7  C   LIG A   1      -7.901  -1.394 126.948  0.00  0.00    +0.030 C 
ENDBRANCH   1   2
BRANCH   1   8
ATOM      8  C   LIG A   1      -8.030  -3.408 124.112  0.00  0.00    +0.004 C 
BRANCH   8   9
ATOM      9  C   LIG A   1      -6.841  -2.539 123.682  0.00  0.00    +0.000 C 
BRANCH   9  10
ATOM     10  C   LIG A   1      -5.525  -2.905 124.381  0.00  0.00    -0.000 C 
BRANCH  10  12
ATOM     11  C   LIG A   1      -4.331  -4.942 123.492  0.00  0.00    +0.004 C 
ATOM     12  C   LIG A   1      -4.451  -3.428 123.426  0.00  0.00    -0.003 C 
ENDBRANCH  10  12
ENDBRANCH   9  10
ENDBRANCH   8   9
ENDBRANCH   1   8
TORSDOF 5
ENDMDL
MODEL 3
REMARK VINA RESULT:      -5.4     10.467     11.882
REMARK  Name = NuBBE_2140
REMARK  6 active torsions:
REMARK  status: ('A' for Active; 'I' for Inactive)
REMARK    1  A    between atoms: C_1  and  C_2
REMARK    2  A    between atoms: C_2  and  C_3
REMARK    3  A    between atoms: C_3  and  C_4
REMARK    4  A    between atoms: C_4  and  C_5
REMARK    5  A    between atoms: C_5  and  C_6
REMARK    6  A    between atoms: C_6  and  C_7
REMARK                            x       y       z     vdW  Elec       q    Type
REMARK                         _______ _______ _______ _____ _____    ______ ____
ROOT
ATOM      1  C   LIG A   1     -12.591   7.232 131.086  0.00  0.00    +0.030 C 
ENDROOT
BRANCH   1   2
ATOM      2  C   LIG A   1     -12.285   7.427 129.616  0.00  0.00    -0.073 C 
ATOM      3  C   LIG A   1     -11.303   8.257 129.204  0.00  0.00    -0.028 C 
ATOM      4  C   LIG A   1     -10.923   8.446 127.765  0.00  0.00    +0.027 C 
ATOM      5  C   LIG A   1     -11.494   7.362 126.853  0.00  0.00    +0.004 C 
ATOM      6  C   LIG A   1     -12.962   7.109 127.176  0.00  0.00    +0.005 C 
ATOM      7  C   LIG A   1     -13.134   6.656 128.629  0.00  0.00    +0.030 C 
ENDBRANCH   1   2
BRANCH   1   8
ATOM      8  C   LIG A   1     -11.478   6.521 131.872  0.00  0.00    +0.004 C 
BRANCH   8   9
ATOM      9  C   LIG A   1     -10.724   5.471 131.047  0.00  0.00    +0.000 C 
BRANCH   9  10
ATOM     10  C   LIG A   1      -9.208   5.479 131.276  0.00  0.00    -0.000 C 
BRANCH  10  12
ATOM     11  C   LIG A   1      -7.049   6.784 131.204  0.00  0.00    +0.004 C 
ATOM     12  C   LIG A   1      -8.552   6.830 130.981  0.00  0.00    -0.003 C 
ENDBRANCH  10  12
ENDBRANCH   9  10
ENDBRANCH   8   9
ENDBRANCH   1   8
TORSDOF 5
ENDMDL
MODEL 4
REMARK VINA RESULT:      -5.4     10.876     11.776
REMARK  Name = NuBBE_2140
REMARK  6 active torsions:
REMARK  status: ('A' for Active; 'I' for Inactive)
REMARK    1  A    between atoms: C_1  and  C_2
REMARK    2  A    between atoms: C_2  and  C_3
REMARK    3  A    between atoms: C_3  and  C_4
REMARK    4  A    between atoms: C_4  and  C_5
REMARK    5  A    between atoms: C_5  and  C_6
REMARK    6  A    between atoms: C_6  and  C_7
REMARK                            x       y       z     vdW  Elec       q    Type
REMARK                         _______ _______ _______ _____ _____    ______ ____
ROOT
ATOM      1  C   LIG A   1     -11.786   6.178 130.478  0.00  0.00    +0.030 C 
ENDROOT
BRANCH   1   2
ATOM      2  C   LIG A   1     -10.419   6.251 131.125  0.00  0.00    -0.073 C 
ATOM      3  C   LIG A   1     -10.242   5.968 132.433  0.00  0.00    -0.028 C 
ATOM      4  C   LIG A   1      -8.904   5.972 133.112  0.00  0.00    +0.027 C 
ATOM      5  C   LIG A   1      -7.738   5.971 132.124  0.00  0.00    +0.004 C 
ATOM      6  C   LIG A   1      -7.977   6.985 131.011  0.00  0.00    +0.005 C 
ATOM      7  C   LIG A   1      -9.261   6.662 130.242  0.00  0.00    +0.030 C 
ENDBRANCH   1   2
BRANCH   1   8
ATOM      8  C   LIG A   1     -12.701   7.369 130.802  0.00  0.00    +0.004 C 
BRANCH   8   9
ATOM      9  C   LIG A   1     -12.458   8.586 129.902  0.00  0.00    +0.000 C 
BRANCH   9  10
ATOM     10  C   LIG A   1     -12.505   8.265 128.403  0.00  0.00    -0.000 C 
BRANCH  10  12
ATOM     11  C   LIG A   1     -10.917   7.366 126.660  0.00  0.00    +0.004 C 
ATOM     12  C   LIG A   1     -11.161   8.452 127.696  0.00  0.00    -0.003 C 
ENDBRANCH  10  12
ENDBRANCH   9  10
ENDBRANCH   8   9
ENDBRANCH   1   8
TORSDOF 5
ENDMDL
MODEL 5
REMARK VINA RESULT:      -5.3      1.225      4.870
REMARK  Name = NuBBE_2140
REMARK  6 active torsions:
REMARK  status: ('A' for Active; 'I' for Inactive)
REMARK    1  A    between atoms: C_1  and  C_2
REMARK    2  A    between atoms: C_2  and  C_3
REMARK    3  A    between atoms: C_3  and  C_4
REMARK    4  A    between atoms: C_4  and  C_5
REMARK    5  A    between atoms: C_5  and  C_6
REMARK    6  A    between atoms: C_6  and  C_7
REMARK                            x       y       z     vdW  Elec       q    Type
REMARK                         _______ _______ _______ _____ _____    ______ ____
ROOT
ATOM      1  C   LIG A   1      -8.502  -4.013 125.247  0.00  0.00    +0.030 C 
ENDROOT
BRANCH   1   2
ATOM      2  C   LIG A   1      -7.527  -3.238 124.386  0.00  0.00    -0.073 C 
ATOM      3  C   LIG A   1      -6.234  -3.610 124.274  0.00  0.00    -0.028 C 
ATOM      4  C   LIG A   1      -5.240  -2.911 123.394  0.00  0.00    +0.027 C 
ATOM      5  C   LIG A   1      -5.899  -1.980 122.378  0.00  0.00    +0.004 C 
ATOM      6  C   LIG A   1      -6.979  -1.136 123.045  0.00  0.00    +0.005 C 
ATOM      7  C   LIG A   1      -8.065  -2.023 123.662  0.00  0.00    +0.030 C 
ENDBRANCH   1   2
BRANCH   1   8
ATOM      8  C   LIG A   1      -9.093  -3.206 126.412  0.00  0.00    +0.004 C 
BRANCH   8   9
ATOM      9  C   LIG A   1      -8.920  -3.886 127.775  0.00  0.00    +0.000 C 
BRANCH   9  10
ATOM     10  C   LIG A   1      -7.922  -3.174 128.697  0.00  0.00    -0.000 C 
BRANCH  10  12
ATOM     11  C   LIG A   1      -5.817  -2.191 127.713  0.00  0.00    +0.004 C 
ATOM     12  C   LIG A   1      -7.276  -1.941 128.062  0.00  0.00    -0.003 C 
ENDBRANCH  10  12
ENDBRANCH   9  10
ENDBRANCH   8   9
ENDBRANCH   1   8
TORSDOF 5
ENDMDL
MODEL 6
REMARK VINA RESULT:      -5.3      1.957      2.284
REMARK  Name = NuBBE_2140
REMARK  6 active torsions:
REMARK  status: ('A' for Active; 'I' for Inactive)
REMARK    1  A    between atoms: C_1  and  C_2
REMARK    2  A    between atoms: C_2  and  C_3
REMARK    3  A    between atoms: C_3  and  C_4
REMARK    4  A    between atoms: C_4  and  C_5
REMARK    5  A    between atoms: C_5  and  C_6
REMARK    6  A    between atoms: C_6  and  C_7
REMARK                            x       y       z     vdW  Elec       q    Type
REMARK                         _______ _______ _______ _____ _____    ______ ____
ROOT
ATOM      1  C   LIG A   1      -9.261  -3.046 125.964  0.00  0.00    +0.030 C 
ENDROOT
BRANCH   1   2
ATOM      2  C   LIG A   1      -8.221  -2.930 127.058  0.00  0.00    -0.073 C 
ATOM      3  C   LIG A   1      -7.014  -2.371 126.828  0.00  0.00    -0.028 C 
ATOM      4  C   LIG A   1      -5.969  -2.182 127.887  0.00  0.00    +0.027 C 
ATOM      5  C   LIG A   1      -6.522  -2.346 129.302  0.00  0.00    +0.004 C 
ATOM      6  C   LIG A   1      -7.412  -3.581 129.390  0.00  0.00    +0.005 C 
ATOM      7  C   LIG A   1      -8.592  -3.475 128.420  0.00  0.00    +0.030 C 
ENDBRANCH   1   2
BRANCH   1   8
ATOM      8  C   LIG A   1      -8.755  -3.730 124.684  0.00  0.00    +0.004 C 
BRANCH   8   9
ATOM      9  C   LIG A   1      -9.433  -3.214 123.409  0.00  0.00    +0.000 C 
BRANCH   9  10
ATOM     10  C   LIG A   1      -8.885  -1.867 122.921  0.00  0.00    -0.000 C 
BRANCH  10  12
ATOM     11  C   LIG A   1      -6.808  -0.574 123.541  0.00  0.00    +0.004 C 
ATOM     12  C   LIG A   1      -7.357  -1.817 122.858  0.00  0.00    -0.003 C 
ENDBRANCH  10  12
ENDBRANCH   9  10
ENDBRANCH   8   9
ENDBRANCH   1   8
TORSDOF 5
ENDMDL
MODEL 7
REMARK VINA RESULT:      -5.2      8.982     11.376
REMARK  Name = NuBBE_2140
REMARK  6 active torsions:
REMARK  status: ('A' for Active; 'I' for Inactive)
REMARK    1  A    between atoms: C_1  and  C_2
REMARK    2  A    between atoms: C_2  and  C_3
REMARK    3  A    between atoms: C_3  and  C_4
REMARK    4  A    between atoms: C_4  and  C_5
REMARK    5  A    between atoms: C_5  and  C_6
REMARK    6  A    between atoms: C_6  and  C_7
REMARK                            x       y       z     vdW  Elec       q    Type
REMARK                         _______ _______ _______ _____ _____    ______ ____
ROOT
ATOM      1  C   LIG A   1     -12.044   6.442 131.506  0.00  0.00    +0.030 C 
ENDROOT
BRANCH   1   2
ATOM      2  C   LIG A   1     -10.658   6.049 131.041  0.00  0.00    -0.073 C 
ATOM      3  C   LIG A   1      -9.605   6.882 131.181  0.00  0.00    -0.028 C 
ATOM      4  C   LIG A   1      -8.202   6.524 130.788  0.00  0.00    +0.027 C 
ATOM      5  C   LIG A   1      -8.017   5.025 130.553  0.00  0.00    +0.004 C 
ATOM      6  C   LIG A   1      -9.159   4.469 129.710  0.00  0.00    +0.005 C 
ATOM      7  C   LIG A   1     -10.507   4.685 130.404  0.00  0.00    +0.030 C 
ENDBRANCH   1   2
BRANCH   1   8
ATOM      8  C   LIG A   1     -12.601   7.706 130.833  0.00  0.00    +0.004 C 
BRANCH   8   9
ATOM      9  C   LIG A   1     -12.835   7.541 129.327  0.00  0.00    +0.000 C 
BRANCH   9  10
ATOM     10  C   LIG A   1     -12.262   8.689 128.485  0.00  0.00    -0.000 C 
BRANCH  10  12
ATOM     11  C   LIG A   1     -10.526   7.199 127.420  0.00  0.00    +0.004 C 
ATOM     12  C   LIG A   1     -10.781   8.514 128.140  0.00  0.00    -0.003 C 
ENDBRANCH  10  12
ENDBRANCH   9  10
ENDBRANCH   8   9
ENDBRANCH   1   8
TORSDOF 5
ENDMDL
MODEL 8
REMARK VINA RESULT:      -5.1      1.727      4.768
REMARK  Name = NuBBE_2140
REMARK  6 active torsions:
REMARK  status: ('A' for Active; 'I' for Inactive)
REMARK    1  A    between atoms: C_1  and  C_2
REMARK    2  A    between atoms: C_2  and  C_3
REMARK    3  A    between atoms: C_3  and  C_4
REMARK    4  A    between atoms: C_4  and  C_5
REMARK    5  A    between atoms: C_5  and  C_6
REMARK    6  A    between atoms: C_6  and  C_7
REMARK                            x       y       z     vdW  Elec       q    Type
REMARK                         _______ _______ _______ _____ _____    ______ ____
ROOT
ATOM      1  C   LIG A   1      -8.764  -3.571 127.002  0.00  0.00    +0.030 C 
ENDROOT
BRANCH   1   2
ATOM      2  C   LIG A   1      -8.391  -3.217 125.578  0.00  0.00    -0.073 C 
ATOM      3  C   LIG A   1      -9.289  -3.294 124.573  0.00  0.00    -0.028 C 
ATOM      4  C   LIG A   1      -8.988  -2.903 123.156  0.00  0.00    +0.027 C 
ATOM      5  C   LIG A   1      -7.706  -2.083 123.027  0.00  0.00    +0.004 C 
ATOM      6  C   LIG A   1      -6.584  -2.708 123.848  0.00  0.00    +0.005 C 
ATOM      7  C   LIG A   1      -6.964  -2.778 125.330  0.00  0.00    +0.030 C 
ENDBRANCH   1   2
BRANCH   1   8
ATOM      8  C   LIG A   1      -8.069  -2.711 128.068  0.00  0.00    +0.004 C 
BRANCH   8   9
ATOM      9  C   LIG A   1      -7.873  -3.437 129.404  0.00  0.00    +0.000 C 
BRANCH   9  10
ATOM     10  C   LIG A   1      -6.411  -3.502 129.862  0.00  0.00    -0.000 C 
BRANCH  10  12
ATOM     11  C   LIG A   1      -4.053  -3.357 128.974  0.00  0.00    +0.004 C 
ATOM     12  C   LIG A   1      -5.448  -2.752 128.939  0.00  0.00    -0.003 C 
ENDBRANCH  10  12
ENDBRANCH   9  10
ENDBRANCH   8   9
ENDBRANCH   1   8
TORSDOF 5
ENDMDL
MODEL 9
REMARK VINA RESULT:      -5.1      1.709      3.753
REMARK  Name = NuBBE_2140
REMARK  6 active torsions:
REMARK  status: ('A' for Active; 'I' for Inactive)
REMARK    1  A    between atoms: C_1  and  C_2
REMARK    2  A    between atoms: C_2  and  C_3
REMARK    3  A    between atoms: C_3  and  C_4
REMARK    4  A    between atoms: C_4  and  C_5
REMARK    5  A    between atoms: C_5  and  C_6
REMARK    6  A    between atoms: C_6  and  C_7
REMARK                            x       y       z     vdW  Elec       q    Type
REMARK                         _______ _______ _______ _____ _____    ______ ____
ROOT
ATOM      1  C   LIG A   1      -8.234  -1.771 126.901  0.00  0.00    +0.030 C 
ENDROOT
BRANCH   1   2
ATOM      2  C   LIG A   1      -8.634  -1.912 125.448  0.00  0.00    -0.073 C 
ATOM      3  C   LIG A   1      -8.787  -0.834 124.651  0.00  0.00    -0.028 C 
ATOM      4  C   LIG A   1      -9.129  -0.918 123.193  0.00  0.00    +0.027 C 
ATOM      5  C   LIG A   1      -8.935  -2.321 122.619  0.00  0.00    +0.004 C 
ATOM      6  C   LIG A   1      -9.528  -3.370 123.553  0.00  0.00    +0.005 C 
ATOM      7  C   LIG A   1      -8.861  -3.316 124.931  0.00  0.00    +0.030 C 
ENDBRANCH   1   2
BRANCH   1   8
ATOM      8  C   LIG A   1      -6.776  -1.337 127.114  0.00  0.00    +0.004 C 
BRANCH   8   9
ATOM      9  C   LIG A   1      -5.768  -2.174 126.318  0.00  0.00    +0.000 C 
BRANCH   9  10
ATOM     10  C   LIG A   1      -5.238  -1.472 125.061  0.00  0.00    -0.000 C 
BRANCH  10  12
ATOM     11  C   LIG A   1      -5.269  -3.794 124.075  0.00  0.00    +0.004 C 
ATOM     12  C   LIG A   1      -5.386  -2.306 123.787  0.00  0.00    -0.003 C 
ENDBRANCH  10  12
ENDBRANCH   9  10
ENDBRANCH   8   9
ENDBRANCH   1   8
TORSDOF 5
ENDMDL
