MODEL 1
REMARK VINA RESULT:      -7.3      0.000      0.000
REMARK  Name = NuBBE_1018
REMARK  14 active torsions:
REMARK  status: ('A' for Active; 'I' for Inactive)
REMARK    1  A    between atoms: O_1  and  C_2
REMARK    2  A    between atoms: C_2  and  C_4
REMARK    3  A    between atoms: C_2  and  C_8
REMARK    4  A    between atoms: C_4  and  O_5
REMARK    5  A    between atoms: C_4  and  C_6
REMARK    6  A    between atoms: C_4  and  C_7
REMARK    7  A    between atoms: C_11  and  C_12
REMARK    8  A    between atoms: C_11  and  C_13
REMARK    9  A    between atoms: C_17  and  C_18
REMARK   10  A    between atoms: C_18  and  C_19
REMARK   11  A    between atoms: C_19  and  C_20
REMARK   12  A    between atoms: C_20  and  O_21
REMARK   13  A    between atoms: C_25  and  O_26
REMARK   14  A    between atoms: O_26  and  C_27
REMARK                            x       y       z     vdW  Elec       q    Type
REMARK                         _______ _______ _______ _____ _____    ______ ____
ROOT
ATOM      1  C   LIG A   1      -7.658   0.576 125.070  0.00  0.00    +0.191 C 
ATOM      2  O   LIG A   1      -6.703   0.892 126.095  0.00  0.00    -0.329 OA
ATOM      3  C   LIG A   1      -6.178   2.212 126.072  0.00  0.00    +0.207 C 
ATOM      4  C   LIG A   1      -7.172   3.196 126.711  0.00  0.00    +0.089 C 
ATOM      5  C   LIG A   1      -4.918   2.190 126.945  0.00  0.00    +0.089 C 
ATOM      6  O   LIG A   1      -5.730   2.617 124.772  0.00  0.00    -0.461 OA
ATOM      7  C   LIG A   1      -7.808   1.684 124.042  0.00  0.00    +0.067 A 
ATOM      8  C   LIG A   1      -6.721   2.535 123.833  0.00  0.00    +0.137 A 
ATOM      9  C   LIG A   1      -6.637   3.363 122.707  0.00  0.00    -0.004 A 
ATOM     10  C   LIG A   1      -7.760   3.459 121.880  0.00  0.00    +0.011 A 
ATOM     11  C   LIG A   1      -8.925   2.748 122.182  0.00  0.00    +0.046 A 
ATOM     12  C   LIG A   1      -8.954   1.847 123.252  0.00  0.00    +0.129 A 
ENDROOT
BRANCH  12  13
ATOM     13  O   LIG A   1     -10.066   1.144 123.634  0.00  0.00    -0.495 OA
ATOM     14  C   LIG A   1     -10.710   0.392 122.613  0.00  0.00    +0.277 C 
ENDBRANCH  12  13
BRANCH   1  15
ATOM     15  C   LIG A   1      -7.163  -0.751 124.393  0.00  0.00    +0.179 C 
BRANCH  15  16
ATOM     16  C   LIG A   1      -8.151  -1.966 124.415  0.00  0.00    +0.089 C 
ATOM     17  C   LIG A   1      -8.603  -2.447 123.034  0.00  0.00    +0.044 C 
ATOM     18  C   LIG A   1      -7.628  -3.139 125.253  0.00  0.00    +0.044 C 
BRANCH  16  19
ATOM     19  O   LIG A   1      -9.344  -1.496 125.098  0.00  0.00    -0.387 OA
ATOM     20  H   LIG A   1      -9.116  -1.388 126.039  0.00  0.00    +0.210 HD
ENDBRANCH  16  19
ENDBRANCH  15  16
BRANCH  15  21
ATOM     21  O   LIG A   1      -6.776  -0.540 123.018  0.00  0.00    -0.386 OA
ATOM     22  H   LIG A   1      -6.700   0.432 122.935  0.00  0.00    +0.210 HD
ENDBRANCH  15  21
ENDBRANCH   1  15
BRANCH   9  23
ATOM     23  C   LIG A   1      -5.388   4.151 122.389  0.00  0.00    +0.050 C 
BRANCH  23  24
ATOM     24  C   LIG A   1      -4.980   4.025 120.919  0.00  0.00    +0.125 C 
BRANCH  24  25
ATOM     25  C   LIG A   1      -4.971   5.362 120.233  0.00  0.00    +0.305 C 
ATOM     26  O   LIG A   1      -5.531   5.673 119.204  0.00  0.00    -0.251 OA
BRANCH  25  27
ATOM     27  O   LIG A   1      -4.236   6.265 120.919  0.00  0.00    -0.481 OA
ATOM     28  H   LIG A   1      -3.335   6.174 120.544  0.00  0.00    +0.295 HD
ENDBRANCH  25  27
ENDBRANCH  24  25
ENDBRANCH  23  24
ENDBRANCH   9  23
TORSDOF 9
ENDMDL
MODEL 2
REMARK VINA RESULT:      -6.7      3.363      6.877
REMARK  Name = NuBBE_1018
REMARK  14 active torsions:
REMARK  status: ('A' for Active; 'I' for Inactive)
REMARK    1  A    between atoms: O_1  and  C_2
REMARK    2  A    between atoms: C_2  and  C_4
REMARK    3  A    between atoms: C_2  and  C_8
REMARK    4  A    between atoms: C_4  and  O_5
REMARK    5  A    between atoms: C_4  and  C_6
REMARK    6  A    between atoms: C_4  and  C_7
REMARK    7  A    between atoms: C_11  and  C_12
REMARK    8  A    between atoms: C_11  and  C_13
REMARK    9  A    between atoms: C_17  and  C_18
REMARK   10  A    between atoms: C_18  and  C_19
REMARK   11  A    between atoms: C_19  and  C_20
REMARK   12  A    between atoms: C_20  and  O_21
REMARK   13  A    between atoms: C_25  and  O_26
REMARK   14  A    between atoms: O_26  and  C_27
REMARK                            x       y       z     vdW  Elec       q    Type
REMARK                         _______ _______ _______ _____ _____    ______ ____
ROOT
ATOM      1  C   LIG A   1      -8.221  -0.592 124.932  0.00  0.00    +0.191 C 
ATOM      2  O   LIG A   1      -6.960   0.095 124.908  0.00  0.00    -0.329 OA
ATOM      3  C   LIG A   1      -5.936  -0.452 125.726  0.00  0.00    +0.207 C 
ATOM      4  C   LIG A   1      -5.279  -1.655 125.030  0.00  0.00    +0.089 C 
ATOM      5  C   LIG A   1      -4.870   0.641 125.871  0.00  0.00    +0.089 C 
ATOM      6  O   LIG A   1      -6.373  -0.733 127.062  0.00  0.00    -0.461 OA
ATOM      7  C   LIG A   1      -8.267  -1.701 125.969  0.00  0.00    +0.067 A 
ATOM      8  C   LIG A   1      -7.442  -1.586 127.090  0.00  0.00    +0.137 A 
ATOM      9  C   LIG A   1      -7.638  -2.366 128.236  0.00  0.00    -0.004 A 
ATOM     10  C   LIG A   1      -8.572  -3.403 128.169  0.00  0.00    +0.011 A 
ATOM     11  C   LIG A   1      -9.278  -3.646 126.987  0.00  0.00    +0.046 A 
ATOM     12  C   LIG A   1      -9.144  -2.792 125.887  0.00  0.00    +0.129 A 
ENDROOT
BRANCH  12  13
ATOM     13  O   LIG A   1      -9.770  -2.985 124.685  0.00  0.00    -0.495 OA
ATOM     14  C   LIG A   1      -9.003  -3.638 123.680  0.00  0.00    +0.277 C 
ENDBRANCH  12  13
BRANCH   1  15
ATOM     15  C   LIG A   1      -9.316   0.493 125.226  0.00  0.00    +0.179 C 
BRANCH  15  16
ATOM     16  C   LIG A   1      -9.844   1.313 124.001  0.00  0.00    +0.089 C 
ATOM     17  C   LIG A   1      -9.081   2.611 123.725  0.00  0.00    +0.044 C 
ATOM     18  C   LIG A   1      -9.955   0.469 122.725  0.00  0.00    +0.044 C 
BRANCH  16  19
ATOM     19  O   LIG A   1     -11.203   1.699 124.337  0.00  0.00    -0.387 OA
ATOM     20  H   LIG A   1     -11.769   0.918 124.195  0.00  0.00    +0.210 HD
ENDBRANCH  16  19
ENDBRANCH  15  16
BRANCH  15  21
ATOM     21  O   LIG A   1     -10.467  -0.071 125.891  0.00  0.00    -0.386 OA
ATOM     22  H   LIG A   1     -10.213  -0.095 126.834  0.00  0.00    +0.210 HD
ENDBRANCH  15  21
ENDBRANCH   1  15
BRANCH   9  23
ATOM     23  C   LIG A   1      -6.862  -2.120 129.509  0.00  0.00    +0.050 C 
BRANCH  23  24
ATOM     24  C   LIG A   1      -5.847  -3.230 129.792  0.00  0.00    +0.125 C 
BRANCH  24  25
ATOM     25  C   LIG A   1      -4.497  -2.904 129.216  0.00  0.00    +0.305 C 
ATOM     26  O   LIG A   1      -3.583  -3.666 128.987  0.00  0.00    -0.251 OA
BRANCH  25  27
ATOM     27  O   LIG A   1      -4.383  -1.586 128.941  0.00  0.00    -0.481 OA
ATOM     28  H   LIG A   1      -3.540  -1.517 128.446  0.00  0.00    +0.295 HD
ENDBRANCH  25  27
ENDBRANCH  24  25
ENDBRANCH  23  24
ENDBRANCH   9  23
TORSDOF 9
ENDMDL
MODEL 3
REMARK VINA RESULT:      -6.5      5.926      8.961
REMARK  Name = NuBBE_1018
REMARK  14 active torsions:
REMARK  status: ('A' for Active; 'I' for Inactive)
REMARK    1  A    between atoms: O_1  and  C_2
REMARK    2  A    between atoms: C_2  and  C_4
REMARK    3  A    between atoms: C_2  and  C_8
REMARK    4  A    between atoms: C_4  and  O_5
REMARK    5  A    between atoms: C_4  and  C_6
REMARK    6  A    between atoms: C_4  and  C_7
REMARK    7  A    between atoms: C_11  and  C_12
REMARK    8  A    between atoms: C_11  and  C_13
REMARK    9  A    between atoms: C_17  and  C_18
REMARK   10  A    between atoms: C_18  and  C_19
REMARK   11  A    between atoms: C_19  and  C_20
REMARK   12  A    between atoms: C_20  and  O_21
REMARK   13  A    between atoms: C_25  and  O_26
REMARK   14  A    between atoms: O_26  and  C_27
REMARK                            x       y       z     vdW  Elec       q    Type
REMARK                         _______ _______ _______ _____ _____    ______ ____
ROOT
ATOM      1  C   LIG A   1      -9.668   5.564 128.909  0.00  0.00    +0.191 C 
ATOM      2  O   LIG A   1      -8.861   4.909 127.917  0.00  0.00    -0.329 OA
ATOM      3  C   LIG A   1      -7.687   4.267 128.394  0.00  0.00    +0.207 C 
ATOM      4  C   LIG A   1      -8.034   2.895 128.997  0.00  0.00    +0.089 C 
ATOM      5  C   LIG A   1      -6.800   4.024 127.167  0.00  0.00    +0.089 C 
ATOM      6  O   LIG A   1      -6.907   5.093 129.267  0.00  0.00    -0.461 OA
ATOM      7  C   LIG A   1      -9.018   5.578 130.282  0.00  0.00    +0.067 A 
ATOM      8  C   LIG A   1      -7.624   5.529 130.347  0.00  0.00    +0.137 A 
ATOM      9  C   LIG A   1      -6.927   5.858 131.516  0.00  0.00    -0.004 A 
ATOM     10  C   LIG A   1      -7.667   6.062 132.684  0.00  0.00    +0.011 A 
ATOM     11  C   LIG A   1      -9.059   5.934 132.672  0.00  0.00    +0.046 A 
ATOM     12  C   LIG A   1      -9.744   5.707 131.473  0.00  0.00    +0.129 A 
ENDROOT
BRANCH  12  13
ATOM     13  O   LIG A   1     -11.100   5.532 131.385  0.00  0.00    -0.495 OA
ATOM     14  C   LIG A   1     -11.900   6.633 131.800  0.00  0.00    +0.277 C 
ENDBRANCH  12  13
BRANCH   1  15
ATOM     15  C   LIG A   1      -9.914   7.024 128.392  0.00  0.00    +0.179 C 
BRANCH  15  16
ATOM     16  C   LIG A   1     -11.380   7.390 127.981  0.00  0.00    +0.089 C 
ATOM     17  C   LIG A   1     -11.923   8.670 128.621  0.00  0.00    +0.044 C 
ATOM     18  C   LIG A   1     -11.580   7.419 126.460  0.00  0.00    +0.044 C 
BRANCH  16  19
ATOM     19  O   LIG A   1     -12.212   6.303 128.466  0.00  0.00    -0.387 OA
ATOM     20  H   LIG A   1     -11.647   5.511 128.528  0.00  0.00    +0.210 HD
ENDBRANCH  16  19
ENDBRANCH  15  16
BRANCH  15  21
ATOM     21  O   LIG A   1      -9.480   8.013 129.350  0.00  0.00    -0.386 OA
ATOM     22  H   LIG A   1      -8.733   7.587 129.816  0.00  0.00    +0.210 HD
ENDBRANCH  15  21
ENDBRANCH   1  15
BRANCH   9  23
ATOM     23  C   LIG A   1      -5.421   5.976 131.539  0.00  0.00    +0.050 C 
BRANCH  23  24
ATOM     24  C   LIG A   1      -4.933   7.303 130.954  0.00  0.00    +0.125 C 
BRANCH  24  25
ATOM     25  C   LIG A   1      -4.021   7.087 129.779  0.00  0.00    +0.305 C 
ATOM     26  O   LIG A   1      -3.259   6.163 129.590  0.00  0.00    -0.251 OA
BRANCH  25  27
ATOM     27  O   LIG A   1      -4.139   8.081 128.872  0.00  0.00    -0.481 OA
ATOM     28  H   LIG A   1      -3.320   8.017 128.338  0.00  0.00    +0.295 HD
ENDBRANCH  25  27
ENDBRANCH  24  25
ENDBRANCH  23  24
ENDBRANCH   9  23
TORSDOF 9
ENDMDL
MODEL 4
REMARK VINA RESULT:      -6.5      5.265      7.568
REMARK  Name = NuBBE_1018
REMARK  14 active torsions:
REMARK  status: ('A' for Active; 'I' for Inactive)
REMARK    1  A    between atoms: O_1  and  C_2
REMARK    2  A    between atoms: C_2  and  C_4
REMARK    3  A    between atoms: C_2  and  C_8
REMARK    4  A    between atoms: C_4  and  O_5
REMARK    5  A    between atoms: C_4  and  C_6
REMARK    6  A    between atoms: C_4  and  C_7
REMARK    7  A    between atoms: C_11  and  C_12
REMARK    8  A    between atoms: C_11  and  C_13
REMARK    9  A    between atoms: C_17  and  C_18
REMARK   10  A    between atoms: C_18  and  C_19
REMARK   11  A    between atoms: C_19  and  C_20
REMARK   12  A    between atoms: C_20  and  O_21
REMARK   13  A    between atoms: C_25  and  O_26
REMARK   14  A    between atoms: O_26  and  C_27
REMARK                            x       y       z     vdW  Elec       q    Type
REMARK                         _______ _______ _______ _____ _____    ______ ____
ROOT
ATOM      1  C   LIG A   1      -7.431   4.005 129.961  0.00  0.00    +0.191 C 
ATOM      2  O   LIG A   1      -6.490   5.047 130.268  0.00  0.00    -0.329 OA
ATOM      3  C   LIG A   1      -7.033   6.225 130.847  0.00  0.00    +0.207 C 
ATOM      4  C   LIG A   1      -7.278   6.020 132.351  0.00  0.00    +0.089 C 
ATOM      5  C   LIG A   1      -5.963   7.312 130.694  0.00  0.00    +0.089 C 
ATOM      6  O   LIG A   1      -8.179   6.722 130.144  0.00  0.00    -0.461 OA
ATOM      7  C   LIG A   1      -8.873   4.433 130.171  0.00  0.00    +0.067 A 
ATOM      8  C   LIG A   1      -9.177   5.791 130.056  0.00  0.00    +0.137 A 
ATOM      9  C   LIG A   1     -10.495   6.243 129.911  0.00  0.00    -0.004 A 
ATOM     10  C   LIG A   1     -11.527   5.314 130.069  0.00  0.00    +0.011 A 
ATOM     11  C   LIG A   1     -11.239   3.979 130.367  0.00  0.00    +0.046 A 
ATOM     12  C   LIG A   1      -9.916   3.526 130.405  0.00  0.00    +0.129 A 
ENDROOT
BRANCH  12  13
ATOM     13  O   LIG A   1      -9.552   2.245 130.727  0.00  0.00    -0.495 OA
ATOM     14  C   LIG A   1      -9.894   1.810 132.038  0.00  0.00    +0.277 C 
ENDBRANCH  12  13
BRANCH   1  15
ATOM     15  C   LIG A   1      -7.180   3.604 128.465  0.00  0.00    +0.179 C 
BRANCH  15  16
ATOM     16  C   LIG A   1      -7.165   2.072 128.137  0.00  0.00    +0.089 C 
ATOM     17  C   LIG A   1      -8.433   1.553 127.455  0.00  0.00    +0.044 C 
ATOM     18  C   LIG A   1      -5.917   1.645 127.357  0.00  0.00    +0.044 C 
BRANCH  16  19
ATOM     19  O   LIG A   1      -7.080   1.393 129.418  0.00  0.00    -0.387 OA
ATOM     20  H   LIG A   1      -6.623   0.546 129.267  0.00  0.00    +0.210 HD
ENDBRANCH  16  19
ENDBRANCH  15  16
BRANCH  15  21
ATOM     21  O   LIG A   1      -8.134   4.222 127.576  0.00  0.00    -0.386 OA
ATOM     22  H   LIG A   1      -7.797   4.019 126.681  0.00  0.00    +0.210 HD
ENDBRANCH  15  21
ENDBRANCH   1  15
BRANCH   9  23
ATOM     23  C   LIG A   1     -10.811   7.690 129.610  0.00  0.00    +0.050 C 
BRANCH  23  24
ATOM     24  C   LIG A   1     -10.389   8.095 128.196  0.00  0.00    +0.125 C 
BRANCH  24  25
ATOM     25  C   LIG A   1     -10.899   7.123 127.169  0.00  0.00    +0.305 C 
ATOM     26  O   LIG A   1     -12.052   6.871 126.891  0.00  0.00    -0.251 OA
BRANCH  25  27
ATOM     27  O   LIG A   1      -9.883   6.512 126.519  0.00  0.00    -0.481 OA
ATOM     28  H   LIG A   1     -10.229   5.616 126.323  0.00  0.00    +0.295 HD
ENDBRANCH  25  27
ENDBRANCH  24  25
ENDBRANCH  23  24
ENDBRANCH   9  23
TORSDOF 9
ENDMDL
MODEL 5
REMARK VINA RESULT:      -6.4      2.656      3.765
REMARK  Name = NuBBE_1018
REMARK  14 active torsions:
REMARK  status: ('A' for Active; 'I' for Inactive)
REMARK    1  A    between atoms: O_1  and  C_2
REMARK    2  A    between atoms: C_2  and  C_4
REMARK    3  A    between atoms: C_2  and  C_8
REMARK    4  A    between atoms: C_4  and  O_5
REMARK    5  A    between atoms: C_4  and  C_6
REMARK    6  A    between atoms: C_4  and  C_7
REMARK    7  A    between atoms: C_11  and  C_12
REMARK    8  A    between atoms: C_11  and  C_13
REMARK    9  A    between atoms: C_17  and  C_18
REMARK   10  A    between atoms: C_18  and  C_19
REMARK   11  A    between atoms: C_19  and  C_20
REMARK   12  A    between atoms: C_20  and  O_21
REMARK   13  A    between atoms: C_25  and  O_26
REMARK   14  A    between atoms: O_26  and  C_27
REMARK                            x       y       z     vdW  Elec       q    Type
REMARK                         _______ _______ _______ _____ _____    ______ ____
ROOT
ATOM      1  C   LIG A   1      -8.476  -0.158 125.452  0.00  0.00    +0.191 C 
ATOM      2  O   LIG A   1      -8.434  -0.614 126.814  0.00  0.00    -0.329 OA
ATOM      3  C   LIG A   1      -7.755   0.230 127.732  0.00  0.00    +0.207 C 
ATOM      4  C   LIG A   1      -8.662   1.395 128.164  0.00  0.00    +0.089 C 
ATOM      5  C   LIG A   1      -7.472  -0.623 128.974  0.00  0.00    +0.089 C 
ATOM      6  O   LIG A   1      -6.468   0.653 127.264  0.00  0.00    -0.461 OA
ATOM      7  C   LIG A   1      -7.634   1.085 125.220  0.00  0.00    +0.067 A 
ATOM      8  C   LIG A   1      -6.541   1.302 126.062  0.00  0.00    +0.137 A 
ATOM      9  C   LIG A   1      -5.532   2.218 125.740  0.00  0.00    -0.004 A 
ATOM     10  C   LIG A   1      -5.734   3.054 124.639  0.00  0.00    +0.011 A 
ATOM     11  C   LIG A   1      -6.913   2.970 123.892  0.00  0.00    +0.046 A 
ATOM     12  C   LIG A   1      -7.862   1.979 124.166  0.00  0.00    +0.129 A 
ENDROOT
BRANCH  12  13
ATOM     13  O   LIG A   1      -9.056   1.857 123.507  0.00  0.00    -0.495 OA
ATOM     14  C   LIG A   1      -9.147   2.519 122.251  0.00  0.00    +0.277 C 
ENDBRANCH  12  13
BRANCH   1  15
ATOM     15  C   LIG A   1      -7.969  -1.350 124.567  0.00  0.00    +0.179 C 
BRANCH  15  16
ATOM     16  C   LIG A   1      -8.841  -2.651 124.567  0.00  0.00    +0.089 C 
ATOM     17  C   LIG A   1      -9.462  -3.005 123.213  0.00  0.00    +0.044 C 
ATOM     18  C   LIG A   1      -8.102  -3.859 125.156  0.00  0.00    +0.044 C 
BRANCH  16  19
ATOM     19  O   LIG A   1      -9.947  -2.388 125.470  0.00  0.00    -0.387 OA
ATOM     20  H   LIG A   1      -9.903  -3.050 126.184  0.00  0.00    +0.210 HD
ENDBRANCH  16  19
ENDBRANCH  15  16
BRANCH  15  21
ATOM     21  O   LIG A   1      -7.789  -0.957 123.190  0.00  0.00    -0.386 OA
ATOM     22  H   LIG A   1      -7.753   0.020 123.220  0.00  0.00    +0.210 HD
ENDBRANCH  15  21
ENDBRANCH   1  15
BRANCH   9  23
ATOM     23  C   LIG A   1      -4.266   2.326 126.557  0.00  0.00    +0.050 C 
BRANCH  23  24
ATOM     24  C   LIG A   1      -3.385   3.495 126.110  0.00  0.00    +0.125 C 
BRANCH  24  25
ATOM     25  C   LIG A   1      -2.065   3.498 126.830  0.00  0.00    +0.305 C 
ATOM     26  O   LIG A   1      -1.161   2.696 126.729  0.00  0.00    -0.251 OA
BRANCH  25  27
ATOM     27  O   LIG A   1      -1.956   4.561 127.657  0.00  0.00    -0.481 OA
ATOM     28  H   LIG A   1      -1.723   4.167 128.524  0.00  0.00    +0.295 HD
ENDBRANCH  25  27
ENDBRANCH  24  25
ENDBRANCH  23  24
ENDBRANCH   9  23
TORSDOF 9
ENDMDL
MODEL 6
REMARK VINA RESULT:      -6.2      3.046      6.394
REMARK  Name = NuBBE_1018
REMARK  14 active torsions:
REMARK  status: ('A' for Active; 'I' for Inactive)
REMARK    1  A    between atoms: O_1  and  C_2
REMARK    2  A    between atoms: C_2  and  C_4
REMARK    3  A    between atoms: C_2  and  C_8
REMARK    4  A    between atoms: C_4  and  O_5
REMARK    5  A    between atoms: C_4  and  C_6
REMARK    6  A    between atoms: C_4  and  C_7
REMARK    7  A    between atoms: C_11  and  C_12
REMARK    8  A    between atoms: C_11  and  C_13
REMARK    9  A    between atoms: C_17  and  C_18
REMARK   10  A    between atoms: C_18  and  C_19
REMARK   11  A    between atoms: C_19  and  C_20
REMARK   12  A    between atoms: C_20  and  O_21
REMARK   13  A    between atoms: C_25  and  O_26
REMARK   14  A    between atoms: O_26  and  C_27
REMARK                            x       y       z     vdW  Elec       q    Type
REMARK                         _______ _______ _______ _____ _____    ______ ____
ROOT
ATOM      1  C   LIG A   1      -6.340   1.592 126.541  0.00  0.00    +0.191 C 
ATOM      2  O   LIG A   1      -7.389   2.343 125.910  0.00  0.00    -0.329 OA
ATOM      3  C   LIG A   1      -8.276   1.602 125.084  0.00  0.00    +0.207 C 
ATOM      4  C   LIG A   1      -9.327   0.877 125.940  0.00  0.00    +0.089 C 
ATOM      5  C   LIG A   1      -9.012   2.627 124.213  0.00  0.00    +0.089 C 
ATOM      6  O   LIG A   1      -7.598   0.740 124.161  0.00  0.00    -0.461 OA
ATOM      7  C   LIG A   1      -6.283   0.149 126.070  0.00  0.00    +0.067 A 
ATOM      8  C   LIG A   1      -6.764  -0.143 124.792  0.00  0.00    +0.137 A 
ATOM      9  C   LIG A   1      -6.467  -1.350 124.148  0.00  0.00    -0.004 A 
ATOM     10  C   LIG A   1      -5.825  -2.346 124.890  0.00  0.00    +0.011 A 
ATOM     11  C   LIG A   1      -5.499  -2.131 126.232  0.00  0.00    +0.046 A 
ATOM     12  C   LIG A   1      -5.710  -0.882 126.827  0.00  0.00    +0.129 A 
ENDROOT
BRANCH  12  13
ATOM     13  O   LIG A   1      -5.454  -0.606 128.143  0.00  0.00    -0.495 OA
ATOM     14  C   LIG A   1      -4.889  -1.666 128.905  0.00  0.00    +0.277 C 
ENDBRANCH  12  13
BRANCH   1  15
ATOM     15  C   LIG A   1      -4.999   2.339 126.217  0.00  0.00    +0.179 C 
BRANCH  15  16
ATOM     16  C   LIG A   1      -4.815   3.763 126.842  0.00  0.00    +0.089 C 
ATOM     17  C   LIG A   1      -5.409   3.928 128.243  0.00  0.00    +0.044 C 
ATOM     18  C   LIG A   1      -3.358   4.240 126.813  0.00  0.00    +0.044 C 
BRANCH  16  19
ATOM     19  O   LIG A   1      -5.544   4.674 125.977  0.00  0.00    -0.387 OA
ATOM     20  H   LIG A   1      -6.355   4.936 126.450  0.00  0.00    +0.210 HD
ENDBRANCH  16  19
ENDBRANCH  15  16
BRANCH  15  21
ATOM     21  O   LIG A   1      -3.845   1.557 126.589  0.00  0.00    -0.386 OA
ATOM     22  H   LIG A   1      -3.424   2.072 127.306  0.00  0.00    +0.210 HD
ENDBRANCH  15  21
ENDBRANCH   1  15
BRANCH   9  23
ATOM     23  C   LIG A   1      -6.837  -1.594 122.704  0.00  0.00    +0.050 C 
BRANCH  23  24
ATOM     24  C   LIG A   1      -7.994  -2.585 122.561  0.00  0.00    +0.125 C 
BRANCH  24  25
ATOM     25  C   LIG A   1      -9.202  -2.139 123.337  0.00  0.00    +0.305 C 
ATOM     26  O   LIG A   1      -9.694  -2.665 124.312  0.00  0.00    -0.251 OA
BRANCH  25  27
ATOM     27  O   LIG A   1      -9.728  -1.005 122.825  0.00  0.00    -0.481 OA
ATOM     28  H   LIG A   1      -9.783  -1.180 121.862  0.00  0.00    +0.295 HD
ENDBRANCH  25  27
ENDBRANCH  24  25
ENDBRANCH  23  24
ENDBRANCH   9  23
TORSDOF 9
ENDMDL
MODEL 7
REMARK VINA RESULT:      -6.2      3.706      6.868
REMARK  Name = NuBBE_1018
REMARK  14 active torsions:
REMARK  status: ('A' for Active; 'I' for Inactive)
REMARK    1  A    between atoms: O_1  and  C_2
REMARK    2  A    between atoms: C_2  and  C_4
REMARK    3  A    between atoms: C_2  and  C_8
REMARK    4  A    between atoms: C_4  and  O_5
REMARK    5  A    between atoms: C_4  and  C_6
REMARK    6  A    between atoms: C_4  and  C_7
REMARK    7  A    between atoms: C_11  and  C_12
REMARK    8  A    between atoms: C_11  and  C_13
REMARK    9  A    between atoms: C_17  and  C_18
REMARK   10  A    between atoms: C_18  and  C_19
REMARK   11  A    between atoms: C_19  and  C_20
REMARK   12  A    between atoms: C_20  and  O_21
REMARK   13  A    between atoms: C_25  and  O_26
REMARK   14  A    between atoms: O_26  and  C_27
REMARK                            x       y       z     vdW  Elec       q    Type
REMARK                         _______ _______ _______ _____ _____    ______ ____
ROOT
ATOM      1  C   LIG A   1      -6.709  -0.365 128.226  0.00  0.00    +0.191 C 
ATOM      2  O   LIG A   1      -6.667   0.642 127.202  0.00  0.00    -0.329 OA
ATOM      3  C   LIG A   1      -7.497   0.417 126.072  0.00  0.00    +0.207 C 
ATOM      4  C   LIG A   1      -8.949   0.816 126.386  0.00  0.00    +0.089 C 
ATOM      5  C   LIG A   1      -6.986   1.350 124.969  0.00  0.00    +0.089 C 
ATOM      6  O   LIG A   1      -7.372  -0.907 125.536  0.00  0.00    -0.461 OA
ATOM      7  C   LIG A   1      -7.531  -1.578 127.826  0.00  0.00    +0.067 A 
ATOM      8  C   LIG A   1      -7.646  -1.872 126.466  0.00  0.00    +0.137 A 
ATOM      9  C   LIG A   1      -8.095  -3.119 126.014  0.00  0.00    -0.004 A 
ATOM     10  C   LIG A   1      -8.605  -4.012 126.960  0.00  0.00    +0.011 A 
ATOM     11  C   LIG A   1      -8.664  -3.657 128.311  0.00  0.00    +0.046 A 
ATOM     12  C   LIG A   1      -8.117  -2.449 128.755  0.00  0.00    +0.129 A 
ENDROOT
BRANCH  12  13
ATOM     13  O   LIG A   1      -8.170  -2.013 130.052  0.00  0.00    -0.495 OA
ATOM     14  C   LIG A   1      -7.622  -2.890 131.029  0.00  0.00    +0.277 C 
ENDBRANCH  12  13
BRANCH   1  15
ATOM     15  C   LIG A   1      -5.222  -0.769 128.518  0.00  0.00    +0.179 C 
BRANCH  15  16
ATOM     16  C   LIG A   1      -4.629  -0.331 129.900  0.00  0.00    +0.089 C 
ATOM     17  C   LIG A   1      -3.606  -1.303 130.493  0.00  0.00    +0.044 C 
ATOM     18  C   LIG A   1      -4.070   1.097 129.879  0.00  0.00    +0.044 C 
BRANCH  16  19
ATOM     19  O   LIG A   1      -5.750  -0.301 130.822  0.00  0.00    -0.387 OA
ATOM     20  H   LIG A   1      -6.080   0.615 130.848  0.00  0.00    +0.210 HD
ENDBRANCH  16  19
ENDBRANCH  15  16
BRANCH  15  21
ATOM     21  O   LIG A   1      -5.019  -2.193 128.398  0.00  0.00    -0.386 OA
ATOM     22  H   LIG A   1      -5.272  -2.396 127.476  0.00  0.00    +0.210 HD
ENDBRANCH  15  21
ENDBRANCH   1  15
BRANCH   9  23
ATOM     23  C   LIG A   1      -8.053  -3.499 124.552  0.00  0.00    +0.050 C 
BRANCH  23  24
ATOM     24  C   LIG A   1      -9.338  -3.114 123.816  0.00  0.00    +0.125 C 
BRANCH  24  25
ATOM     25  C   LIG A   1      -9.166  -1.841 123.035  0.00  0.00    +0.305 C 
ATOM     26  O   LIG A   1     -10.026  -1.060 122.689  0.00  0.00    -0.251 OA
BRANCH  25  27
ATOM     27  O   LIG A   1      -7.868  -1.615 122.736  0.00  0.00    -0.481 OA
ATOM     28  H   LIG A   1      -7.585  -0.941 123.389  0.00  0.00    +0.295 HD
ENDBRANCH  25  27
ENDBRANCH  24  25
ENDBRANCH  23  24
ENDBRANCH   9  23
TORSDOF 9
ENDMDL
MODEL 8
REMARK VINA RESULT:      -6.2      8.118     11.278
REMARK  Name = NuBBE_1018
REMARK  14 active torsions:
REMARK  status: ('A' for Active; 'I' for Inactive)
REMARK    1  A    between atoms: O_1  and  C_2
REMARK    2  A    between atoms: C_2  and  C_4
REMARK    3  A    between atoms: C_2  and  C_8
REMARK    4  A    between atoms: C_4  and  O_5
REMARK    5  A    between atoms: C_4  and  C_6
REMARK    6  A    between atoms: C_4  and  C_7
REMARK    7  A    between atoms: C_11  and  C_12
REMARK    8  A    between atoms: C_11  and  C_13
REMARK    9  A    between atoms: C_17  and  C_18
REMARK   10  A    between atoms: C_18  and  C_19
REMARK   11  A    between atoms: C_19  and  C_20
REMARK   12  A    between atoms: C_20  and  O_21
REMARK   13  A    between atoms: C_25  and  O_26
REMARK   14  A    between atoms: O_26  and  C_27
REMARK                            x       y       z     vdW  Elec       q    Type
REMARK                         _______ _______ _______ _____ _____    ______ ____
ROOT
ATOM      1  C   LIG A   1      -8.544   5.682 130.678  0.00  0.00    +0.191 C 
ATOM      2  O   LIG A   1      -7.389   6.390 130.202  0.00  0.00    -0.329 OA
ATOM      3  C   LIG A   1      -6.199   6.222 130.960  0.00  0.00    +0.207 C 
ATOM      4  C   LIG A   1      -5.516   4.893 130.599  0.00  0.00    +0.089 C 
ATOM      5  C   LIG A   1      -5.257   7.357 130.541  0.00  0.00    +0.089 C 
ATOM      6  O   LIG A   1      -6.399   6.398 132.369  0.00  0.00    -0.461 OA
ATOM      7  C   LIG A   1      -8.309   5.002 132.016  0.00  0.00    +0.067 A 
ATOM      8  C   LIG A   1      -7.347   5.548 132.868  0.00  0.00    +0.137 A 
ATOM      9  C   LIG A   1      -7.281   5.205 134.224  0.00  0.00    -0.004 A 
ATOM     10  C   LIG A   1      -8.088   4.156 134.673  0.00  0.00    +0.011 A 
ATOM     11  C   LIG A   1      -8.927   3.477 133.786  0.00  0.00    +0.046 A 
ATOM     12  C   LIG A   1      -9.056   3.902 132.459  0.00  0.00    +0.129 A 
ENDROOT
BRANCH  12  13
ATOM     13  O   LIG A   1      -9.825   3.267 131.520  0.00  0.00    -0.495 OA
ATOM     14  C   LIG A   1     -10.065   1.882 131.743  0.00  0.00    +0.277 C 
ENDBRANCH  12  13
BRANCH   1  15
ATOM     15  C   LIG A   1      -9.702   6.736 130.783  0.00  0.00    +0.179 C 
BRANCH  15  16
ATOM     16  C   LIG A   1     -10.882   6.592 129.763  0.00  0.00    +0.089 C 
ATOM     17  C   LIG A   1     -12.212   7.184 130.238  0.00  0.00    +0.044 C 
ATOM     18  C   LIG A   1     -10.525   7.114 128.366  0.00  0.00    +0.044 C 
BRANCH  16  19
ATOM     19  O   LIG A   1     -11.100   5.165 129.607  0.00  0.00    -0.387 OA
ATOM     20  H   LIG A   1     -10.990   4.957 128.661  0.00  0.00    +0.210 HD
ENDBRANCH  16  19
ENDBRANCH  15  16
BRANCH  15  21
ATOM     21  O   LIG A   1     -10.281   6.768 132.105  0.00  0.00    -0.386 OA
ATOM     22  H   LIG A   1     -10.419   5.826 132.331  0.00  0.00    +0.210 HD
ENDBRANCH  15  21
ENDBRANCH   1  15
BRANCH   9  23
ATOM     23  C   LIG A   1      -6.360   5.922 135.183  0.00  0.00    +0.050 C 
BRANCH  23  24
ATOM     24  C   LIG A   1      -6.775   5.728 136.643  0.00  0.00    +0.125 C 
BRANCH  24  25
ATOM     25  C   LIG A   1      -7.515   6.925 137.170  0.00  0.00    +0.305 C 
ATOM     26  O   LIG A   1      -7.068   8.023 137.422  0.00  0.00    -0.251 OA
BRANCH  25  27
ATOM     27  O   LIG A   1      -8.828   6.658 137.343  0.00  0.00    -0.481 OA
ATOM     28  H   LIG A   1      -8.916   6.498 138.306  0.00  0.00    +0.295 HD
ENDBRANCH  25  27
ENDBRANCH  24  25
ENDBRANCH  23  24
ENDBRANCH   9  23
TORSDOF 9
ENDMDL
MODEL 9
REMARK VINA RESULT:      -6.1      5.768      8.797
REMARK  Name = NuBBE_1018
REMARK  14 active torsions:
REMARK  status: ('A' for Active; 'I' for Inactive)
REMARK    1  A    between atoms: O_1  and  C_2
REMARK    2  A    between atoms: C_2  and  C_4
REMARK    3  A    between atoms: C_2  and  C_8
REMARK    4  A    between atoms: C_4  and  O_5
REMARK    5  A    between atoms: C_4  and  C_6
REMARK    6  A    between atoms: C_4  and  C_7
REMARK    7  A    between atoms: C_11  and  C_12
REMARK    8  A    between atoms: C_11  and  C_13
REMARK    9  A    between atoms: C_17  and  C_18
REMARK   10  A    between atoms: C_18  and  C_19
REMARK   11  A    between atoms: C_19  and  C_20
REMARK   12  A    between atoms: C_20  and  O_21
REMARK   13  A    between atoms: C_25  and  O_26
REMARK   14  A    between atoms: O_26  and  C_27
REMARK                            x       y       z     vdW  Elec       q    Type
REMARK                         _______ _______ _______ _____ _____    ______ ____
ROOT
ATOM      1  C   LIG A   1      -8.763   4.458 129.599  0.00  0.00    +0.191 C 
ATOM      2  O   LIG A   1      -8.284   4.266 128.258  0.00  0.00    -0.329 OA
ATOM      3  C   LIG A   1      -6.889   4.040 128.121  0.00  0.00    +0.207 C 
ATOM      4  C   LIG A   1      -6.550   2.573 128.437  0.00  0.00    +0.089 C 
ATOM      5  C   LIG A   1      -6.556   4.286 126.645  0.00  0.00    +0.089 C 
ATOM      6  O   LIG A   1      -6.091   4.980 128.850  0.00  0.00    -0.461 OA
ATOM      7  C   LIG A   1      -7.640   4.540 130.619  0.00  0.00    +0.067 A 
ATOM      8  C   LIG A   1      -6.392   4.991 130.185  0.00  0.00    +0.137 A 
ATOM      9  C   LIG A   1      -5.402   5.406 131.084  0.00  0.00    -0.004 A 
ATOM     10  C   LIG A   1      -5.621   5.184 132.446  0.00  0.00    +0.011 A 
ATOM     11  C   LIG A   1      -6.795   4.563 132.883  0.00  0.00    +0.046 A 
ATOM     12  C   LIG A   1      -7.816   4.251 131.979  0.00  0.00    +0.129 A 
ENDROOT
BRANCH  12  13
ATOM     13  O   LIG A   1      -8.975   3.608 132.323  0.00  0.00    -0.495 OA
ATOM     14  C   LIG A   1      -9.293   3.591 133.710  0.00  0.00    +0.277 C 
ENDBRANCH  12  13
BRANCH   1  15
ATOM     15  C   LIG A   1      -9.605   5.781 129.589  0.00  0.00    +0.179 C 
BRANCH  15  16
ATOM     16  C   LIG A   1     -10.961   5.761 130.373  0.00  0.00    +0.089 C 
ATOM     17  C   LIG A   1     -10.922   6.461 131.734  0.00  0.00    +0.044 C 
ATOM     18  C   LIG A   1     -12.138   6.274 129.535  0.00  0.00    +0.044 C 
BRANCH  16  19
ATOM     19  O   LIG A   1     -11.246   4.362 130.638  0.00  0.00    -0.387 OA
ATOM     20  H   LIG A   1     -10.990   4.184 131.561  0.00  0.00    +0.210 HD
ENDBRANCH  16  19
ENDBRANCH  15  16
BRANCH  15  21
ATOM     21  O   LIG A   1      -8.844   6.906 130.078  0.00  0.00    -0.386 OA
ATOM     22  H   LIG A   1      -7.916   6.677 129.873  0.00  0.00    +0.210 HD
ENDBRANCH  15  21
ENDBRANCH   1  15
BRANCH   9  23
ATOM     23  C   LIG A   1      -4.122   6.058 130.614  0.00  0.00    +0.050 C 
BRANCH  23  24
ATOM     24  C   LIG A   1      -4.064   7.545 130.971  0.00  0.00    +0.125 C 
BRANCH  24  25
ATOM     25  C   LIG A   1      -4.064   8.408 129.740  0.00  0.00    +0.305 C 
ATOM     26  O   LIG A   1      -3.930   9.611 129.675  0.00  0.00    -0.251 OA
BRANCH  25  27
ATOM     27  O   LIG A   1      -4.226   7.670 128.619  0.00  0.00    -0.481 OA
ATOM     28  H   LIG A   1      -5.073   7.199 128.763  0.00  0.00    +0.295 HD
ENDBRANCH  25  27
ENDBRANCH  24  25
ENDBRANCH  23  24
ENDBRANCH   9  23
TORSDOF 9
ENDMDL
