MODEL 1
REMARK VINA RESULT:      -7.4      0.000      0.000
REMARK  Name = NuBBE_1908
REMARK  4 active torsions:
REMARK  status: ('A' for Active; 'I' for Inactive)
REMARK    1  A    between atoms: C_3  and  C_4
REMARK    2  A    between atoms: C_7  and  O_8
REMARK    3  A    between atoms: O_8  and  C_9
REMARK    4  A    between atoms: C_16  and  O_17
REMARK                            x       y       z     vdW  Elec       q    Type
REMARK                         _______ _______ _______ _____ _____    ______ ____
ROOT
ATOM      1  O   LIG A   1      -9.403   6.515 132.656  0.00  0.00    -0.286 OA
ATOM      2  C   LIG A   1      -9.741   5.515 132.029  0.00  0.00    +0.200 A 
ATOM      3  C   LIG A   1     -10.725   5.546 130.900  0.00  0.00    +0.064 A 
ATOM      4  C   LIG A   1     -10.973   4.365 130.307  0.00  0.00    +0.208 A 
ATOM      5  O   LIG A   1     -10.418   3.143 130.609  0.00  0.00    -0.462 OA
ATOM      6  C   LIG A   1      -9.525   3.085 131.645  0.00  0.00    +0.142 A 
ATOM      7  C   LIG A   1      -8.978   1.835 131.948  0.00  0.00    +0.092 A 
ATOM      8  C   LIG A   1      -8.069   1.728 132.997  0.00  0.00    +0.120 A 
ATOM      9  C   LIG A   1      -7.702   2.844 133.743  0.00  0.00    +0.046 A 
ATOM     10  C   LIG A   1      -8.248   4.090 133.437  0.00  0.00    +0.019 A 
ATOM     11  C   LIG A   1      -9.161   4.207 132.381  0.00  0.00    +0.065 A 
ENDROOT
BRANCH   3  12
ATOM     12  C   LIG A   1     -11.409   6.790 130.459  0.00  0.00    -0.011 A 
ATOM     13  C   LIG A   1     -12.503   7.324 131.162  0.00  0.00    +0.012 A 
ATOM     14  C   LIG A   1     -13.146   8.492 130.726  0.00  0.00    +0.046 A 
ATOM     15  C   LIG A   1     -12.727   9.146 129.569  0.00  0.00    +0.120 A 
ATOM     16  C   LIG A   1     -11.649   8.630 128.859  0.00  0.00    +0.046 A 
ATOM     17  C   LIG A   1     -10.996   7.472 129.304  0.00  0.00    +0.012 A 
BRANCH  15  18
ATOM     18  O   LIG A   1     -13.447  10.262 129.239  0.00  0.00    -0.495 OA
ATOM     19  C   LIG A   1     -13.556  11.268 130.240  0.00  0.00    +0.277 C 
ENDBRANCH  15  18
ENDBRANCH   3  12
BRANCH   8  20
ATOM     20  O   LIG A   1      -7.505   0.533 133.331  0.00  0.00    -0.507 OA
ATOM     21  H   LIG A   1      -7.858   0.244 134.189  0.00  0.00    +0.292 HD
ENDBRANCH   8  20
TORSDOF 3
ENDMDL
MODEL 2
REMARK VINA RESULT:      -7.4      0.678      1.864
REMARK  Name = NuBBE_1908
REMARK  4 active torsions:
REMARK  status: ('A' for Active; 'I' for Inactive)
REMARK    1  A    between atoms: C_3  and  C_4
REMARK    2  A    between atoms: C_7  and  O_8
REMARK    3  A    between atoms: O_8  and  C_9
REMARK    4  A    between atoms: C_16  and  O_17
REMARK                            x       y       z     vdW  Elec       q    Type
REMARK                         _______ _______ _______ _____ _____    ______ ____
ROOT
ATOM      1  O   LIG A   1     -11.143   3.952 129.973  0.00  0.00    -0.286 OA
ATOM      2  C   LIG A   1     -10.413   4.355 130.874  0.00  0.00    +0.200 A 
ATOM      3  C   LIG A   1     -10.354   5.788 131.306  0.00  0.00    +0.064 A 
ATOM      4  C   LIG A   1      -9.514   6.059 132.320  0.00  0.00    +0.208 A 
ATOM      5  O   LIG A   1      -8.720   5.173 133.011  0.00  0.00    -0.462 OA
ATOM      6  C   LIG A   1      -8.746   3.859 132.628  0.00  0.00    +0.142 A 
ATOM      7  C   LIG A   1      -7.927   2.972 133.330  0.00  0.00    +0.092 A 
ATOM      8  C   LIG A   1      -7.918   1.626 132.972  0.00  0.00    +0.120 A 
ATOM      9  C   LIG A   1      -8.710   1.158 131.928  0.00  0.00    +0.046 A 
ATOM     10  C   LIG A   1      -9.529   2.046 131.231  0.00  0.00    +0.019 A 
ATOM     11  C   LIG A   1      -9.546   3.400 131.587  0.00  0.00    +0.065 A 
ENDROOT
BRANCH   3  12
ATOM     12  C   LIG A   1     -11.151   6.861 130.655  0.00  0.00    -0.011 A 
ATOM     13  C   LIG A   1     -12.392   7.277 131.167  0.00  0.00    +0.012 A 
ATOM     14  C   LIG A   1     -13.138   8.283 130.535  0.00  0.00    +0.046 A 
ATOM     15  C   LIG A   1     -12.675   8.885 129.366  0.00  0.00    +0.120 A 
ATOM     16  C   LIG A   1     -11.450   8.483 128.843  0.00  0.00    +0.046 A 
ATOM     17  C   LIG A   1     -10.698   7.490 129.486  0.00  0.00    +0.012 A 
BRANCH  15  18
ATOM     18  O   LIG A   1     -13.502   9.837 128.836  0.00  0.00    -0.495 OA
ATOM     19  C   LIG A   1     -13.675  11.026 129.598  0.00  0.00    +0.277 C 
ENDBRANCH  15  18
ENDBRANCH   3  12
BRANCH   8  20
ATOM     20  O   LIG A   1      -7.138   0.721 133.627  0.00  0.00    -0.507 OA
ATOM     21  H   LIG A   1      -6.742   1.145 134.406  0.00  0.00    +0.292 HD
ENDBRANCH   8  20
TORSDOF 3
ENDMDL
MODEL 3
REMARK VINA RESULT:      -7.1      1.273      7.506
REMARK  Name = NuBBE_1908
REMARK  4 active torsions:
REMARK  status: ('A' for Active; 'I' for Inactive)
REMARK    1  A    between atoms: C_3  and  C_4
REMARK    2  A    between atoms: C_7  and  O_8
REMARK    3  A    between atoms: O_8  and  C_9
REMARK    4  A    between atoms: C_16  and  O_17
REMARK                            x       y       z     vdW  Elec       q    Type
REMARK                         _______ _______ _______ _____ _____    ______ ____
ROOT
ATOM      1  O   LIG A   1      -9.512   5.194 129.057  0.00  0.00    -0.286 OA
ATOM      2  C   LIG A   1     -10.261   5.686 129.896  0.00  0.00    +0.200 A 
ATOM      3  C   LIG A   1     -10.381   5.168 131.296  0.00  0.00    +0.064 A 
ATOM      4  C   LIG A   1     -11.236   5.832 132.094  0.00  0.00    +0.208 A 
ATOM      5  O   LIG A   1     -11.995   6.934 131.777  0.00  0.00    -0.462 OA
ATOM      6  C   LIG A   1     -11.912   7.421 130.500  0.00  0.00    +0.142 A 
ATOM      7  C   LIG A   1     -12.696   8.534 130.188  0.00  0.00    +0.092 A 
ATOM      8  C   LIG A   1     -12.648   9.060 128.900  0.00  0.00    +0.120 A 
ATOM      9  C   LIG A   1     -11.833   8.492 127.925  0.00  0.00    +0.046 A 
ATOM     10  C   LIG A   1     -11.049   7.382 128.240  0.00  0.00    +0.019 A 
ATOM     11  C   LIG A   1     -11.090   6.849 129.534  0.00  0.00    +0.065 A 
ENDROOT
BRANCH   3  12
ATOM     12  C   LIG A   1      -9.627   3.984 131.787  0.00  0.00    -0.011 A 
ATOM     13  C   LIG A   1      -9.939   2.680 131.366  0.00  0.00    +0.012 A 
ATOM     14  C   LIG A   1      -9.227   1.572 131.847  0.00  0.00    +0.046 A 
ATOM     15  C   LIG A   1      -8.199   1.734 132.774  0.00  0.00    +0.120 A 
ATOM     16  C   LIG A   1      -7.879   3.017 133.205  0.00  0.00    +0.046 A 
ATOM     17  C   LIG A   1      -8.581   4.125 132.710  0.00  0.00    +0.012 A 
BRANCH  15  18
ATOM     18  O   LIG A   1      -7.595   0.576 133.181  0.00  0.00    -0.495 OA
ATOM     19  C   LIG A   1      -7.180  -0.320 132.156  0.00  0.00    +0.277 C 
ENDBRANCH  15  18
ENDBRANCH   3  12
BRANCH   8  20
ATOM     20  O   LIG A   1     -13.392  10.145 128.545  0.00  0.00    -0.507 OA
ATOM     21  H   LIG A   1     -14.311   9.867 128.398  0.00  0.00    +0.292 HD
ENDBRANCH   8  20
TORSDOF 3
ENDMDL
MODEL 4
REMARK VINA RESULT:      -6.9      1.817      7.396
REMARK  Name = NuBBE_1908
REMARK  4 active torsions:
REMARK  status: ('A' for Active; 'I' for Inactive)
REMARK    1  A    between atoms: C_3  and  C_4
REMARK    2  A    between atoms: C_7  and  O_8
REMARK    3  A    between atoms: O_8  and  C_9
REMARK    4  A    between atoms: C_16  and  O_17
REMARK                            x       y       z     vdW  Elec       q    Type
REMARK                         _______ _______ _______ _____ _____    ______ ____
ROOT
ATOM      1  O   LIG A   1      -8.508   6.508 130.088  0.00  0.00    -0.286 OA
ATOM      2  C   LIG A   1      -9.613   6.571 130.619  0.00  0.00    +0.200 A 
ATOM      3  C   LIG A   1      -9.931   5.930 131.934  0.00  0.00    +0.064 A 
ATOM      4  C   LIG A   1     -11.186   6.108 132.384  0.00  0.00    +0.208 A 
ATOM      5  O   LIG A   1     -12.198   6.821 131.785  0.00  0.00    -0.462 OA
ATOM      6  C   LIG A   1     -11.937   7.407 130.575  0.00  0.00    +0.142 A 
ATOM      7  C   LIG A   1     -12.977   8.119 129.972  0.00  0.00    +0.092 A 
ATOM      8  C   LIG A   1     -12.758   8.727 128.739  0.00  0.00    +0.120 A 
ATOM      9  C   LIG A   1     -11.523   8.635 128.104  0.00  0.00    +0.046 A 
ATOM     10  C   LIG A   1     -10.485   7.926 128.710  0.00  0.00    +0.019 A 
ATOM     11  C   LIG A   1     -10.697   7.314 129.952  0.00  0.00    +0.065 A 
ENDROOT
BRANCH   3  12
ATOM     12  C   LIG A   1      -8.943   5.126 132.702  0.00  0.00    -0.011 A 
ATOM     13  C   LIG A   1      -7.877   5.726 133.394  0.00  0.00    +0.012 A 
ATOM     14  C   LIG A   1      -6.946   4.954 134.103  0.00  0.00    +0.046 A 
ATOM     15  C   LIG A   1      -7.042   3.563 134.124  0.00  0.00    +0.120 A 
ATOM     16  C   LIG A   1      -8.089   2.953 133.442  0.00  0.00    +0.046 A 
ATOM     17  C   LIG A   1      -9.028   3.727 132.748  0.00  0.00    +0.012 A 
BRANCH  15  18
ATOM     18  O   LIG A   1      -6.063   2.924 134.834  0.00  0.00    -0.495 OA
ATOM     19  C   LIG A   1      -5.849   1.551 134.527  0.00  0.00    +0.277 C 
ENDBRANCH  15  18
ENDBRANCH   3  12
BRANCH   8  20
ATOM     20  O   LIG A   1     -13.739   9.433 128.109  0.00  0.00    -0.507 OA
ATOM     21  H   LIG A   1     -14.379   8.814 127.722  0.00  0.00    +0.292 HD
ENDBRANCH   8  20
TORSDOF 3
ENDMDL
MODEL 5
REMARK VINA RESULT:      -6.7      9.712     11.870
REMARK  Name = NuBBE_1908
REMARK  4 active torsions:
REMARK  status: ('A' for Active; 'I' for Inactive)
REMARK    1  A    between atoms: C_3  and  C_4
REMARK    2  A    between atoms: C_7  and  O_8
REMARK    3  A    between atoms: O_8  and  C_9
REMARK    4  A    between atoms: C_16  and  O_17
REMARK                            x       y       z     vdW  Elec       q    Type
REMARK                         _______ _______ _______ _____ _____    ______ ____
ROOT
ATOM      1  O   LIG A   1      -9.053  -3.919 128.431  0.00  0.00    -0.286 OA
ATOM      2  C   LIG A   1      -8.102  -3.339 127.914  0.00  0.00    +0.200 A 
ATOM      3  C   LIG A   1      -6.854  -2.980 128.660  0.00  0.00    +0.064 A 
ATOM      4  C   LIG A   1      -5.900  -2.362 127.941  0.00  0.00    +0.208 A 
ATOM      5  O   LIG A   1      -5.935  -2.039 126.605  0.00  0.00    -0.462 OA
ATOM      6  C   LIG A   1      -7.070  -2.345 125.902  0.00  0.00    +0.142 A 
ATOM      7  C   LIG A   1      -7.097  -2.001 124.549  0.00  0.00    +0.092 A 
ATOM      8  C   LIG A   1      -8.232  -2.290 123.797  0.00  0.00    +0.120 A 
ATOM      9  C   LIG A   1      -9.335  -2.912 124.375  0.00  0.00    +0.046 A 
ATOM     10  C   LIG A   1      -9.304  -3.257 125.726  0.00  0.00    +0.019 A 
ATOM     11  C   LIG A   1      -8.164  -2.973 126.488  0.00  0.00    +0.065 A 
ENDROOT
BRANCH   3  12
ATOM     12  C   LIG A   1      -6.668  -3.263 130.108  0.00  0.00    -0.011 A 
ATOM     13  C   LIG A   1      -5.793  -4.264 130.562  0.00  0.00    +0.012 A 
ATOM     14  C   LIG A   1      -5.637  -4.527 131.930  0.00  0.00    +0.046 A 
ATOM     15  C   LIG A   1      -6.364  -3.811 132.880  0.00  0.00    +0.120 A 
ATOM     16  C   LIG A   1      -7.238  -2.819 132.449  0.00  0.00    +0.046 A 
ATOM     17  C   LIG A   1      -7.379  -2.546 131.082  0.00  0.00    +0.012 A 
BRANCH  15  18
ATOM     18  O   LIG A   1      -6.139  -4.175 134.179  0.00  0.00    -0.495 OA
ATOM     19  C   LIG A   1      -6.380  -5.538 134.511  0.00  0.00    +0.277 C 
ENDBRANCH  15  18
ENDBRANCH   3  12
BRANCH   8  20
ATOM     20  O   LIG A   1      -8.308  -1.976 122.473  0.00  0.00    -0.507 OA
ATOM     21  H   LIG A   1      -7.680  -1.262 122.278  0.00  0.00    +0.292 HD
ENDBRANCH   8  20
TORSDOF 3
ENDMDL
MODEL 6
REMARK VINA RESULT:      -6.7      9.793     11.835
REMARK  Name = NuBBE_1908
REMARK  4 active torsions:
REMARK  status: ('A' for Active; 'I' for Inactive)
REMARK    1  A    between atoms: C_3  and  C_4
REMARK    2  A    between atoms: C_7  and  O_8
REMARK    3  A    between atoms: O_8  and  C_9
REMARK    4  A    between atoms: C_16  and  O_17
REMARK                            x       y       z     vdW  Elec       q    Type
REMARK                         _______ _______ _______ _____ _____    ______ ____
ROOT
ATOM      1  O   LIG A   1      -5.468  -1.997 127.924  0.00  0.00    -0.286 OA
ATOM      2  C   LIG A   1      -6.569  -2.479 127.669  0.00  0.00    +0.200 A 
ATOM      3  C   LIG A   1      -7.394  -3.220 128.675  0.00  0.00    +0.064 A 
ATOM      4  C   LIG A   1      -8.584  -3.670 128.239  0.00  0.00    +0.208 A 
ATOM      5  O   LIG A   1      -9.131  -3.515 126.986  0.00  0.00    -0.462 OA
ATOM      6  C   LIG A   1      -8.391  -2.851 126.044  0.00  0.00    +0.142 A 
ATOM      7  C   LIG A   1      -8.953  -2.709 124.773  0.00  0.00    +0.092 A 
ATOM      8  C   LIG A   1      -8.235  -2.046 123.782  0.00  0.00    +0.120 A 
ATOM      9  C   LIG A   1      -6.970  -1.526 124.042  0.00  0.00    +0.046 A 
ATOM     10  C   LIG A   1      -6.412  -1.666 125.313  0.00  0.00    +0.019 A 
ATOM     11  C   LIG A   1      -7.130  -2.330 126.315  0.00  0.00    +0.065 A 
ENDROOT
BRANCH   3  12
ATOM     12  C   LIG A   1      -6.938  -3.471 130.069  0.00  0.00    -0.011 A 
ATOM     13  C   LIG A   1      -5.970  -4.445 130.368  0.00  0.00    +0.012 A 
ATOM     14  C   LIG A   1      -5.559  -4.678 131.688  0.00  0.00    +0.046 A 
ATOM     15  C   LIG A   1      -6.116  -3.959 132.745  0.00  0.00    +0.120 A 
ATOM     16  C   LIG A   1      -7.077  -2.994 132.467  0.00  0.00    +0.046 A 
ATOM     17  C   LIG A   1      -7.475  -2.750 131.146  0.00  0.00    +0.012 A 
BRANCH  15  18
ATOM     18  O   LIG A   1      -5.646  -4.292 133.985  0.00  0.00    -0.495 OA
ATOM     19  C   LIG A   1      -6.000  -5.581 134.476  0.00  0.00    +0.277 C 
ENDBRANCH  15  18
ENDBRANCH   3  12
BRANCH   8  20
ATOM     20  O   LIG A   1      -8.739  -1.880 122.527  0.00  0.00    -0.507 OA
ATOM     21  H   LIG A   1      -8.587  -0.964 122.241  0.00  0.00    +0.292 HD
ENDBRANCH   8  20
TORSDOF 3
ENDMDL
MODEL 7
REMARK VINA RESULT:      -6.6      3.135      4.012
REMARK  Name = NuBBE_1908
REMARK  4 active torsions:
REMARK  status: ('A' for Active; 'I' for Inactive)
REMARK    1  A    between atoms: C_3  and  C_4
REMARK    2  A    between atoms: C_7  and  O_8
REMARK    3  A    between atoms: O_8  and  C_9
REMARK    4  A    between atoms: C_16  and  O_17
REMARK                            x       y       z     vdW  Elec       q    Type
REMARK                         _______ _______ _______ _____ _____    ______ ____
ROOT
ATOM      1  O   LIG A   1      -6.884   7.359 130.477  0.00  0.00    -0.286 OA
ATOM      2  C   LIG A   1      -7.047   6.678 131.486  0.00  0.00    +0.200 A 
ATOM      3  C   LIG A   1      -8.393   6.235 131.970  0.00  0.00    +0.064 A 
ATOM      4  C   LIG A   1      -8.395   5.479 133.083  0.00  0.00    +0.208 A 
ATOM      5  O   LIG A   1      -7.308   5.058 133.812  0.00  0.00    -0.462 OA
ATOM      6  C   LIG A   1      -6.066   5.460 133.397  0.00  0.00    +0.142 A 
ATOM      7  C   LIG A   1      -4.971   5.034 134.153  0.00  0.00    +0.092 A 
ATOM      8  C   LIG A   1      -3.690   5.422 133.771  0.00  0.00    +0.120 A 
ATOM      9  C   LIG A   1      -3.489   6.225 132.653  0.00  0.00    +0.046 A 
ATOM     10  C   LIG A   1      -4.584   6.646 131.898  0.00  0.00    +0.019 A 
ATOM     11  C   LIG A   1      -5.875   6.258 132.274  0.00  0.00    +0.065 A 
ENDROOT
BRANCH   3  12
ATOM     12  C   LIG A   1      -9.661   6.612 131.290  0.00  0.00    -0.011 A 
ATOM     13  C   LIG A   1      -9.669   7.256 130.041  0.00  0.00    +0.012 A 
ATOM     14  C   LIG A   1     -10.872   7.615 129.418  0.00  0.00    +0.046 A 
ATOM     15  C   LIG A   1     -12.097   7.359 130.032  0.00  0.00    +0.120 A 
ATOM     16  C   LIG A   1     -12.108   6.725 131.270  0.00  0.00    +0.046 A 
ATOM     17  C   LIG A   1     -10.905   6.351 131.884  0.00  0.00    +0.012 A 
BRANCH  15  18
ATOM     18  O   LIG A   1     -13.197   7.775 129.332  0.00  0.00    -0.495 OA
ATOM     19  C   LIG A   1     -13.080   9.013 128.639  0.00  0.00    +0.277 C 
ENDBRANCH  15  18
ENDBRANCH   3  12
BRANCH   8  20
ATOM     20  O   LIG A   1      -2.589   5.032 134.474  0.00  0.00    -0.507 OA
ATOM     21  H   LIG A   1      -2.446   4.081 134.340  0.00  0.00    +0.292 HD
ENDBRANCH   8  20
TORSDOF 3
ENDMDL
MODEL 8
REMARK VINA RESULT:      -6.6      9.337      9.980
REMARK  Name = NuBBE_1908
REMARK  4 active torsions:
REMARK  status: ('A' for Active; 'I' for Inactive)
REMARK    1  A    between atoms: C_3  and  C_4
REMARK    2  A    between atoms: C_7  and  O_8
REMARK    3  A    between atoms: O_8  and  C_9
REMARK    4  A    between atoms: C_16  and  O_17
REMARK                            x       y       z     vdW  Elec       q    Type
REMARK                         _______ _______ _______ _____ _____    ______ ____
ROOT
ATOM      1  O   LIG A   1      -5.224  -1.853 126.795  0.00  0.00    -0.286 OA
ATOM      2  C   LIG A   1      -6.002  -2.376 127.589  0.00  0.00    +0.200 A 
ATOM      3  C   LIG A   1      -7.459  -2.572 127.304  0.00  0.00    +0.064 A 
ATOM      4  C   LIG A   1      -8.168  -3.177 128.274  0.00  0.00    +0.208 A 
ATOM      5  O   LIG A   1      -7.706  -3.647 129.481  0.00  0.00    -0.462 OA
ATOM      6  C   LIG A   1      -6.379  -3.469 129.771  0.00  0.00    +0.142 A 
ATOM      7  C   LIG A   1      -5.926  -3.940 131.006  0.00  0.00    +0.092 A 
ATOM      8  C   LIG A   1      -4.586  -3.777 131.344  0.00  0.00    +0.120 A 
ATOM      9  C   LIG A   1      -3.698  -3.152 130.473  0.00  0.00    +0.046 A 
ATOM     10  C   LIG A   1      -4.153  -2.685 129.240  0.00  0.00    +0.019 A 
ATOM     11  C   LIG A   1      -5.499  -2.848 128.891  0.00  0.00    +0.065 A 
ENDROOT
BRANCH   3  12
ATOM     12  C   LIG A   1      -8.105  -2.117 126.044  0.00  0.00    -0.011 A 
ATOM     13  C   LIG A   1      -8.481  -0.778 125.846  0.00  0.00    +0.012 A 
ATOM     14  C   LIG A   1      -9.100  -0.366 124.658  0.00  0.00    +0.046 A 
ATOM     15  C   LIG A   1      -9.377  -1.283 123.644  0.00  0.00    +0.120 A 
ATOM     16  C   LIG A   1      -9.015  -2.613 123.825  0.00  0.00    +0.046 A 
ATOM     17  C   LIG A   1      -8.381  -3.020 125.007  0.00  0.00    +0.012 A 
BRANCH  15  18
ATOM     18  O   LIG A   1     -10.001  -0.762 122.544  0.00  0.00    -0.495 OA
ATOM     19  C   LIG A   1     -10.168   0.651 122.516  0.00  0.00    +0.277 C 
ENDBRANCH  15  18
ENDBRANCH   3  12
BRANCH   8  20
ATOM     20  O   LIG A   1      -4.093  -4.220 132.536  0.00  0.00    -0.507 OA
ATOM     21  H   LIG A   1      -3.152  -3.987 132.598  0.00  0.00    +0.292 HD
ENDBRANCH   8  20
TORSDOF 3
ENDMDL
MODEL 9
REMARK VINA RESULT:      -6.4      7.938      9.052
REMARK  Name = NuBBE_1908
REMARK  4 active torsions:
REMARK  status: ('A' for Active; 'I' for Inactive)
REMARK    1  A    between atoms: C_3  and  C_4
REMARK    2  A    between atoms: C_7  and  O_8
REMARK    3  A    between atoms: O_8  and  C_9
REMARK    4  A    between atoms: C_16  and  O_17
REMARK                            x       y       z     vdW  Elec       q    Type
REMARK                         _______ _______ _______ _____ _____    ______ ____
ROOT
ATOM      1  O   LIG A   1      -7.985   3.977 125.268  0.00  0.00    -0.286 OA
ATOM      2  C   LIG A   1      -7.766   2.773 125.176  0.00  0.00    +0.200 A 
ATOM      3  C   LIG A   1      -7.433   2.094 123.882  0.00  0.00    +0.064 A 
ATOM      4  C   LIG A   1      -7.205   0.771 123.958  0.00  0.00    +0.208 A 
ATOM      5  O   LIG A   1      -7.226  -0.021 125.082  0.00  0.00    -0.462 OA
ATOM      6  C   LIG A   1      -7.539   0.573 126.276  0.00  0.00    +0.142 A 
ATOM      7  C   LIG A   1      -7.568  -0.244 127.409  0.00  0.00    +0.092 A 
ATOM      8  C   LIG A   1      -7.886   0.316 128.643  0.00  0.00    +0.120 A 
ATOM      9  C   LIG A   1      -8.175   1.672 128.760  0.00  0.00    +0.046 A 
ATOM     10  C   LIG A   1      -8.142   2.487 127.628  0.00  0.00    +0.019 A 
ATOM     11  C   LIG A   1      -7.820   1.931 126.384  0.00  0.00    +0.065 A 
ENDROOT
BRANCH   3  12
ATOM     12  C   LIG A   1      -7.374   2.815 122.583  0.00  0.00    -0.011 A 
ATOM     13  C   LIG A   1      -8.535   3.135 121.859  0.00  0.00    +0.012 A 
ATOM     14  C   LIG A   1      -8.463   3.805 120.630  0.00  0.00    +0.046 A 
ATOM     15  C   LIG A   1      -7.230   4.156 120.081  0.00  0.00    +0.120 A 
ATOM     16  C   LIG A   1      -6.070   3.844 120.782  0.00  0.00    +0.046 A 
ATOM     17  C   LIG A   1      -6.145   3.190 122.020  0.00  0.00    +0.012 A 
BRANCH  15  18
ATOM     18  O   LIG A   1      -7.292   4.787 118.869  0.00  0.00    -0.495 OA
ATOM     19  C   LIG A   1      -6.141   5.527 118.477  0.00  0.00    +0.277 C 
ENDBRANCH  15  18
ENDBRANCH   3  12
BRANCH   8  20
ATOM     20  O   LIG A   1      -7.927  -0.438 129.778  0.00  0.00    -0.507 OA
ATOM     21  H   LIG A   1      -7.019  -0.649 130.052  0.00  0.00    +0.292 HD
ENDBRANCH   8  20
TORSDOF 3
ENDMDL
