MODEL 1
REMARK VINA RESULT:      -8.5      0.000      0.000
REMARK  Name = NuBBE_1040
REMARK  13 active torsions:
REMARK  status: ('A' for Active; 'I' for Inactive)
REMARK    1  A    between atoms: C_5  and  C_6
REMARK    2  A    between atoms: C_15  and  C_16
REMARK    3  A    between atoms: C_17  and  C_33
REMARK    4  A    between atoms: C_20  and  C_21
REMARK    5  A    between atoms: C_21  and  C_23
REMARK    6  A    between atoms: C_21  and  C_24
REMARK    7  A    between atoms: C_24  and  C_25
REMARK    8  A    between atoms: C_25  and  C_26
REMARK    9  A    between atoms: C_27  and  C_28
REMARK   10  A    between atoms: C_27  and  O_29
REMARK   11  A    between atoms: O_29  and  C_30
REMARK   12  A    between atoms: C_35  and  C_36
REMARK   13  A    between atoms: C_35  and  C_37
REMARK                            x       y       z     vdW  Elec       q    Type
REMARK                         _______ _______ _______ _____ _____    ______ ____
ROOT
ATOM      1  O   LIG A   1      -9.983   0.530 124.682  0.00  0.00    -0.297 OA
ATOM      2  C   LIG A   1      -8.802   0.377 125.000  0.00  0.00    +0.139 C 
ATOM      3  C   LIG A   1      -8.465  -0.365 126.278  0.00  0.00    +0.075 C 
ATOM      4  C   LIG A   1      -7.076  -0.041 126.816  0.00  0.00    +0.015 C 
ATOM      5  C   LIG A   1      -6.620   1.396 126.476  0.00  0.00    -0.021 C 
ATOM      6  C   LIG A   1      -7.671   2.397 127.045  0.00  0.00    +0.012 C 
ATOM      7  C   LIG A   1      -6.492   1.522 124.920  0.00  0.00    +0.012 C 
ATOM      8  C   LIG A   1      -6.142   2.983 124.544  0.00  0.00    +0.032 C 
ATOM      9  C   LIG A   1      -5.108   3.613 125.447  0.00  0.00    -0.026 C 
ATOM     10  C   LIG A   1      -4.649   3.064 126.592  0.00  0.00    -0.063 C 
ATOM     11  C   LIG A   1      -5.169   1.688 127.056  0.00  0.00    +0.021 C 
ATOM     12  C   LIG A   1      -5.063   1.373 128.573  0.00  0.00    +0.009 C 
ATOM     13  C   LIG A   1      -3.972   2.120 129.343  0.00  0.00    +0.008 C 
ATOM     14  C   LIG A   1      -3.985   3.616 128.985  0.00  0.00    -0.020 C 
ATOM     15  C   LIG A   1      -5.395   4.218 129.271  0.00  0.00    +0.012 C 
ATOM     16  C   LIG A   1      -3.581   3.727 127.467  0.00  0.00    -0.005 C 
ATOM     17  C   LIG A   1      -3.357   5.247 127.352  0.00  0.00    +0.012 C 
ATOM     18  C   LIG A   1      -2.686   5.652 128.679  0.00  0.00    +0.005 C 
ATOM     19  C   LIG A   1      -2.915   4.499 129.701  0.00  0.00    -0.001 C 
ATOM     20  C   LIG A   1      -2.231   3.049 127.083  0.00  0.00    +0.016 C 
ATOM     21  C   LIG A   1      -7.647   0.834 124.097  0.00  0.00    +0.027 C 
ATOM     22  C   LIG A   1      -7.117  -0.456 123.427  0.00  0.00    +0.019 C 
ATOM     23  C   LIG A   1      -8.208   1.726 122.974  0.00  0.00    +0.019 C 
ENDROOT
BRANCH  19  24
ATOM     24  C   LIG A   1      -3.245   5.038 131.129  0.00  0.00    -0.010 C 
ATOM     25  C   LIG A   1      -2.353   4.446 132.227  0.00  0.00    +0.008 C 
BRANCH  24  26
ATOM     26  C   LIG A   1      -3.232   6.583 131.231  0.00  0.00    +0.008 C 
BRANCH  26  27
ATOM     27  C   LIG A   1      -4.603   7.255 131.124  0.00  0.00    +0.031 C 
BRANCH  27  28
ATOM     28  C   LIG A   1      -5.608   6.509 131.952  0.00  0.00    +0.014 C 
ATOM     29  C   LIG A   1      -6.938   6.553 131.798  0.00  0.00    +0.102 C 
ATOM     30  C   LIG A   1      -7.890   5.789 132.673  0.00  0.00    +0.086 C 
BRANCH  29  31
ATOM     31  O   LIG A   1      -7.545   7.270 130.746  0.00  0.00    -0.433 OA
BRANCH  31  32
ATOM     32  C   LIG A   1      -8.738   6.765 130.354  0.00  0.00    +0.451 C 
ATOM     33  O   LIG A   1      -9.002   6.059 129.396  0.00  0.00    -0.254 OA
ENDBRANCH  31  32
ENDBRANCH  29  31
ENDBRANCH  27  28
ENDBRANCH  26  27
ENDBRANCH  24  26
ENDBRANCH  19  24
TORSDOF 6
ENDMDL
MODEL 2
REMARK VINA RESULT:      -8.3      3.024      4.274
REMARK  Name = NuBBE_1040
REMARK  13 active torsions:
REMARK  status: ('A' for Active; 'I' for Inactive)
REMARK    1  A    between atoms: C_5  and  C_6
REMARK    2  A    between atoms: C_15  and  C_16
REMARK    3  A    between atoms: C_17  and  C_33
REMARK    4  A    between atoms: C_20  and  C_21
REMARK    5  A    between atoms: C_21  and  C_23
REMARK    6  A    between atoms: C_21  and  C_24
REMARK    7  A    between atoms: C_24  and  C_25
REMARK    8  A    between atoms: C_25  and  C_26
REMARK    9  A    between atoms: C_27  and  C_28
REMARK   10  A    between atoms: C_27  and  O_29
REMARK   11  A    between atoms: O_29  and  C_30
REMARK   12  A    between atoms: C_35  and  C_36
REMARK   13  A    between atoms: C_35  and  C_37
REMARK                            x       y       z     vdW  Elec       q    Type
REMARK                         _______ _______ _______ _____ _____    ______ ____
ROOT
ATOM      1  O   LIG A   1      -8.637  -2.985 122.921  0.00  0.00    -0.297 OA
ATOM      2  C   LIG A   1      -8.004  -2.965 123.978  0.00  0.00    +0.139 C 
ATOM      3  C   LIG A   1      -8.625  -3.550 125.230  0.00  0.00    +0.075 C 
ATOM      4  C   LIG A   1      -8.008  -3.014 126.517  0.00  0.00    +0.015 C 
ATOM      5  C   LIG A   1      -7.488  -1.566 126.377  0.00  0.00    -0.021 C 
ATOM      6  C   LIG A   1      -8.670  -0.658 125.921  0.00  0.00    +0.012 C 
ATOM      7  C   LIG A   1      -6.320  -1.556 125.333  0.00  0.00    +0.012 C 
ATOM      8  C   LIG A   1      -5.852  -0.100 125.091  0.00  0.00    +0.032 C 
ATOM      9  C   LIG A   1      -5.754   0.725 126.353  0.00  0.00    -0.026 C 
ATOM     10  C   LIG A   1      -6.201   0.335 127.565  0.00  0.00    -0.063 C 
ATOM     11  C   LIG A   1      -6.855  -1.052 127.741  0.00  0.00    +0.021 C 
ATOM     12  C   LIG A   1      -7.822  -1.223 128.945  0.00  0.00    +0.009 C 
ATOM     13  C   LIG A   1      -7.593  -0.286 130.133  0.00  0.00    +0.008 C 
ATOM     14  C   LIG A   1      -7.400   1.161 129.650  0.00  0.00    -0.020 C 
ATOM     15  C   LIG A   1      -8.632   1.608 128.804  0.00  0.00    +0.012 C 
ATOM     16  C   LIG A   1      -6.060   1.194 128.824  0.00  0.00    -0.005 C 
ATOM     17  C   LIG A   1      -5.865   2.715 128.675  0.00  0.00    +0.012 C 
ATOM     18  C   LIG A   1      -6.315   3.309 130.024  0.00  0.00    +0.005 C 
ATOM     19  C   LIG A   1      -7.154   2.226 130.766  0.00  0.00    -0.001 C 
ATOM     20  C   LIG A   1      -4.801   0.657 129.571  0.00  0.00    +0.016 C 
ATOM     21  C   LIG A   1      -6.560  -2.447 124.055  0.00  0.00    +0.027 C 
ATOM     22  C   LIG A   1      -5.674  -3.713 124.125  0.00  0.00    +0.019 C 
ATOM     23  C   LIG A   1      -6.212  -1.727 122.738  0.00  0.00    +0.019 C 
ENDROOT
BRANCH  19  24
ATOM     24  C   LIG A   1      -8.399   2.838 131.484  0.00  0.00    -0.010 C 
ATOM     25  C   LIG A   1      -8.453   2.526 132.984  0.00  0.00    +0.008 C 
BRANCH  24  26
ATOM     26  C   LIG A   1      -8.556   4.363 131.268  0.00  0.00    +0.008 C 
BRANCH  26  27
ATOM     27  C   LIG A   1      -9.681   4.775 130.316  0.00  0.00    +0.031 C 
BRANCH  27  28
ATOM     28  C   LIG A   1     -10.622   5.717 131.009  0.00  0.00    +0.014 C 
ATOM     29  C   LIG A   1     -11.752   6.217 130.493  0.00  0.00    +0.102 C 
ATOM     30  C   LIG A   1     -12.643   7.170 131.238  0.00  0.00    +0.086 C 
BRANCH  29  31
ATOM     31  O   LIG A   1     -12.232   5.826 129.225  0.00  0.00    -0.433 OA
BRANCH  31  32
ATOM     32  C   LIG A   1     -12.154   6.796 128.285  0.00  0.00    +0.451 C 
ATOM     33  O   LIG A   1     -12.455   6.756 127.105  0.00  0.00    -0.254 OA
ENDBRANCH  31  32
ENDBRANCH  29  31
ENDBRANCH  27  28
ENDBRANCH  26  27
ENDBRANCH  24  26
ENDBRANCH  19  24
TORSDOF 6
ENDMDL
MODEL 3
REMARK VINA RESULT:      -8.3      3.745      7.090
REMARK  Name = NuBBE_1040
REMARK  13 active torsions:
REMARK  status: ('A' for Active; 'I' for Inactive)
REMARK    1  A    between atoms: C_5  and  C_6
REMARK    2  A    between atoms: C_15  and  C_16
REMARK    3  A    between atoms: C_17  and  C_33
REMARK    4  A    between atoms: C_20  and  C_21
REMARK    5  A    between atoms: C_21  and  C_23
REMARK    6  A    between atoms: C_21  and  C_24
REMARK    7  A    between atoms: C_24  and  C_25
REMARK    8  A    between atoms: C_25  and  C_26
REMARK    9  A    between atoms: C_27  and  C_28
REMARK   10  A    between atoms: C_27  and  O_29
REMARK   11  A    between atoms: O_29  and  C_30
REMARK   12  A    between atoms: C_35  and  C_36
REMARK   13  A    between atoms: C_35  and  C_37
REMARK                            x       y       z     vdW  Elec       q    Type
REMARK                         _______ _______ _______ _____ _____    ______ ____
ROOT
ATOM      1  O   LIG A   1      -3.382  -3.421 132.056  0.00  0.00    -0.297 OA
ATOM      2  C   LIG A   1      -4.000  -3.595 131.003  0.00  0.00    +0.139 C 
ATOM      3  C   LIG A   1      -3.238  -3.667 129.695  0.00  0.00    +0.075 C 
ATOM      4  C   LIG A   1      -4.101  -3.359 128.476  0.00  0.00    +0.015 C 
ATOM      5  C   LIG A   1      -5.246  -2.369 128.785  0.00  0.00    -0.021 C 
ATOM      6  C   LIG A   1      -4.625  -1.057 129.357  0.00  0.00    +0.012 C 
ATOM      7  C   LIG A   1      -6.220  -3.038 129.813  0.00  0.00    +0.012 C 
ATOM      8  C   LIG A   1      -7.317  -2.025 130.224  0.00  0.00    +0.032 C 
ATOM      9  C   LIG A   1      -7.864  -1.219 129.069  0.00  0.00    -0.026 C 
ATOM     10  C   LIG A   1      -7.347  -1.211 127.823  0.00  0.00    -0.063 C 
ATOM     11  C   LIG A   1      -6.117  -2.079 127.487  0.00  0.00    +0.021 C 
ATOM     12  C   LIG A   1      -5.249  -1.629 126.280  0.00  0.00    +0.009 C 
ATOM     13  C   LIG A   1      -5.961  -0.797 125.211  0.00  0.00    +0.008 C 
ATOM     14  C   LIG A   1      -6.801   0.314 125.862  0.00  0.00    -0.020 C 
ATOM     15  C   LIG A   1      -5.895   1.206 126.765  0.00  0.00    +0.012 C 
ATOM     16  C   LIG A   1      -7.948  -0.395 126.675  0.00  0.00    -0.005 C 
ATOM     17  C   LIG A   1      -8.842   0.815 127.004  0.00  0.00    +0.012 C 
ATOM     18  C   LIG A   1      -8.802   1.696 125.739  0.00  0.00    +0.005 C 
ATOM     19  C   LIG A   1      -7.585   1.241 124.880  0.00  0.00    -0.001 C 
ATOM     20  C   LIG A   1      -8.829  -1.389 125.859  0.00  0.00    +0.016 C 
ATOM     21  C   LIG A   1      -5.517  -3.835 130.977  0.00  0.00    +0.027 C 
ATOM     22  C   LIG A   1      -5.686  -5.355 130.748  0.00  0.00    +0.019 C 
ATOM     23  C   LIG A   1      -6.101  -3.522 132.368  0.00  0.00    +0.019 C 
ENDROOT
BRANCH  19  24
ATOM     24  C   LIG A   1      -6.827   2.454 124.251  0.00  0.00    -0.010 C 
ATOM     25  C   LIG A   1      -6.750   2.398 122.720  0.00  0.00    +0.008 C 
BRANCH  24  26
ATOM     26  C   LIG A   1      -7.379   3.831 124.690  0.00  0.00    +0.008 C 
BRANCH  26  27
ATOM     27  C   LIG A   1      -6.318   4.885 125.018  0.00  0.00    +0.031 C 
BRANCH  27  28
ATOM     28  C   LIG A   1      -5.054   4.217 125.476  0.00  0.00    +0.014 C 
ATOM     29  C   LIG A   1      -4.281   4.616 126.494  0.00  0.00    +0.102 C 
ATOM     30  C   LIG A   1      -3.017   3.907 126.891  0.00  0.00    +0.086 C 
BRANCH  29  31
ATOM     31  O   LIG A   1      -4.638   5.701 127.322  0.00  0.00    -0.433 OA
BRANCH  31  32
ATOM     32  C   LIG A   1      -3.602   6.222 128.021  0.00  0.00    +0.451 C 
ATOM     33  O   LIG A   1      -3.419   7.367 128.393  0.00  0.00    -0.254 OA
ENDBRANCH  31  32
ENDBRANCH  29  31
ENDBRANCH  27  28
ENDBRANCH  26  27
ENDBRANCH  24  26
ENDBRANCH  19  24
TORSDOF 6
ENDMDL
MODEL 4
REMARK VINA RESULT:      -7.8      3.806      6.271
REMARK  Name = NuBBE_1040
REMARK  13 active torsions:
REMARK  status: ('A' for Active; 'I' for Inactive)
REMARK    1  A    between atoms: C_5  and  C_6
REMARK    2  A    between atoms: C_15  and  C_16
REMARK    3  A    between atoms: C_17  and  C_33
REMARK    4  A    between atoms: C_20  and  C_21
REMARK    5  A    between atoms: C_21  and  C_23
REMARK    6  A    between atoms: C_21  and  C_24
REMARK    7  A    between atoms: C_24  and  C_25
REMARK    8  A    between atoms: C_25  and  C_26
REMARK    9  A    between atoms: C_27  and  C_28
REMARK   10  A    between atoms: C_27  and  O_29
REMARK   11  A    between atoms: O_29  and  C_30
REMARK   12  A    between atoms: C_35  and  C_36
REMARK   13  A    between atoms: C_35  and  C_37
REMARK                            x       y       z     vdW  Elec       q    Type
REMARK                         _______ _______ _______ _____ _____    ______ ____
ROOT
ATOM      1  O   LIG A   1      -3.020  -3.414 129.387  0.00  0.00    -0.297 OA
ATOM      2  C   LIG A   1      -4.214  -3.111 129.440  0.00  0.00    +0.139 C 
ATOM      3  C   LIG A   1      -4.902  -2.577 128.200  0.00  0.00    +0.075 C 
ATOM      4  C   LIG A   1      -6.161  -1.773 128.507  0.00  0.00    +0.015 C 
ATOM      5  C   LIG A   1      -6.093  -1.046 129.869  0.00  0.00    -0.021 C 
ATOM      6  C   LIG A   1      -4.840  -0.117 129.871  0.00  0.00    +0.012 C 
ATOM      7  C   LIG A   1      -6.011  -2.122 131.004  0.00  0.00    +0.012 C 
ATOM      8  C   LIG A   1      -5.831  -1.420 132.373  0.00  0.00    +0.032 C 
ATOM      9  C   LIG A   1      -6.695  -0.193 132.546  0.00  0.00    -0.026 C 
ATOM     10  C   LIG A   1      -7.423   0.381 131.565  0.00  0.00    -0.063 C 
ATOM     11  C   LIG A   1      -7.424  -0.223 130.145  0.00  0.00    +0.021 C 
ATOM     12  C   LIG A   1      -7.782   0.735 128.976  0.00  0.00    +0.009 C 
ATOM     13  C   LIG A   1      -8.649   1.944 129.335  0.00  0.00    +0.008 C 
ATOM     14  C   LIG A   1      -8.118   2.631 130.604  0.00  0.00    -0.020 C 
ATOM     15  C   LIG A   1      -6.627   3.042 130.400  0.00  0.00    +0.012 C 
ATOM     16  C   LIG A   1      -8.305   1.612 131.789  0.00  0.00    -0.005 C 
ATOM     17  C   LIG A   1      -8.014   2.532 132.991  0.00  0.00    +0.012 C 
ATOM     18  C   LIG A   1      -8.653   3.885 132.621  0.00  0.00    +0.005 C 
ATOM     19  C   LIG A   1      -8.915   3.885 131.085  0.00  0.00    -0.001 C 
ATOM     20  C   LIG A   1      -9.753   1.072 131.984  0.00  0.00    +0.016 C 
ATOM     21  C   LIG A   1      -5.060  -3.341 130.701  0.00  0.00    +0.027 C 
ATOM     22  C   LIG A   1      -5.905  -4.603 130.401  0.00  0.00    +0.019 C 
ATOM     23  C   LIG A   1      -4.128  -3.693 131.876  0.00  0.00    +0.019 C 
ENDROOT
BRANCH  19  24
ATOM     24  C   LIG A   1      -8.579   5.264 130.433  0.00  0.00    -0.010 C 
ATOM     25  C   LIG A   1      -9.730   5.843 129.603  0.00  0.00    +0.008 C 
BRANCH  24  26
ATOM     26  C   LIG A   1      -8.084   6.328 131.443  0.00  0.00    +0.008 C 
BRANCH  26  27
ATOM     27  C   LIG A   1      -6.863   7.135 130.996  0.00  0.00    +0.031 C 
BRANCH  27  28
ATOM     28  C   LIG A   1      -5.603   6.435 131.416  0.00  0.00    +0.014 C 
ATOM     29  C   LIG A   1      -4.587   6.100 130.610  0.00  0.00    +0.102 C 
ATOM     30  C   LIG A   1      -3.357   5.387 131.095  0.00  0.00    +0.086 C 
BRANCH  29  31
ATOM     31  O   LIG A   1      -4.565   6.460 129.246  0.00  0.00    -0.433 OA
BRANCH  31  32
ATOM     32  C   LIG A   1      -3.525   7.257 128.906  0.00  0.00    +0.451 C 
ATOM     33  O   LIG A   1      -2.712   7.126 128.007  0.00  0.00    -0.254 OA
ENDBRANCH  31  32
ENDBRANCH  29  31
ENDBRANCH  27  28
ENDBRANCH  26  27
ENDBRANCH  24  26
ENDBRANCH  19  24
TORSDOF 6
ENDMDL
MODEL 5
REMARK VINA RESULT:      -7.7      2.306      4.544
REMARK  Name = NuBBE_1040
REMARK  13 active torsions:
REMARK  status: ('A' for Active; 'I' for Inactive)
REMARK    1  A    between atoms: C_5  and  C_6
REMARK    2  A    between atoms: C_15  and  C_16
REMARK    3  A    between atoms: C_17  and  C_33
REMARK    4  A    between atoms: C_20  and  C_21
REMARK    5  A    between atoms: C_21  and  C_23
REMARK    6  A    between atoms: C_21  and  C_24
REMARK    7  A    between atoms: C_24  and  C_25
REMARK    8  A    between atoms: C_25  and  C_26
REMARK    9  A    between atoms: C_27  and  C_28
REMARK   10  A    between atoms: C_27  and  O_29
REMARK   11  A    between atoms: O_29  and  C_30
REMARK   12  A    between atoms: C_35  and  C_36
REMARK   13  A    between atoms: C_35  and  C_37
REMARK                            x       y       z     vdW  Elec       q    Type
REMARK                         _______ _______ _______ _____ _____    ______ ____
ROOT
ATOM      1  O   LIG A   1      -7.258  -1.875 122.302  0.00  0.00    -0.297 OA
ATOM      2  C   LIG A   1      -7.871  -1.607 123.338  0.00  0.00    +0.139 C 
ATOM      3  C   LIG A   1      -8.684  -0.331 123.411  0.00  0.00    +0.075 C 
ATOM      4  C   LIG A   1      -8.945   0.138 124.839  0.00  0.00    +0.015 C 
ATOM      5  C   LIG A   1      -7.813  -0.252 125.815  0.00  0.00    -0.021 C 
ATOM      6  C   LIG A   1      -6.473   0.342 125.284  0.00  0.00    +0.012 C 
ATOM      7  C   LIG A   1      -7.751  -1.815 125.906  0.00  0.00    +0.012 C 
ATOM      8  C   LIG A   1      -6.554  -2.237 126.793  0.00  0.00    +0.032 C 
ATOM      9  C   LIG A   1      -6.392  -1.394 128.036  0.00  0.00    -0.026 C 
ATOM     10  C   LIG A   1      -7.077  -0.260 128.293  0.00  0.00    -0.063 C 
ATOM     11  C   LIG A   1      -8.128   0.256 127.288  0.00  0.00    +0.021 C 
ATOM     12  C   LIG A   1      -8.456   1.773 127.334  0.00  0.00    +0.009 C 
ATOM     13  C   LIG A   1      -8.209   2.477 128.670  0.00  0.00    +0.008 C 
ATOM     14  C   LIG A   1      -6.835   2.088 129.240  0.00  0.00    -0.020 C 
ATOM     15  C   LIG A   1      -5.717   2.425 128.206  0.00  0.00    +0.012 C 
ATOM     16  C   LIG A   1      -6.898   0.552 129.579  0.00  0.00    -0.005 C 
ATOM     17  C   LIG A   1      -5.596   0.395 130.388  0.00  0.00    +0.012 C 
ATOM     18  C   LIG A   1      -5.493   1.682 131.229  0.00  0.00    +0.005 C 
ATOM     19  C   LIG A   1      -6.456   2.737 130.608  0.00  0.00    -0.001 C 
ATOM     20  C   LIG A   1      -8.061   0.123 130.522  0.00  0.00    +0.016 C 
ATOM     21  C   LIG A   1      -7.918  -2.570 124.533  0.00  0.00    +0.027 C 
ATOM     22  C   LIG A   1      -9.313  -3.236 124.467  0.00  0.00    +0.019 C 
ATOM     23  C   LIG A   1      -6.877  -3.686 124.322  0.00  0.00    +0.019 C 
ENDROOT
BRANCH  19  24
ATOM     24  C   LIG A   1      -5.827   4.167 130.593  0.00  0.00    -0.010 C 
ATOM     25  C   LIG A   1      -6.864   5.291 130.704  0.00  0.00    +0.008 C 
BRANCH  24  26
ATOM     26  C   LIG A   1      -4.724   4.375 131.659  0.00  0.00    +0.008 C 
BRANCH  26  27
ATOM     27  C   LIG A   1      -3.364   4.818 131.114  0.00  0.00    +0.031 C 
BRANCH  27  28
ATOM     28  C   LIG A   1      -3.111   4.176 129.781  0.00  0.00    +0.014 C 
ATOM     29  C   LIG A   1      -2.680   4.802 128.678  0.00  0.00    +0.102 C 
ATOM     30  C   LIG A   1      -2.460   4.099 127.369  0.00  0.00    +0.086 C 
BRANCH  29  31
ATOM     31  O   LIG A   1      -2.327   6.168 128.685  0.00  0.00    -0.433 OA
BRANCH  31  32
ATOM     32  C   LIG A   1      -3.304   6.989 128.232  0.00  0.00    +0.451 C 
ATOM     33  O   LIG A   1      -4.182   7.561 128.853  0.00  0.00    -0.254 OA
ENDBRANCH  31  32
ENDBRANCH  29  31
ENDBRANCH  27  28
ENDBRANCH  26  27
ENDBRANCH  24  26
ENDBRANCH  19  24
TORSDOF 6
ENDMDL
MODEL 6
REMARK VINA RESULT:      -7.7      4.048      8.568
REMARK  Name = NuBBE_1040
REMARK  13 active torsions:
REMARK  status: ('A' for Active; 'I' for Inactive)
REMARK    1  A    between atoms: C_5  and  C_6
REMARK    2  A    between atoms: C_15  and  C_16
REMARK    3  A    between atoms: C_17  and  C_33
REMARK    4  A    between atoms: C_20  and  C_21
REMARK    5  A    between atoms: C_21  and  C_23
REMARK    6  A    between atoms: C_21  and  C_24
REMARK    7  A    between atoms: C_24  and  C_25
REMARK    8  A    between atoms: C_25  and  C_26
REMARK    9  A    between atoms: C_27  and  C_28
REMARK   10  A    between atoms: C_27  and  O_29
REMARK   11  A    between atoms: O_29  and  C_30
REMARK   12  A    between atoms: C_35  and  C_36
REMARK   13  A    between atoms: C_35  and  C_37
REMARK                            x       y       z     vdW  Elec       q    Type
REMARK                         _______ _______ _______ _____ _____    ______ ____
ROOT
ATOM      1  O   LIG A   1      -4.030   2.276 133.775  0.00  0.00    -0.297 OA
ATOM      2  C   LIG A   1      -4.345   1.153 133.373  0.00  0.00    +0.139 C 
ATOM      3  C   LIG A   1      -3.276   0.237 132.812  0.00  0.00    +0.075 C 
ATOM      4  C   LIG A   1      -3.832  -0.851 131.901  0.00  0.00    +0.015 C 
ATOM      5  C   LIG A   1      -5.110  -0.413 131.151  0.00  0.00    -0.021 C 
ATOM      6  C   LIG A   1      -4.786   0.872 130.329  0.00  0.00    +0.012 C 
ATOM      7  C   LIG A   1      -6.239  -0.150 132.205  0.00  0.00    +0.012 C 
ATOM      8  C   LIG A   1      -7.499   0.396 131.490  0.00  0.00    +0.032 C 
ATOM      9  C   LIG A   1      -7.817  -0.309 130.192  0.00  0.00    -0.026 C 
ATOM     10  C   LIG A   1      -7.008  -1.200 129.582  0.00  0.00    -0.063 C 
ATOM     11  C   LIG A   1      -5.652  -1.578 130.215  0.00  0.00    +0.021 C 
ATOM     12  C   LIG A   1      -4.559  -2.125 129.257  0.00  0.00    +0.009 C 
ATOM     13  C   LIG A   1      -5.059  -2.791 127.973  0.00  0.00    +0.008 C 
ATOM     14  C   LIG A   1      -6.142  -1.928 127.304  0.00  0.00    -0.020 C 
ATOM     15  C   LIG A   1      -5.584  -0.499 127.023  0.00  0.00    +0.012 C 
ATOM     16  C   LIG A   1      -7.379  -1.910 128.277  0.00  0.00    -0.005 C 
ATOM     17  C   LIG A   1      -8.443  -1.279 127.359  0.00  0.00    +0.012 C 
ATOM     18  C   LIG A   1      -8.175  -1.883 125.966  0.00  0.00    +0.005 C 
ATOM     19  C   LIG A   1      -6.743  -2.495 125.979  0.00  0.00    -0.001 C 
ATOM     20  C   LIG A   1      -7.924  -3.310 128.692  0.00  0.00    +0.016 C 
ATOM     21  C   LIG A   1      -5.775   0.609 133.505  0.00  0.00    +0.027 C 
ATOM     22  C   LIG A   1      -5.730  -0.374 134.699  0.00  0.00    +0.019 C 
ATOM     23  C   LIG A   1      -6.717   1.760 133.907  0.00  0.00    +0.019 C 
ENDROOT
BRANCH  19  24
ATOM     24  C   LIG A   1      -5.975  -2.217 124.647  0.00  0.00    -0.010 C 
ATOM     25  C   LIG A   1      -5.067  -3.374 124.213  0.00  0.00    +0.008 C 
BRANCH  24  26
ATOM     26  C   LIG A   1      -6.895  -1.813 123.469  0.00  0.00    +0.008 C 
BRANCH  26  27
ATOM     27  C   LIG A   1      -6.681  -0.396 122.930  0.00  0.00    +0.031 C 
BRANCH  27  28
ATOM     28  C   LIG A   1      -7.002   0.612 123.995  0.00  0.00    +0.014 C 
ATOM     29  C   LIG A   1      -7.984   1.523 123.941  0.00  0.00    +0.102 C 
ATOM     30  C   LIG A   1      -8.242   2.514 125.039  0.00  0.00    +0.086 C 
BRANCH  29  31
ATOM     31  O   LIG A   1      -8.901   1.570 122.870  0.00  0.00    -0.433 OA
BRANCH  31  32
ATOM     32  C   LIG A   1     -10.117   1.056 123.166  0.00  0.00    +0.451 C 
ATOM     33  O   LIG A   1     -10.814   0.295 122.518  0.00  0.00    -0.254 OA
ENDBRANCH  31  32
ENDBRANCH  29  31
ENDBRANCH  27  28
ENDBRANCH  26  27
ENDBRANCH  24  26
ENDBRANCH  19  24
TORSDOF 6
ENDMDL
MODEL 7
REMARK VINA RESULT:      -7.7      5.003      7.284
REMARK  Name = NuBBE_1040
REMARK  13 active torsions:
REMARK  status: ('A' for Active; 'I' for Inactive)
REMARK    1  A    between atoms: C_5  and  C_6
REMARK    2  A    between atoms: C_15  and  C_16
REMARK    3  A    between atoms: C_17  and  C_33
REMARK    4  A    between atoms: C_20  and  C_21
REMARK    5  A    between atoms: C_21  and  C_23
REMARK    6  A    between atoms: C_21  and  C_24
REMARK    7  A    between atoms: C_24  and  C_25
REMARK    8  A    between atoms: C_25  and  C_26
REMARK    9  A    between atoms: C_27  and  C_28
REMARK   10  A    between atoms: C_27  and  O_29
REMARK   11  A    between atoms: O_29  and  C_30
REMARK   12  A    between atoms: C_35  and  C_36
REMARK   13  A    between atoms: C_35  and  C_37
REMARK                            x       y       z     vdW  Elec       q    Type
REMARK                         _______ _______ _______ _____ _____    ______ ____
ROOT
ATOM      1  O   LIG A   1      -6.285  -5.407 133.973  0.00  0.00    -0.297 OA
ATOM      2  C   LIG A   1      -5.815  -4.310 133.665  0.00  0.00    +0.139 C 
ATOM      3  C   LIG A   1      -5.724  -3.218 134.712  0.00  0.00    +0.075 C 
ATOM      4  C   LIG A   1      -5.634  -1.817 134.118  0.00  0.00    +0.015 C 
ATOM      5  C   LIG A   1      -6.367  -1.690 132.764  0.00  0.00    -0.021 C 
ATOM      6  C   LIG A   1      -7.857  -2.100 132.967  0.00  0.00    +0.012 C 
ATOM      7  C   LIG A   1      -5.653  -2.619 131.723  0.00  0.00    +0.012 C 
ATOM      8  C   LIG A   1      -6.434  -2.596 130.386  0.00  0.00    +0.032 C 
ATOM      9  C   LIG A   1      -6.906  -1.220 129.981  0.00  0.00    -0.026 C 
ATOM     10  C   LIG A   1      -6.845  -0.123 130.765  0.00  0.00    -0.063 C 
ATOM     11  C   LIG A   1      -6.246  -0.216 132.184  0.00  0.00    +0.021 C 
ATOM     12  C   LIG A   1      -6.697   0.862 133.207  0.00  0.00    +0.009 C 
ATOM     13  C   LIG A   1      -7.169   2.194 132.620  0.00  0.00    +0.008 C 
ATOM     14  C   LIG A   1      -8.140   1.956 131.452  0.00  0.00    -0.020 C 
ATOM     15  C   LIG A   1      -9.344   1.088 131.931  0.00  0.00    +0.012 C 
ATOM     16  C   LIG A   1      -7.315   1.260 130.305  0.00  0.00    -0.005 C 
ATOM     17  C   LIG A   1      -8.320   1.361 129.143  0.00  0.00    +0.012 C 
ATOM     18  C   LIG A   1      -8.983   2.742 129.308  0.00  0.00    +0.005 C 
ATOM     19  C   LIG A   1      -8.699   3.238 130.757  0.00  0.00    -0.001 C 
ATOM     20  C   LIG A   1      -6.032   2.019 129.850  0.00  0.00    +0.016 C 
ATOM     21  C   LIG A   1      -5.228  -4.034 132.273  0.00  0.00    +0.027 C 
ATOM     22  C   LIG A   1      -3.693  -4.084 132.459  0.00  0.00    +0.019 C 
ATOM     23  C   LIG A   1      -5.604  -5.192 131.329  0.00  0.00    +0.019 C 
ENDROOT
BRANCH  19  24
ATOM     24  C   LIG A   1      -9.944   3.934 131.394  0.00  0.00    -0.010 C 
ATOM     25  C   LIG A   1      -9.582   5.009 132.425  0.00  0.00    +0.008 C 
BRANCH  24  26
ATOM     26  C   LIG A   1     -10.928   4.525 130.355  0.00  0.00    +0.008 C 
BRANCH  26  27
ATOM     27  C   LIG A   1     -11.410   5.948 130.648  0.00  0.00    +0.031 C 
BRANCH  27  28
ATOM     28  C   LIG A   1     -12.472   6.344 129.664  0.00  0.00    +0.014 C 
ATOM     29  C   LIG A   1     -12.279   7.062 128.550  0.00  0.00    +0.102 C 
ATOM     30  C   LIG A   1     -13.392   7.436 127.613  0.00  0.00    +0.086 C 
BRANCH  29  31
ATOM     31  O   LIG A   1     -10.992   7.462 128.132  0.00  0.00    -0.433 OA
BRANCH  31  32
ATOM     32  C   LIG A   1     -10.790   7.355 126.798  0.00  0.00    +0.451 C 
ATOM     33  O   LIG A   1     -10.148   6.527 126.177  0.00  0.00    -0.254 OA
ENDBRANCH  31  32
ENDBRANCH  29  31
ENDBRANCH  27  28
ENDBRANCH  26  27
ENDBRANCH  24  26
ENDBRANCH  19  24
TORSDOF 6
ENDMDL
MODEL 8
REMARK VINA RESULT:      -7.6      4.079      7.939
REMARK  Name = NuBBE_1040
REMARK  13 active torsions:
REMARK  status: ('A' for Active; 'I' for Inactive)
REMARK    1  A    between atoms: C_5  and  C_6
REMARK    2  A    between atoms: C_15  and  C_16
REMARK    3  A    between atoms: C_17  and  C_33
REMARK    4  A    between atoms: C_20  and  C_21
REMARK    5  A    between atoms: C_21  and  C_23
REMARK    6  A    between atoms: C_21  and  C_24
REMARK    7  A    between atoms: C_24  and  C_25
REMARK    8  A    between atoms: C_25  and  C_26
REMARK    9  A    between atoms: C_27  and  C_28
REMARK   10  A    between atoms: C_27  and  O_29
REMARK   11  A    between atoms: O_29  and  C_30
REMARK   12  A    between atoms: C_35  and  C_36
REMARK   13  A    between atoms: C_35  and  C_37
REMARK                            x       y       z     vdW  Elec       q    Type
REMARK                         _______ _______ _______ _____ _____    ______ ____
ROOT
ATOM      1  O   LIG A   1      -5.661  -1.444 132.768  0.00  0.00    -0.297 OA
ATOM      2  C   LIG A   1      -5.416  -1.957 131.674  0.00  0.00    +0.139 C 
ATOM      3  C   LIG A   1      -4.361  -1.338 130.781  0.00  0.00    +0.075 C 
ATOM      4  C   LIG A   1      -4.516  -1.717 129.312  0.00  0.00    +0.015 C 
ATOM      5  C   LIG A   1      -5.986  -1.969 128.908  0.00  0.00    -0.021 C 
ATOM      6  C   LIG A   1      -6.814  -0.688 129.230  0.00  0.00    +0.012 C 
ATOM      7  C   LIG A   1      -6.515  -3.210 129.704  0.00  0.00    +0.012 C 
ATOM      8  C   LIG A   1      -8.019  -3.418 129.401  0.00  0.00    +0.032 C 
ATOM      9  C   LIG A   1      -8.377  -3.238 127.945  0.00  0.00    -0.026 C 
ATOM     10  C   LIG A   1      -7.542  -2.757 127.000  0.00  0.00    -0.063 C 
ATOM     11  C   LIG A   1      -6.098  -2.359 127.371  0.00  0.00    +0.021 C 
ATOM     12  C   LIG A   1      -5.394  -1.329 126.445  0.00  0.00    +0.009 C 
ATOM     13  C   LIG A   1      -5.900  -1.263 125.003  0.00  0.00    +0.008 C 
ATOM     14  C   LIG A   1      -7.437  -1.229 124.970  0.00  0.00    -0.020 C 
ATOM     15  C   LIG A   1      -7.959  -0.023 125.810  0.00  0.00    +0.012 C 
ATOM     16  C   LIG A   1      -7.939  -2.613 125.529  0.00  0.00    -0.005 C 
ATOM     17  C   LIG A   1      -9.432  -2.534 125.160  0.00  0.00    +0.012 C 
ATOM     18  C   LIG A   1      -9.467  -1.852 123.778  0.00  0.00    +0.005 C 
ATOM     19  C   LIG A   1      -8.088  -1.163 123.552  0.00  0.00    -0.001 C 
ATOM     20  C   LIG A   1      -7.370  -3.871 124.806  0.00  0.00    +0.016 C 
ATOM     21  C   LIG A   1      -6.081  -3.265 131.218  0.00  0.00    +0.027 C 
ATOM     22  C   LIG A   1      -5.006  -4.360 131.416  0.00  0.00    +0.019 C 
ATOM     23  C   LIG A   1      -7.243  -3.599 132.173  0.00  0.00    +0.019 C 
ENDROOT
BRANCH  19  24
ATOM     24  C   LIG A   1      -8.237   0.238 122.877  0.00  0.00    -0.010 C 
ATOM     25  C   LIG A   1      -9.542   0.955 123.242  0.00  0.00    +0.008 C 
BRANCH  24  26
ATOM     26  C   LIG A   1      -7.039   1.184 123.132  0.00  0.00    +0.008 C 
BRANCH  26  27
ATOM     27  C   LIG A   1      -7.252   2.638 122.702  0.00  0.00    +0.031 C 
BRANCH  27  28
ATOM     28  C   LIG A   1      -6.377   3.547 123.515  0.00  0.00    +0.014 C 
ATOM     29  C   LIG A   1      -6.728   4.160 124.654  0.00  0.00    +0.102 C 
ATOM     30  C   LIG A   1      -5.805   5.071 125.412  0.00  0.00    +0.086 C 
BRANCH  29  31
ATOM     31  O   LIG A   1      -7.977   3.935 125.270  0.00  0.00    -0.433 OA
BRANCH  31  32
ATOM     32  C   LIG A   1      -8.342   4.904 126.141  0.00  0.00    +0.451 C 
ATOM     33  O   LIG A   1      -9.110   5.837 125.983  0.00  0.00    -0.254 OA
ENDBRANCH  31  32
ENDBRANCH  29  31
ENDBRANCH  27  28
ENDBRANCH  26  27
ENDBRANCH  24  26
ENDBRANCH  19  24
TORSDOF 6
ENDMDL
MODEL 9
REMARK VINA RESULT:      -7.5      3.765      5.036
REMARK  Name = NuBBE_1040
REMARK  13 active torsions:
REMARK  status: ('A' for Active; 'I' for Inactive)
REMARK    1  A    between atoms: C_5  and  C_6
REMARK    2  A    between atoms: C_15  and  C_16
REMARK    3  A    between atoms: C_17  and  C_33
REMARK    4  A    between atoms: C_20  and  C_21
REMARK    5  A    between atoms: C_21  and  C_23
REMARK    6  A    between atoms: C_21  and  C_24
REMARK    7  A    between atoms: C_24  and  C_25
REMARK    8  A    between atoms: C_25  and  C_26
REMARK    9  A    between atoms: C_27  and  C_28
REMARK   10  A    between atoms: C_27  and  O_29
REMARK   11  A    between atoms: O_29  and  C_30
REMARK   12  A    between atoms: C_35  and  C_36
REMARK   13  A    between atoms: C_35  and  C_37
REMARK                            x       y       z     vdW  Elec       q    Type
REMARK                         _______ _______ _______ _____ _____    ______ ____
ROOT
ATOM      1  O   LIG A   1      -9.403  -1.435 124.013  0.00  0.00    -0.297 OA
ATOM      2  C   LIG A   1      -8.833  -2.151 124.839  0.00  0.00    +0.139 C 
ATOM      3  C   LIG A   1      -9.645  -2.831 125.922  0.00  0.00    +0.075 C 
ATOM      4  C   LIG A   1      -8.816  -3.230 127.138  0.00  0.00    +0.015 C 
ATOM      5  C   LIG A   1      -7.620  -2.285 127.386  0.00  0.00    -0.021 C 
ATOM      6  C   LIG A   1      -8.162  -0.832 127.551  0.00  0.00    +0.012 C 
ATOM      7  C   LIG A   1      -6.637  -2.396 126.171  0.00  0.00    +0.012 C 
ATOM      8  C   LIG A   1      -5.483  -1.378 126.342  0.00  0.00    +0.032 C 
ATOM      9  C   LIG A   1      -4.946  -1.297 127.751  0.00  0.00    -0.026 C 
ATOM     10  C   LIG A   1      -5.509  -1.890 128.825  0.00  0.00    -0.063 C 
ATOM     11  C   LIG A   1      -6.787  -2.739 128.661  0.00  0.00    +0.021 C 
ATOM     12  C   LIG A   1      -7.679  -2.913 129.921  0.00  0.00    +0.009 C 
ATOM     13  C   LIG A   1      -6.973  -2.776 131.272  0.00  0.00    +0.008 C 
ATOM     14  C   LIG A   1      -6.062  -1.537 131.282  0.00  0.00    -0.020 C 
ATOM     15  C   LIG A   1      -6.896  -0.263 130.945  0.00  0.00    +0.012 C 
ATOM     16  C   LIG A   1      -4.917  -1.801 130.234  0.00  0.00    -0.005 C 
ATOM     17  C   LIG A   1      -3.961  -0.642 130.573  0.00  0.00    +0.012 C 
ATOM     18  C   LIG A   1      -4.011  -0.521 132.109  0.00  0.00    +0.005 C 
ATOM     19  C   LIG A   1      -5.277  -1.279 132.607  0.00  0.00    -0.001 C 
ATOM     20  C   LIG A   1      -4.111  -3.118 130.444  0.00  0.00    +0.016 C 
ATOM     21  C   LIG A   1      -7.330  -2.455 124.757  0.00  0.00    +0.027 C 
ATOM     22  C   LIG A   1      -7.234  -3.890 124.186  0.00  0.00    +0.019 C 
ATOM     23  C   LIG A   1      -6.681  -1.516 123.722  0.00  0.00    +0.019 C 
ENDROOT
BRANCH  19  24
ATOM     24  C   LIG A   1      -6.007  -0.510 133.755  0.00  0.00    -0.010 C 
ATOM     25  C   LIG A   1      -6.296  -1.380 134.984  0.00  0.00    +0.008 C 
BRANCH  24  26
ATOM     26  C   LIG A   1      -5.282   0.784 134.197  0.00  0.00    +0.008 C 
BRANCH  26  27
ATOM     27  C   LIG A   1      -5.721   2.058 133.472  0.00  0.00    +0.031 C 
BRANCH  27  28
ATOM     28  C   LIG A   1      -7.137   2.396 133.837  0.00  0.00    +0.014 C 
ATOM     29  C   LIG A   1      -7.802   3.497 133.461  0.00  0.00    +0.102 C 
ATOM     30  C   LIG A   1      -9.218   3.780 133.875  0.00  0.00    +0.086 C 
BRANCH  29  31
ATOM     31  O   LIG A   1      -7.240   4.445 132.581  0.00  0.00    -0.433 OA
BRANCH  31  32
ATOM     32  C   LIG A   1      -7.683   4.341 131.306  0.00  0.00    +0.451 C 
ATOM     33  O   LIG A   1      -8.023   3.350 130.684  0.00  0.00    -0.254 OA
ENDBRANCH  31  32
ENDBRANCH  29  31
ENDBRANCH  27  28
ENDBRANCH  26  27
ENDBRANCH  24  26
ENDBRANCH  19  24
TORSDOF 6
ENDMDL
