MODEL 1
REMARK VINA RESULT:      -6.3      0.000      0.000
REMARK  Name = NuBBE_1947
REMARK  6 active torsions:
REMARK  status: ('A' for Active; 'I' for Inactive)
REMARK    1  A    between atoms: C_1  and  C_2
REMARK    2  A    between atoms: C_9  and  C_18
REMARK    3  A    between atoms: C_9  and  C_20
REMARK    4  A    between atoms: C_13  and  C_16
REMARK    5  A    between atoms: C_13  and  O_17
REMARK    6  A    between atoms: C_18  and  O_19
REMARK                            x       y       z     vdW  Elec       q    Type
REMARK                         _______ _______ _______ _____ _____    ______ ____
ROOT
ATOM      1  C   LIG A   1      -8.649  -3.195 128.964  0.00  0.00    +0.008 C 
ATOM      2  C   LIG A   1      -7.463  -3.166 128.012  0.00  0.00    -0.008 C 
ATOM      3  C   LIG A   1      -7.763  -2.933 126.522  0.00  0.00    -0.023 C 
ATOM      4  C   LIG A   1      -6.316  -2.682 126.050  0.00  0.00    +0.004 C 
ATOM      5  C   LIG A   1      -5.851  -1.568 126.959  0.00  0.00    +0.005 C 
ATOM      6  C   LIG A   1      -6.456  -2.011 128.323  0.00  0.00    +0.004 C 
ATOM      7  C   LIG A   1      -6.313  -2.744 124.507  0.00  0.00    -0.000 C 
ATOM      8  C   LIG A   1      -7.745  -3.368 124.208  0.00  0.00    +0.029 C 
ATOM      9  C   LIG A   1      -8.111  -4.064 125.570  0.00  0.00    +0.014 C 
ATOM     10  C   LIG A   1      -8.890  -2.385 123.844  0.00  0.00    +0.067 C 
ATOM     11  C   LIG A   1      -9.068  -1.299 124.912  0.00  0.00    +0.035 C 
ATOM     12  C   LIG A   1      -8.818  -1.799 126.337  0.00  0.00    +0.010 C 
ATOM     13  C   LIG A   1      -8.763  -1.771 122.447  0.00  0.00    +0.041 C 
ATOM     14  C   LIG A   1      -5.906  -1.414 123.869  0.00  0.00    +0.014 C 
ENDROOT
BRANCH  10  15
ATOM     15  O   LIG A   1     -10.104  -3.160 123.759  0.00  0.00    -0.389 OA
ATOM     16  H   LIG A   1     -10.666  -2.792 123.056  0.00  0.00    +0.210 HD
ENDBRANCH  10  15
BRANCH   7  17
ATOM     17  C   LIG A   1      -5.235  -3.787 124.059  0.00  0.00    +0.163 C 
BRANCH  17  18
ATOM     18  O   LIG A   1      -4.174  -3.179 123.331  0.00  0.00    -0.394 OA
ATOM     19  H   LIG A   1      -4.487  -2.322 123.000  0.00  0.00    +0.209 HD
ENDBRANCH  17  18
ENDBRANCH   7  17
TORSDOF 3
ENDMDL
MODEL 2
REMARK VINA RESULT:      -6.3      1.666      4.188
REMARK  Name = NuBBE_1947
REMARK  6 active torsions:
REMARK  status: ('A' for Active; 'I' for Inactive)
REMARK    1  A    between atoms: C_1  and  C_2
REMARK    2  A    between atoms: C_9  and  C_18
REMARK    3  A    between atoms: C_9  and  C_20
REMARK    4  A    between atoms: C_13  and  C_16
REMARK    5  A    between atoms: C_13  and  O_17
REMARK    6  A    between atoms: C_18  and  O_19
REMARK                            x       y       z     vdW  Elec       q    Type
REMARK                         _______ _______ _______ _____ _____    ______ ____
ROOT
ATOM      1  C   LIG A   1      -6.335   1.847 125.300  0.00  0.00    +0.008 C 
ATOM      2  C   LIG A   1      -7.386   0.791 124.994  0.00  0.00    -0.008 C 
ATOM      3  C   LIG A   1      -6.885  -0.612 124.613  0.00  0.00    -0.023 C 
ATOM      4  C   LIG A   1      -8.233  -1.354 124.708  0.00  0.00    +0.004 C 
ATOM      5  C   LIG A   1      -8.704  -1.022 126.105  0.00  0.00    +0.005 C 
ATOM      6  C   LIG A   1      -8.316   0.481 126.213  0.00  0.00    +0.004 C 
ATOM      7  C   LIG A   1      -8.051  -2.737 124.046  0.00  0.00    -0.000 C 
ATOM      8  C   LIG A   1      -6.655  -2.556 123.306  0.00  0.00    +0.029 C 
ATOM      9  C   LIG A   1      -6.525  -0.993 123.188  0.00  0.00    +0.014 C 
ATOM     10  C   LIG A   1      -5.389  -3.094 124.027  0.00  0.00    +0.067 C 
ATOM     11  C   LIG A   1      -5.248  -2.511 125.437  0.00  0.00    +0.035 C 
ATOM     12  C   LIG A   1      -5.717  -1.058 125.546  0.00  0.00    +0.010 C 
ATOM     13  C   LIG A   1      -5.287  -4.622 124.047  0.00  0.00    +0.041 C 
ATOM     14  C   LIG A   1      -8.254  -3.889 125.032  0.00  0.00    +0.014 C 
ENDROOT
BRANCH  10  15
ATOM     15  O   LIG A   1      -4.249  -2.694 123.239  0.00  0.00    -0.389 OA
ATOM     16  H   LIG A   1      -3.767  -1.994 123.712  0.00  0.00    +0.210 HD
ENDBRANCH  10  15
BRANCH   7  17
ATOM     17  C   LIG A   1      -9.154  -2.905 122.949  0.00  0.00    +0.163 C 
BRANCH  17  18
ATOM     18  O   LIG A   1     -10.282  -3.626 123.432  0.00  0.00    -0.394 OA
ATOM     19  H   LIG A   1      -9.959  -4.391 123.936  0.00  0.00    +0.209 HD
ENDBRANCH  17  18
ENDBRANCH   7  17
TORSDOF 3
ENDMDL
MODEL 3
REMARK VINA RESULT:      -6.2      1.110      1.377
REMARK  Name = NuBBE_1947
REMARK  6 active torsions:
REMARK  status: ('A' for Active; 'I' for Inactive)
REMARK    1  A    between atoms: C_1  and  C_2
REMARK    2  A    between atoms: C_9  and  C_18
REMARK    3  A    between atoms: C_9  and  C_20
REMARK    4  A    between atoms: C_13  and  C_16
REMARK    5  A    between atoms: C_13  and  O_17
REMARK    6  A    between atoms: C_18  and  O_19
REMARK                            x       y       z     vdW  Elec       q    Type
REMARK                         _______ _______ _______ _____ _____    ______ ____
ROOT
ATOM      1  C   LIG A   1      -7.242  -0.791 129.020  0.00  0.00    +0.008 C 
ATOM      2  C   LIG A   1      -6.381  -1.253 127.854  0.00  0.00    -0.008 C 
ATOM      3  C   LIG A   1      -7.110  -1.737 126.589  0.00  0.00    -0.023 C 
ATOM      4  C   LIG A   1      -5.891  -1.786 125.646  0.00  0.00    +0.004 C 
ATOM      5  C   LIG A   1      -5.318  -0.393 125.759  0.00  0.00    +0.005 C 
ATOM      6  C   LIG A   1      -5.463  -0.122 127.284  0.00  0.00    +0.004 C 
ATOM      7  C   LIG A   1      -6.313  -2.565 124.381  0.00  0.00    -0.000 C 
ATOM      8  C   LIG A   1      -7.692  -3.207 124.845  0.00  0.00    +0.029 C 
ATOM      9  C   LIG A   1      -7.581  -3.170 126.414  0.00  0.00    +0.014 C 
ATOM     10  C   LIG A   1      -8.996  -2.472 124.434  0.00  0.00    +0.067 C 
ATOM     11  C   LIG A   1      -8.989  -1.007 124.885  0.00  0.00    +0.035 C 
ATOM     12  C   LIG A   1      -8.295  -0.787 126.232  0.00  0.00    +0.010 C 
ATOM     13  C   LIG A   1      -9.335  -2.591 122.946  0.00  0.00    +0.041 C 
ATOM     14  C   LIG A   1      -6.253  -1.706 123.117  0.00  0.00    +0.014 C 
ENDROOT
BRANCH  10  15
ATOM     15  O   LIG A   1     -10.091  -3.155 125.081  0.00  0.00    -0.389 OA
ATOM     16  H   LIG A   1     -10.907  -2.647 124.942  0.00  0.00    +0.210 HD
ENDBRANCH  10  15
BRANCH   7  17
ATOM     17  C   LIG A   1      -5.294  -3.733 124.161  0.00  0.00    +0.163 C 
BRANCH  17  18
ATOM     18  O   LIG A   1      -4.165  -3.319 123.399  0.00  0.00    -0.394 OA
ATOM     19  H   LIG A   1      -3.787  -2.531 123.823  0.00  0.00    +0.209 HD
ENDBRANCH  17  18
ENDBRANCH   7  17
TORSDOF 3
ENDMDL
MODEL 4
REMARK VINA RESULT:      -6.2      2.381      4.067
REMARK  Name = NuBBE_1947
REMARK  6 active torsions:
REMARK  status: ('A' for Active; 'I' for Inactive)
REMARK    1  A    between atoms: C_1  and  C_2
REMARK    2  A    between atoms: C_9  and  C_18
REMARK    3  A    between atoms: C_9  and  C_20
REMARK    4  A    between atoms: C_13  and  C_16
REMARK    5  A    between atoms: C_13  and  O_17
REMARK    6  A    between atoms: C_18  and  O_19
REMARK                            x       y       z     vdW  Elec       q    Type
REMARK                         _______ _______ _______ _____ _____    ______ ____
ROOT
ATOM      1  C   LIG A   1      -8.899  -3.782 127.478  0.00  0.00    +0.008 C 
ATOM      2  C   LIG A   1      -9.004  -3.123 126.111  0.00  0.00    -0.008 C 
ATOM      3  C   LIG A   1      -8.319  -1.759 125.932  0.00  0.00    -0.023 C 
ATOM      4  C   LIG A   1      -8.424  -1.667 124.396  0.00  0.00    +0.004 C 
ATOM      5  C   LIG A   1      -7.783  -2.954 123.934  0.00  0.00    +0.005 C 
ATOM      6  C   LIG A   1      -8.344  -3.969 124.972  0.00  0.00    +0.004 C 
ATOM      7  C   LIG A   1      -8.090  -0.214 123.993  0.00  0.00    -0.000 C 
ATOM      8  C   LIG A   1      -8.134   0.527 125.400  0.00  0.00    +0.029 C 
ATOM      9  C   LIG A   1      -9.002  -0.448 126.278  0.00  0.00    +0.014 C 
ATOM     10  C   LIG A   1      -6.782   0.760 126.127  0.00  0.00    +0.067 C 
ATOM     11  C   LIG A   1      -6.005  -0.548 126.313  0.00  0.00    +0.035 C 
ATOM     12  C   LIG A   1      -6.902  -1.758 126.586  0.00  0.00    +0.010 C 
ATOM     13  C   LIG A   1      -5.906   1.837 125.483  0.00  0.00    +0.041 C 
ATOM     14  C   LIG A   1      -6.840  -0.123 123.116  0.00  0.00    +0.014 C 
ENDROOT
BRANCH  10  15
ATOM     15  O   LIG A   1      -7.088   1.310 127.425  0.00  0.00    -0.389 OA
ATOM     16  H   LIG A   1      -7.645   0.681 127.913  0.00  0.00    +0.210 HD
ENDBRANCH  10  15
BRANCH   7  17
ATOM     17  C   LIG A   1      -9.270   0.339 123.126  0.00  0.00    +0.163 C 
BRANCH  17  18
ATOM     18  O   LIG A   1     -10.182  -0.687 122.749  0.00  0.00    -0.394 OA
ATOM     19  H   LIG A   1     -10.423  -0.551 121.818  0.00  0.00    +0.209 HD
ENDBRANCH  17  18
ENDBRANCH   7  17
TORSDOF 3
ENDMDL
MODEL 5
REMARK VINA RESULT:      -6.0      8.987     10.793
REMARK  Name = NuBBE_1947
REMARK  6 active torsions:
REMARK  status: ('A' for Active; 'I' for Inactive)
REMARK    1  A    between atoms: C_1  and  C_2
REMARK    2  A    between atoms: C_9  and  C_18
REMARK    3  A    between atoms: C_9  and  C_20
REMARK    4  A    between atoms: C_13  and  C_16
REMARK    5  A    between atoms: C_13  and  O_17
REMARK    6  A    between atoms: C_18  and  O_19
REMARK                            x       y       z     vdW  Elec       q    Type
REMARK                         _______ _______ _______ _____ _____    ______ ____
ROOT
ATOM      1  C   LIG A   1     -10.935   8.123 128.336  0.00  0.00    +0.008 C 
ATOM      2  C   LIG A   1     -11.152   6.926 129.248  0.00  0.00    -0.008 C 
ATOM      3  C   LIG A   1      -9.902   6.262 129.848  0.00  0.00    -0.023 C 
ATOM      4  C   LIG A   1     -10.611   5.366 130.884  0.00  0.00    +0.004 C 
ATOM      5  C   LIG A   1     -11.451   6.350 131.664  0.00  0.00    +0.005 C 
ATOM      6  C   LIG A   1     -11.979   7.275 130.529  0.00  0.00    +0.004 C 
ATOM      7  C   LIG A   1      -9.577   4.344 131.402  0.00  0.00    -0.000 C 
ATOM      8  C   LIG A   1      -8.394   4.526 130.354  0.00  0.00    +0.029 C 
ATOM      9  C   LIG A   1      -9.120   5.181 129.123  0.00  0.00    +0.014 C 
ATOM     10  C   LIG A   1      -7.211   5.445 130.764  0.00  0.00    +0.067 C 
ATOM     11  C   LIG A   1      -7.693   6.842 131.172  0.00  0.00    +0.035 C 
ATOM     12  C   LIG A   1      -8.891   7.337 130.356  0.00  0.00    +0.010 C 
ATOM     13  C   LIG A   1      -6.296   4.842 131.833  0.00  0.00    +0.041 C 
ATOM     14  C   LIG A   1      -9.305   4.495 132.900  0.00  0.00    +0.014 C 
ENDROOT
BRANCH  10  15
ATOM     15  O   LIG A   1      -6.348   5.565 129.615  0.00  0.00    -0.389 OA
ATOM     16  H   LIG A   1      -5.813   6.371 129.703  0.00  0.00    +0.210 HD
ENDBRANCH  10  15
BRANCH   7  17
ATOM     17  C   LIG A   1     -10.166   2.907 131.210  0.00  0.00    +0.163 C 
BRANCH  17  18
ATOM     18  O   LIG A   1     -10.164   2.163 132.424  0.00  0.00    -0.394 OA
ATOM     19  H   LIG A   1     -10.918   2.457 132.961  0.00  0.00    +0.209 HD
ENDBRANCH  17  18
ENDBRANCH   7  17
TORSDOF 3
ENDMDL
MODEL 6
REMARK VINA RESULT:      -5.9      1.495      3.611
REMARK  Name = NuBBE_1947
REMARK  6 active torsions:
REMARK  status: ('A' for Active; 'I' for Inactive)
REMARK    1  A    between atoms: C_1  and  C_2
REMARK    2  A    between atoms: C_9  and  C_18
REMARK    3  A    between atoms: C_9  and  C_20
REMARK    4  A    between atoms: C_13  and  C_16
REMARK    5  A    between atoms: C_13  and  O_17
REMARK    6  A    between atoms: C_18  and  O_19
REMARK                            x       y       z     vdW  Elec       q    Type
REMARK                         _______ _______ _______ _____ _____    ______ ____
ROOT
ATOM      1  C   LIG A   1      -7.495  -1.422 130.226  0.00  0.00    +0.008 C 
ATOM      2  C   LIG A   1      -8.267  -1.961 129.032  0.00  0.00    -0.008 C 
ATOM      3  C   LIG A   1      -7.557  -1.946 127.669  0.00  0.00    -0.023 C 
ATOM      4  C   LIG A   1      -8.558  -2.830 126.897  0.00  0.00    +0.004 C 
ATOM      5  C   LIG A   1      -8.636  -4.076 127.747  0.00  0.00    +0.005 C 
ATOM      6  C   LIG A   1      -8.649  -3.471 129.181  0.00  0.00    +0.004 C 
ATOM      7  C   LIG A   1      -8.232  -2.697 125.393  0.00  0.00    -0.000 C 
ATOM      8  C   LIG A   1      -7.241  -1.453 125.389  0.00  0.00    +0.029 C 
ATOM      9  C   LIG A   1      -7.577  -0.738 126.749  0.00  0.00    +0.014 C 
ATOM     10  C   LIG A   1      -5.718  -1.753 125.361  0.00  0.00    +0.067 C 
ATOM     11  C   LIG A   1      -5.301  -2.677 126.511  0.00  0.00    +0.035 C 
ATOM     12  C   LIG A   1      -6.081  -2.431 127.805  0.00  0.00    +0.010 C 
ATOM     13  C   LIG A   1      -5.212  -2.280 124.016  0.00  0.00    +0.041 C 
ATOM     14  C   LIG A   1      -7.800  -4.025 124.768  0.00  0.00    +0.014 C 
ENDROOT
BRANCH  10  15
ATOM     15  O   LIG A   1      -5.034  -0.490 125.505  0.00  0.00    -0.389 OA
ATOM     16  H   LIG A   1      -5.664   0.176 125.825  0.00  0.00    +0.210 HD
ENDBRANCH  10  15
BRANCH   7  17
ATOM     17  C   LIG A   1      -9.538  -2.270 124.643  0.00  0.00    +0.163 C 
BRANCH  17  18
ATOM     18  O   LIG A   1     -10.027  -3.301 123.793  0.00  0.00    -0.394 OA
ATOM     19  H   LIG A   1     -10.996  -3.311 123.855  0.00  0.00    +0.209 HD
ENDBRANCH  17  18
ENDBRANCH   7  17
TORSDOF 3
ENDMDL
MODEL 7
REMARK VINA RESULT:      -5.7      2.129      3.383
REMARK  Name = NuBBE_1947
REMARK  6 active torsions:
REMARK  status: ('A' for Active; 'I' for Inactive)
REMARK    1  A    between atoms: C_1  and  C_2
REMARK    2  A    between atoms: C_9  and  C_18
REMARK    3  A    between atoms: C_9  and  C_20
REMARK    4  A    between atoms: C_13  and  C_16
REMARK    5  A    between atoms: C_13  and  O_17
REMARK    6  A    between atoms: C_18  and  O_19
REMARK                            x       y       z     vdW  Elec       q    Type
REMARK                         _______ _______ _______ _____ _____    ______ ____
ROOT
ATOM      1  C   LIG A   1      -5.509  -0.314 127.939  0.00  0.00    +0.008 C 
ATOM      2  C   LIG A   1      -6.139  -1.348 127.018  0.00  0.00    -0.008 C 
ATOM      3  C   LIG A   1      -7.178  -0.846 126.003  0.00  0.00    -0.023 C 
ATOM      4  C   LIG A   1      -7.275  -2.124 125.146  0.00  0.00    +0.004 C 
ATOM      5  C   LIG A   1      -5.837  -2.384 124.761  0.00  0.00    +0.005 C 
ATOM      6  C   LIG A   1      -5.098  -2.057 126.091  0.00  0.00    +0.004 C 
ATOM      7  C   LIG A   1      -8.515  -1.982 124.237  0.00  0.00    -0.000 C 
ATOM      8  C   LIG A   1      -9.250  -0.732 124.890  0.00  0.00    +0.029 C 
ATOM      9  C   LIG A   1      -8.651  -0.699 126.344  0.00  0.00    +0.014 C 
ATOM     10  C   LIG A   1      -9.013   0.657 124.237  0.00  0.00    +0.067 C 
ATOM     11  C   LIG A   1      -7.520   0.991 124.139  0.00  0.00    +0.035 C 
ATOM     12  C   LIG A   1      -6.700   0.476 125.325  0.00  0.00    +0.010 C 
ATOM     13  C   LIG A   1      -9.709   0.835 122.885  0.00  0.00    +0.041 C 
ATOM     14  C   LIG A   1      -8.153  -1.970 122.750  0.00  0.00    +0.014 C 
ENDROOT
BRANCH  10  15
ATOM     15  O   LIG A   1      -9.658   1.637 125.077  0.00  0.00    -0.389 OA
ATOM     16  H   LIG A   1      -9.484   1.419 126.008  0.00  0.00    +0.210 HD
ENDBRANCH  10  15
BRANCH   7  17
ATOM     17  C   LIG A   1      -9.427  -3.236 124.451  0.00  0.00    +0.163 C 
BRANCH  17  18
ATOM     18  O   LIG A   1     -10.232  -3.511 123.310  0.00  0.00    -0.394 OA
ATOM     19  H   LIG A   1     -10.191  -2.742 122.718  0.00  0.00    +0.209 HD
ENDBRANCH  17  18
ENDBRANCH   7  17
TORSDOF 3
ENDMDL
MODEL 8
REMARK VINA RESULT:      -5.6      8.710     10.538
REMARK  Name = NuBBE_1947
REMARK  6 active torsions:
REMARK  status: ('A' for Active; 'I' for Inactive)
REMARK    1  A    between atoms: C_1  and  C_2
REMARK    2  A    between atoms: C_9  and  C_18
REMARK    3  A    between atoms: C_9  and  C_20
REMARK    4  A    between atoms: C_13  and  C_16
REMARK    5  A    between atoms: C_13  and  O_17
REMARK    6  A    between atoms: C_18  and  O_19
REMARK                            x       y       z     vdW  Elec       q    Type
REMARK                         _______ _______ _______ _____ _____    ______ ____
ROOT
ATOM      1  C   LIG A   1      -5.973   5.699 134.536  0.00  0.00    +0.008 C 
ATOM      2  C   LIG A   1      -7.409   5.610 134.043  0.00  0.00    -0.008 C 
ATOM      3  C   LIG A   1      -7.625   5.304 132.552  0.00  0.00    -0.023 C 
ATOM      4  C   LIG A   1      -9.138   5.014 132.610  0.00  0.00    +0.004 C 
ATOM      5  C   LIG A   1      -9.239   3.945 133.671  0.00  0.00    +0.005 C 
ATOM      6  C   LIG A   1      -8.222   4.463 134.729  0.00  0.00    +0.004 C 
ATOM      7  C   LIG A   1      -9.664   4.997 131.158  0.00  0.00    -0.000 C 
ATOM      8  C   LIG A   1      -8.434   5.619 130.364  0.00  0.00    +0.029 C 
ATOM      9  C   LIG A   1      -7.649   6.388 131.489  0.00  0.00    +0.014 C 
ATOM     10  C   LIG A   1      -7.453   4.630 129.678  0.00  0.00    +0.067 C 
ATOM     11  C   LIG A   1      -6.897   3.603 130.670  0.00  0.00    +0.035 C 
ATOM     12  C   LIG A   1      -6.664   4.172 132.072  0.00  0.00    +0.010 C 
ATOM     13  C   LIG A   1      -8.028   3.944 128.436  0.00  0.00    +0.041 C 
ATOM     14  C   LIG A   1     -10.227   3.632 130.755  0.00  0.00    +0.014 C 
ENDROOT
BRANCH  10  15
ATOM     15  O   LIG A   1      -6.360   5.412 129.152  0.00  0.00    -0.389 OA
ATOM     16  H   LIG A   1      -6.645   6.337 129.067  0.00  0.00    +0.210 HD
ENDBRANCH  10  15
BRANCH   7  17
ATOM     17  C   LIG A   1     -10.857   6.005 131.055  0.00  0.00    +0.163 C 
BRANCH  17  18
ATOM     18  O   LIG A   1     -11.786   5.843 132.121  0.00  0.00    -0.394 OA
ATOM     19  H   LIG A   1     -11.299   5.535 132.903  0.00  0.00    +0.209 HD
ENDBRANCH  17  18
ENDBRANCH   7  17
TORSDOF 3
ENDMDL
MODEL 9
REMARK VINA RESULT:      -5.6      1.825      2.664
REMARK  Name = NuBBE_1947
REMARK  6 active torsions:
REMARK  status: ('A' for Active; 'I' for Inactive)
REMARK    1  A    between atoms: C_1  and  C_2
REMARK    2  A    between atoms: C_9  and  C_18
REMARK    3  A    between atoms: C_9  and  C_20
REMARK    4  A    between atoms: C_13  and  C_16
REMARK    5  A    between atoms: C_13  and  O_17
REMARK    6  A    between atoms: C_18  and  O_19
REMARK                            x       y       z     vdW  Elec       q    Type
REMARK                         _______ _______ _______ _____ _____    ______ ____
ROOT
ATOM      1  C   LIG A   1      -5.848  -2.896 129.288  0.00  0.00    +0.008 C 
ATOM      2  C   LIG A   1      -6.150  -1.710 128.386  0.00  0.00    -0.008 C 
ATOM      3  C   LIG A   1      -6.897  -1.996 127.073  0.00  0.00    -0.023 C 
ATOM      4  C   LIG A   1      -7.230  -0.538 126.695  0.00  0.00    +0.004 C 
ATOM      5  C   LIG A   1      -7.938  -0.021 127.925  0.00  0.00    +0.005 C 
ATOM      6  C   LIG A   1      -7.079  -0.648 129.062  0.00  0.00    +0.004 C 
ATOM      7  C   LIG A   1      -7.705  -0.536 125.226  0.00  0.00    -0.000 C 
ATOM      8  C   LIG A   1      -7.289  -1.996 124.752  0.00  0.00    +0.029 C 
ATOM      9  C   LIG A   1      -6.182  -2.397 125.795  0.00  0.00    +0.014 C 
ATOM     10  C   LIG A   1      -8.389  -3.093 124.768  0.00  0.00    +0.067 C 
ATOM     11  C   LIG A   1      -9.045  -3.219 126.147  0.00  0.00    +0.035 C 
ATOM     12  C   LIG A   1      -8.073  -2.995 127.308  0.00  0.00    +0.010 C 
ATOM     13  C   LIG A   1      -9.441  -2.934 123.667  0.00  0.00    +0.041 C 
ATOM     14  C   LIG A   1      -9.154  -0.065 125.080  0.00  0.00    +0.014 C 
ENDROOT
BRANCH  10  15
ATOM     15  O   LIG A   1      -7.747  -4.342 124.439  0.00  0.00    -0.389 OA
ATOM     16  H   LIG A   1      -7.760  -4.920 125.221  0.00  0.00    +0.210 HD
ENDBRANCH  10  15
BRANCH   7  17
ATOM     17  C   LIG A   1      -6.833   0.490 124.428  0.00  0.00    +0.163 C 
BRANCH  17  18
ATOM     18  O   LIG A   1      -6.848   0.229 123.029  0.00  0.00    -0.394 OA
ATOM     19  H   LIG A   1      -6.791  -0.732 122.900  0.00  0.00    +0.209 HD
ENDBRANCH  17  18
ENDBRANCH   7  17
TORSDOF 3
ENDMDL
