MODEL 1
REMARK VINA RESULT:      -8.0      0.000      0.000
REMARK  Name = NuBBE_1078
REMARK  5 active torsions:
REMARK  status: ('A' for Active; 'I' for Inactive)
REMARK    1  A    between atoms: C_8  and  C_9
REMARK    2  A    between atoms: C_8  and  C_10
REMARK    3  A    between atoms: C_14  and  O_15
REMARK    4  A    between atoms: N_16  and  C_17
REMARK    5  A    between atoms: C_19  and  O_20
REMARK                            x       y       z     vdW  Elec       q    Type
REMARK                         _______ _______ _______ _____ _____    ______ ____
ROOT
ATOM      1  O   LIG A   1      -9.807   6.548 127.061  0.00  0.00    -0.286 OA
ATOM      2  C   LIG A   1     -10.050   6.548 128.254  0.00  0.00    +0.201 A 
ATOM      3  C   LIG A   1      -9.277   5.731 129.224  0.00  0.00    +0.088 A 
ATOM      4  C   LIG A   1      -9.500   5.938 130.607  0.00  0.00    +0.067 A 
ATOM      5  C   LIG A   1      -8.595   5.294 131.494  0.00  0.00    +0.041 A 
ATOM      6  C   LIG A   1      -7.723   4.291 131.018  0.00  0.00    +0.134 A 
ATOM      7  O   LIG A   1      -6.997   3.480 131.865  0.00  0.00    -0.481 OA
ATOM      8  C   LIG A   1      -7.595   3.316 133.176  0.00  0.00    +0.123 C 
ATOM      9  C   LIG A   1      -6.522   2.689 134.073  0.00  0.00    +0.060 C 
ATOM     10  C   LIG A   1      -8.784   2.344 133.077  0.00  0.00    +0.060 C 
ATOM     11  C   LIG A   1      -8.002   4.660 133.735  0.00  0.00    +0.020 C 
ATOM     12  C   LIG A   1      -8.439   5.626 132.918  0.00  0.00    +0.013 C 
ATOM     13  C   LIG A   1      -7.578   4.044 129.664  0.00  0.00    +0.092 A 
ATOM     14  C   LIG A   1      -8.332   4.784 128.766  0.00  0.00    +0.133 A 
ATOM     15  N   LIG A   1     -10.626   6.725 131.032  0.00  0.00    -0.339 N 
ATOM     16  C   LIG A   1     -11.232   6.324 132.311  0.00  0.00    +0.149 C 
ATOM     17  C   LIG A   1     -11.449   7.457 130.126  0.00  0.00    +0.095 A 
ATOM     18  C   LIG A   1     -12.568   8.261 130.461  0.00  0.00    +0.141 A 
ATOM     19  C   LIG A   1     -13.292   8.981 129.495  0.00  0.00    +0.047 A 
ATOM     20  C   LIG A   1     -12.929   8.941 128.159  0.00  0.00    +0.004 A 
ATOM     21  C   LIG A   1     -11.855   8.152 127.786  0.00  0.00    +0.014 A 
ATOM     22  C   LIG A   1     -11.136   7.418 128.752  0.00  0.00    +0.050 A 
ENDROOT
BRANCH  14  23
ATOM     23  O   LIG A   1      -8.174   4.524 127.433  0.00  0.00    -0.506 OA
ATOM     24  H   LIG A   1      -7.235   4.428 127.211  0.00  0.00    +0.292 HD
ENDBRANCH  14  23
BRANCH  18  25
ATOM     25  O   LIG A   1     -13.084   8.437 131.720  0.00  0.00    -0.505 OA
ATOM     26  H   LIG A   1     -13.958   8.031 131.762  0.00  0.00    +0.292 HD
ENDBRANCH  18  25
TORSDOF 2
ENDMDL
MODEL 2
REMARK VINA RESULT:      -7.8      7.372      8.966
REMARK  Name = NuBBE_1078
REMARK  5 active torsions:
REMARK  status: ('A' for Active; 'I' for Inactive)
REMARK    1  A    between atoms: C_8  and  C_9
REMARK    2  A    between atoms: C_8  and  C_10
REMARK    3  A    between atoms: C_14  and  O_15
REMARK    4  A    between atoms: N_16  and  C_17
REMARK    5  A    between atoms: C_19  and  O_20
REMARK                            x       y       z     vdW  Elec       q    Type
REMARK                         _______ _______ _______ _____ _____    ______ ____
ROOT
ATOM      1  O   LIG A   1      -8.412   1.824 122.584  0.00  0.00    -0.286 OA
ATOM      2  C   LIG A   1      -7.766   1.342 123.496  0.00  0.00    +0.201 A 
ATOM      3  C   LIG A   1      -6.787   2.134 124.284  0.00  0.00    +0.088 A 
ATOM      4  C   LIG A   1      -6.225   1.548 125.444  0.00  0.00    +0.067 A 
ATOM      5  C   LIG A   1      -5.463   2.410 126.279  0.00  0.00    +0.041 A 
ATOM      6  C   LIG A   1      -5.066   3.682 125.816  0.00  0.00    +0.134 A 
ATOM      7  O   LIG A   1      -4.142   4.457 126.485  0.00  0.00    -0.481 OA
ATOM      8  C   LIG A   1      -3.216   3.694 127.299  0.00  0.00    +0.123 C 
ATOM      9  C   LIG A   1      -2.503   4.697 128.213  0.00  0.00    +0.060 C 
ATOM     10  C   LIG A   1      -2.169   3.024 126.391  0.00  0.00    +0.060 C 
ATOM     11  C   LIG A   1      -3.968   2.688 128.140  0.00  0.00    +0.020 C 
ATOM     12  C   LIG A   1      -5.076   2.106 127.665  0.00  0.00    +0.013 C 
ATOM     13  C   LIG A   1      -5.561   4.208 124.635  0.00  0.00    +0.092 A 
ATOM     14  C   LIG A   1      -6.445   3.446 123.884  0.00  0.00    +0.133 A 
ATOM     15  N   LIG A   1      -6.407   0.142 125.686  0.00  0.00    -0.339 N 
ATOM     16  C   LIG A   1      -5.297  -0.530 126.378  0.00  0.00    +0.149 C 
ATOM     17  C   LIG A   1      -7.271  -0.677 124.900  0.00  0.00    +0.095 A 
ATOM     18  C   LIG A   1      -7.513  -2.063 125.074  0.00  0.00    +0.141 A 
ATOM     19  C   LIG A   1      -8.420  -2.775 124.270  0.00  0.00    +0.047 A 
ATOM     20  C   LIG A   1      -9.132  -2.138 123.267  0.00  0.00    +0.004 A 
ATOM     21  C   LIG A   1      -8.910  -0.789 123.049  0.00  0.00    +0.014 A 
ATOM     22  C   LIG A   1      -7.990  -0.077 123.846  0.00  0.00    +0.050 A 
ENDROOT
BRANCH  14  23
ATOM     23  O   LIG A   1      -6.922   3.983 122.722  0.00  0.00    -0.506 OA
ATOM     24  H   LIG A   1      -6.195   4.326 122.178  0.00  0.00    +0.292 HD
ENDBRANCH  14  23
BRANCH  18  25
ATOM     25  O   LIG A   1      -6.917  -2.871 126.008  0.00  0.00    -0.505 OA
ATOM     26  H   LIG A   1      -6.961  -2.442 126.871  0.00  0.00    +0.292 HD
ENDBRANCH  18  25
TORSDOF 2
ENDMDL
MODEL 3
REMARK VINA RESULT:      -7.8      7.108      8.963
REMARK  Name = NuBBE_1078
REMARK  5 active torsions:
REMARK  status: ('A' for Active; 'I' for Inactive)
REMARK    1  A    between atoms: C_8  and  C_9
REMARK    2  A    between atoms: C_8  and  C_10
REMARK    3  A    between atoms: C_14  and  O_15
REMARK    4  A    between atoms: N_16  and  C_17
REMARK    5  A    between atoms: C_19  and  O_20
REMARK                            x       y       z     vdW  Elec       q    Type
REMARK                         _______ _______ _______ _____ _____    ______ ____
ROOT
ATOM      1  O   LIG A   1      -6.234   4.850 124.685  0.00  0.00    -0.286 OA
ATOM      2  C   LIG A   1      -6.021   3.777 125.219  0.00  0.00    +0.201 A 
ATOM      3  C   LIG A   1      -6.691   2.525 124.784  0.00  0.00    +0.088 A 
ATOM      4  C   LIG A   1      -6.243   1.297 125.331  0.00  0.00    +0.067 A 
ATOM      5  C   LIG A   1      -6.761   0.116 124.733  0.00  0.00    +0.041 A 
ATOM      6  C   LIG A   1      -7.862   0.186 123.854  0.00  0.00    +0.134 A 
ATOM      7  O   LIG A   1      -8.545  -0.936 123.432  0.00  0.00    -0.481 OA
ATOM      8  C   LIG A   1      -8.461  -2.053 124.352  0.00  0.00    +0.123 C 
ATOM      9  C   LIG A   1      -8.966  -3.286 123.594  0.00  0.00    +0.060 C 
ATOM     10  C   LIG A   1      -9.389  -1.798 125.553  0.00  0.00    +0.060 C 
ATOM     11  C   LIG A   1      -7.026  -2.272 124.777  0.00  0.00    +0.020 C 
ATOM     12  C   LIG A   1      -6.197  -1.230 124.914  0.00  0.00    +0.013 C 
ATOM     13  C   LIG A   1      -8.342   1.400 123.392  0.00  0.00    +0.092 A 
ATOM     14  C   LIG A   1      -7.737   2.568 123.834  0.00  0.00    +0.133 A 
ATOM     15  N   LIG A   1      -5.353   1.308 126.459  0.00  0.00    -0.339 N 
ATOM     16  C   LIG A   1      -5.506   0.187 127.398  0.00  0.00    +0.149 C 
ATOM     17  C   LIG A   1      -4.754   2.500 126.967  0.00  0.00    +0.095 A 
ATOM     18  C   LIG A   1      -3.863   2.598 128.065  0.00  0.00    +0.141 A 
ATOM     19  C   LIG A   1      -3.291   3.819 128.462  0.00  0.00    +0.047 A 
ATOM     20  C   LIG A   1      -3.571   4.990 127.779  0.00  0.00    +0.004 A 
ATOM     21  C   LIG A   1      -4.453   4.943 126.712  0.00  0.00    +0.014 A 
ATOM     22  C   LIG A   1      -5.039   3.721 126.322  0.00  0.00    +0.050 A 
ENDROOT
BRANCH  14  23
ATOM     23  O   LIG A   1      -8.226   3.756 123.367  0.00  0.00    -0.506 OA
ATOM     24  H   LIG A   1      -8.468   4.341 124.102  0.00  0.00    +0.292 HD
ENDBRANCH  14  23
BRANCH  18  25
ATOM     25  O   LIG A   1      -3.456   1.561 128.865  0.00  0.00    -0.505 OA
ATOM     26  H   LIG A   1      -3.823   1.681 129.748  0.00  0.00    +0.292 HD
ENDBRANCH  18  25
TORSDOF 2
ENDMDL
MODEL 4
REMARK VINA RESULT:      -7.8      7.589      8.690
REMARK  Name = NuBBE_1078
REMARK  5 active torsions:
REMARK  status: ('A' for Active; 'I' for Inactive)
REMARK    1  A    between atoms: C_8  and  C_9
REMARK    2  A    between atoms: C_8  and  C_10
REMARK    3  A    between atoms: C_14  and  O_15
REMARK    4  A    between atoms: N_16  and  C_17
REMARK    5  A    between atoms: C_19  and  O_20
REMARK                            x       y       z     vdW  Elec       q    Type
REMARK                         _______ _______ _______ _____ _____    ______ ____
ROOT
ATOM      1  O   LIG A   1      -9.459  -0.981 123.951  0.00  0.00    -0.286 OA
ATOM      2  C   LIG A   1      -8.574  -0.657 124.722  0.00  0.00    +0.201 A 
ATOM      3  C   LIG A   1      -8.218  -1.471 125.912  0.00  0.00    +0.088 A 
ATOM      4  C   LIG A   1      -7.055  -1.122 126.642  0.00  0.00    +0.067 A 
ATOM      5  C   LIG A   1      -6.635  -2.046 127.637  0.00  0.00    +0.041 A 
ATOM      6  C   LIG A   1      -7.494  -3.087 128.050  0.00  0.00    +0.134 A 
ATOM      7  O   LIG A   1      -7.235  -3.863 129.161  0.00  0.00    -0.481 OA
ATOM      8  C   LIG A   1      -6.414  -3.204 130.157  0.00  0.00    +0.123 C 
ATOM      9  C   LIG A   1      -5.950  -4.290 131.134  0.00  0.00    +0.060 C 
ATOM     10  C   LIG A   1      -7.267  -2.179 130.927  0.00  0.00    +0.060 C 
ATOM     11  C   LIG A   1      -5.211  -2.565 129.501  0.00  0.00    +0.020 C 
ATOM     12  C   LIG A   1      -5.308  -2.050 128.269  0.00  0.00    +0.013 C 
ATOM     13  C   LIG A   1      -8.671  -3.363 127.375  0.00  0.00    +0.092 A 
ATOM     14  C   LIG A   1      -9.017  -2.574 126.288  0.00  0.00    +0.133 A 
ATOM     15  N   LIG A   1      -6.406   0.134 126.381  0.00  0.00    -0.339 N 
ATOM     16  C   LIG A   1      -5.756   0.764 127.540  0.00  0.00    +0.149 C 
ATOM     17  C   LIG A   1      -6.774   0.990 125.300  0.00  0.00    +0.095 A 
ATOM     18  C   LIG A   1      -6.183   2.235 124.968  0.00  0.00    +0.141 A 
ATOM     19  C   LIG A   1      -6.590   2.987 123.852  0.00  0.00    +0.047 A 
ATOM     20  C   LIG A   1      -7.592   2.528 123.014  0.00  0.00    +0.004 A 
ATOM     21  C   LIG A   1      -8.210   1.325 123.313  0.00  0.00    +0.014 A 
ATOM     22  C   LIG A   1      -7.813   0.577 124.440  0.00  0.00    +0.050 A 
ENDROOT
BRANCH  14  23
ATOM     23  O   LIG A   1     -10.183  -2.863 125.636  0.00  0.00    -0.506 OA
ATOM     24  H   LIG A   1     -10.457  -3.778 125.809  0.00  0.00    +0.292 HD
ENDBRANCH  14  23
BRANCH  18  25
ATOM     25  O   LIG A   1      -5.179   2.859 125.663  0.00  0.00    -0.505 OA
ATOM     26  H   LIG A   1      -5.462   3.752 125.895  0.00  0.00    +0.292 HD
ENDBRANCH  18  25
TORSDOF 2
ENDMDL
MODEL 5
REMARK VINA RESULT:      -7.6      6.709      9.849
REMARK  Name = NuBBE_1078
REMARK  5 active torsions:
REMARK  status: ('A' for Active; 'I' for Inactive)
REMARK    1  A    between atoms: C_8  and  C_9
REMARK    2  A    between atoms: C_8  and  C_10
REMARK    3  A    between atoms: C_14  and  O_15
REMARK    4  A    between atoms: N_16  and  C_17
REMARK    5  A    between atoms: C_19  and  O_20
REMARK                            x       y       z     vdW  Elec       q    Type
REMARK                         _______ _______ _______ _____ _____    ______ ____
ROOT
ATOM      1  O   LIG A   1      -8.744  -4.017 126.892  0.00  0.00    -0.286 OA
ATOM      2  C   LIG A   1      -8.458  -2.843 127.045  0.00  0.00    +0.201 A 
ATOM      3  C   LIG A   1      -8.565  -1.849 125.948  0.00  0.00    +0.088 A 
ATOM      4  C   LIG A   1      -8.398  -0.478 126.263  0.00  0.00    +0.067 A 
ATOM      5  C   LIG A   1      -8.718   0.449 125.233  0.00  0.00    +0.041 A 
ATOM      6  C   LIG A   1      -8.907   0.003 123.908  0.00  0.00    +0.134 A 
ATOM      7  O   LIG A   1      -8.989   0.872 122.840  0.00  0.00    -0.481 OA
ATOM      8  C   LIG A   1      -8.310   2.135 123.058  0.00  0.00    +0.123 C 
ATOM      9  C   LIG A   1      -8.776   3.083 121.949  0.00  0.00    +0.060 C 
ATOM     10  C   LIG A   1      -6.790   1.928 122.923  0.00  0.00    +0.060 C 
ATOM     11  C   LIG A   1      -8.689   2.704 124.406  0.00  0.00    +0.020 C 
ATOM     12  C   LIG A   1      -8.931   1.889 125.440  0.00  0.00    +0.013 C 
ATOM     13  C   LIG A   1      -8.986  -1.345 123.603  0.00  0.00    +0.092 A 
ATOM     14  C   LIG A   1      -8.845  -2.270 124.628  0.00  0.00    +0.133 A 
ATOM     15  N   LIG A   1      -7.883  -0.106 127.552  0.00  0.00    -0.339 N 
ATOM     16  C   LIG A   1      -7.067   1.116 127.580  0.00  0.00    +0.149 C 
ATOM     17  C   LIG A   1      -7.682  -1.044 128.609  0.00  0.00    +0.095 A 
ATOM     18  C   LIG A   1      -7.187  -0.762 129.908  0.00  0.00    +0.141 A 
ATOM     19  C   LIG A   1      -7.065  -1.752 130.897  0.00  0.00    +0.047 A 
ATOM     20  C   LIG A   1      -7.438  -3.061 130.642  0.00  0.00    +0.004 A 
ATOM     21  C   LIG A   1      -7.906  -3.385 129.380  0.00  0.00    +0.014 A 
ATOM     22  C   LIG A   1      -8.016  -2.395 128.382  0.00  0.00    +0.050 A 
ENDROOT
BRANCH  14  23
ATOM     23  O   LIG A   1      -8.925  -3.596 124.305  0.00  0.00    -0.506 OA
ATOM     24  H   LIG A   1      -9.676  -4.015 124.755  0.00  0.00    +0.292 HD
ENDBRANCH  14  23
BRANCH  18  25
ATOM     25  O   LIG A   1      -6.771   0.465 130.360  0.00  0.00    -0.505 OA
ATOM     26  H   LIG A   1      -7.544   1.016 130.533  0.00  0.00    +0.292 HD
ENDBRANCH  18  25
TORSDOF 2
ENDMDL
MODEL 6
REMARK VINA RESULT:      -7.5      5.610      8.171
REMARK  Name = NuBBE_1078
REMARK  5 active torsions:
REMARK  status: ('A' for Active; 'I' for Inactive)
REMARK    1  A    between atoms: C_8  and  C_9
REMARK    2  A    between atoms: C_8  and  C_10
REMARK    3  A    between atoms: C_14  and  O_15
REMARK    4  A    between atoms: N_16  and  C_17
REMARK    5  A    between atoms: C_19  and  O_20
REMARK                            x       y       z     vdW  Elec       q    Type
REMARK                         _______ _______ _______ _____ _____    ______ ____
ROOT
ATOM      1  O   LIG A   1      -9.185   1.217 122.727  0.00  0.00    -0.286 OA
ATOM      2  C   LIG A   1      -8.873   0.845 123.844  0.00  0.00    +0.201 A 
ATOM      3  C   LIG A   1      -8.475   1.794 124.916  0.00  0.00    +0.088 A 
ATOM      4  C   LIG A   1      -8.316   1.294 126.231  0.00  0.00    +0.067 A 
ATOM      5  C   LIG A   1      -8.146   2.264 127.257  0.00  0.00    +0.041 A 
ATOM      6  C   LIG A   1      -7.869   3.608 126.928  0.00  0.00    +0.134 A 
ATOM      7  O   LIG A   1      -7.470   4.533 127.870  0.00  0.00    -0.481 OA
ATOM      8  C   LIG A   1      -6.810   3.949 129.022  0.00  0.00    +0.123 C 
ATOM      9  C   LIG A   1      -6.745   5.043 130.092  0.00  0.00    +0.060 C 
ATOM     10  C   LIG A   1      -5.374   3.547 128.640  0.00  0.00    +0.060 C 
ATOM     11  C   LIG A   1      -7.611   2.777 129.542  0.00  0.00    +0.020 C 
ATOM     12  C   LIG A   1      -8.291   1.995 128.695  0.00  0.00    +0.013 C 
ATOM     13  C   LIG A   1      -7.948   4.063 125.623  0.00  0.00    +0.092 A 
ATOM     14  C   LIG A   1      -8.281   3.163 124.621  0.00  0.00    +0.133 A 
ATOM     15  N   LIG A   1      -8.286  -0.126 126.450  0.00  0.00    -0.339 N 
ATOM     16  C   LIG A   1      -7.432  -0.578 127.559  0.00  0.00    +0.149 C 
ATOM     17  C   LIG A   1      -8.575  -1.077 125.426  0.00  0.00    +0.095 A 
ATOM     18  C   LIG A   1      -8.576  -2.489 125.558  0.00  0.00    +0.141 A 
ATOM     19  C   LIG A   1      -8.919  -3.343 124.496  0.00  0.00    +0.047 A 
ATOM     20  C   LIG A   1      -9.285  -2.831 123.263  0.00  0.00    +0.004 A 
ATOM     21  C   LIG A   1      -9.278  -1.458 123.084  0.00  0.00    +0.014 A 
ATOM     22  C   LIG A   1      -8.921  -0.601 124.145  0.00  0.00    +0.050 A 
ENDROOT
BRANCH  14  23
ATOM     23  O   LIG A   1      -8.354   3.632 123.340  0.00  0.00    -0.506 OA
ATOM     24  H   LIG A   1      -9.247   3.955 123.141  0.00  0.00    +0.292 HD
ENDBRANCH  14  23
BRANCH  18  25
ATOM     25  O   LIG A   1      -8.250  -3.190 126.691  0.00  0.00    -0.505 OA
ATOM     26  H   LIG A   1      -7.345  -3.515 126.611  0.00  0.00    +0.292 HD
ENDBRANCH  18  25
TORSDOF 2
ENDMDL
MODEL 7
REMARK VINA RESULT:      -7.5      6.454      8.523
REMARK  Name = NuBBE_1078
REMARK  5 active torsions:
REMARK  status: ('A' for Active; 'I' for Inactive)
REMARK    1  A    between atoms: C_8  and  C_9
REMARK    2  A    between atoms: C_8  and  C_10
REMARK    3  A    between atoms: C_14  and  O_15
REMARK    4  A    between atoms: N_16  and  C_17
REMARK    5  A    between atoms: C_19  and  O_20
REMARK                            x       y       z     vdW  Elec       q    Type
REMARK                         _______ _______ _______ _____ _____    ______ ____
ROOT
ATOM      1  O   LIG A   1      -8.884   2.427 126.306  0.00  0.00    -0.286 OA
ATOM      2  C   LIG A   1      -8.694   1.227 126.219  0.00  0.00    +0.201 A 
ATOM      3  C   LIG A   1      -8.105   0.433 127.327  0.00  0.00    +0.088 A 
ATOM      4  C   LIG A   1      -8.098  -0.979 127.213  0.00  0.00    +0.067 A 
ATOM      5  C   LIG A   1      -7.723  -1.703 128.378  0.00  0.00    +0.041 A 
ATOM      6  C   LIG A   1      -7.126  -1.037 129.469  0.00  0.00    +0.134 A 
ATOM      7  O   LIG A   1      -6.538  -1.715 130.516  0.00  0.00    -0.481 OA
ATOM      8  C   LIG A   1      -6.062  -3.039 130.165  0.00  0.00    +0.123 C 
ATOM      9  C   LIG A   1      -5.760  -3.762 131.482  0.00  0.00    +0.060 C 
ATOM     10  C   LIG A   1      -4.756  -2.916 129.360  0.00  0.00    +0.060 C 
ATOM     11  C   LIG A   1      -7.130  -3.792 129.406  0.00  0.00    +0.020 C 
ATOM     12  C   LIG A   1      -7.960  -3.140 128.582  0.00  0.00    +0.013 C 
ATOM     13  C   LIG A   1      -7.066   0.345 129.527  0.00  0.00    +0.092 A 
ATOM     14  C   LIG A   1      -7.583   1.080 128.470  0.00  0.00    +0.133 A 
ATOM     15  N   LIG A   1      -8.413  -1.588 125.950  0.00  0.00    -0.339 N 
ATOM     16  C   LIG A   1      -7.716  -2.851 125.665  0.00  0.00    +0.149 C 
ATOM     17  C   LIG A   1      -8.899  -0.850 124.830  0.00  0.00    +0.095 A 
ATOM     18  C   LIG A   1      -9.240  -1.371 123.556  0.00  0.00    +0.141 A 
ATOM     19  C   LIG A   1      -9.754  -0.564 122.526  0.00  0.00    +0.047 A 
ATOM     20  C   LIG A   1      -9.961   0.791 122.722  0.00  0.00    +0.004 A 
ATOM     21  C   LIG A   1      -9.622   1.345 123.945  0.00  0.00    +0.014 A 
ATOM     22  C   LIG A   1      -9.093   0.539 124.974  0.00  0.00    +0.050 A 
ENDROOT
BRANCH  14  23
ATOM     23  O   LIG A   1      -7.513   2.443 128.547  0.00  0.00    -0.506 OA
ATOM     24  H   LIG A   1      -7.979   2.767 129.334  0.00  0.00    +0.292 HD
ENDBRANCH  14  23
BRANCH  18  25
ATOM     25  O   LIG A   1      -9.115  -2.680 123.164  0.00  0.00    -0.505 OA
ATOM     26  H   LIG A   1      -8.298  -3.041 123.526  0.00  0.00    +0.292 HD
ENDBRANCH  18  25
TORSDOF 2
ENDMDL
MODEL 8
REMARK VINA RESULT:      -7.3      5.714      8.731
REMARK  Name = NuBBE_1078
REMARK  5 active torsions:
REMARK  status: ('A' for Active; 'I' for Inactive)
REMARK    1  A    between atoms: C_8  and  C_9
REMARK    2  A    between atoms: C_8  and  C_10
REMARK    3  A    between atoms: C_14  and  O_15
REMARK    4  A    between atoms: N_16  and  C_17
REMARK    5  A    between atoms: C_19  and  O_20
REMARK                            x       y       z     vdW  Elec       q    Type
REMARK                         _______ _______ _______ _____ _____    ______ ____
ROOT
ATOM      1  O   LIG A   1      -8.815   3.054 128.451  0.00  0.00    -0.286 OA
ATOM      2  C   LIG A   1      -8.420   1.903 128.400  0.00  0.00    +0.201 A 
ATOM      3  C   LIG A   1      -7.982   1.268 127.130  0.00  0.00    +0.088 A 
ATOM      4  C   LIG A   1      -7.360  -0.002 127.193  0.00  0.00    +0.067 A 
ATOM      5  C   LIG A   1      -6.769  -0.474 125.989  0.00  0.00    +0.041 A 
ATOM      6  C   LIG A   1      -7.048   0.163 124.761  0.00  0.00    +0.134 A 
ATOM      7  O   LIG A   1      -6.693  -0.385 123.547  0.00  0.00    -0.481 OA
ATOM      8  C   LIG A   1      -6.572  -1.830 123.568  0.00  0.00    +0.123 C 
ATOM      9  C   LIG A   1      -5.858  -2.231 122.273  0.00  0.00    +0.060 C 
ATOM     10  C   LIG A   1      -7.976  -2.461 123.573  0.00  0.00    +0.060 C 
ATOM     11  C   LIG A   1      -5.747  -2.266 124.758  0.00  0.00    +0.020 C 
ATOM     12  C   LIG A   1      -5.808  -1.584 125.908  0.00  0.00    +0.013 C 
ATOM     13  C   LIG A   1      -7.731   1.366 124.710  0.00  0.00    +0.092 A 
ATOM     14  C   LIG A   1      -8.172   1.933 125.897  0.00  0.00    +0.133 A 
ATOM     15  N   LIG A   1      -7.399  -0.749 128.421  0.00  0.00    -0.339 N 
ATOM     16  C   LIG A   1      -7.443  -2.211 128.271  0.00  0.00    +0.149 C 
ATOM     17  C   LIG A   1      -7.892  -0.208 129.645  0.00  0.00    +0.095 A 
ATOM     18  C   LIG A   1      -7.958  -0.870 130.897  0.00  0.00    +0.141 A 
ATOM     19  C   LIG A   1      -8.423  -0.233 132.061  0.00  0.00    +0.047 A 
ATOM     20  C   LIG A   1      -8.832   1.090 132.032  0.00  0.00    +0.004 A 
ATOM     21  C   LIG A   1      -8.803   1.768 130.825  0.00  0.00    +0.014 A 
ATOM     22  C   LIG A   1      -8.350   1.126 129.654  0.00  0.00    +0.050 A 
ENDROOT
BRANCH  14  23
ATOM     23  O   LIG A   1      -8.846   3.120 125.825  0.00  0.00    -0.506 OA
ATOM     24  H   LIG A   1      -9.693   3.065 126.294  0.00  0.00    +0.292 HD
ENDBRANCH  14  23
BRANCH  18  25
ATOM     25  O   LIG A   1      -7.599  -2.172 131.138  0.00  0.00    -0.505 OA
ATOM     26  H   LIG A   1      -6.662  -2.203 131.367  0.00  0.00    +0.292 HD
ENDBRANCH  18  25
TORSDOF 2
ENDMDL
MODEL 9
REMARK VINA RESULT:      -7.3      2.192      4.015
REMARK  Name = NuBBE_1078
REMARK  5 active torsions:
REMARK  status: ('A' for Active; 'I' for Inactive)
REMARK    1  A    between atoms: C_8  and  C_9
REMARK    2  A    between atoms: C_8  and  C_10
REMARK    3  A    between atoms: C_14  and  O_15
REMARK    4  A    between atoms: N_16  and  C_17
REMARK    5  A    between atoms: C_19  and  O_20
REMARK                            x       y       z     vdW  Elec       q    Type
REMARK                         _______ _______ _______ _____ _____    ______ ____
ROOT
ATOM      1  O   LIG A   1     -10.712   6.446 132.516  0.00  0.00    -0.286 OA
ATOM      2  C   LIG A   1     -10.193   5.898 131.561  0.00  0.00    +0.201 A 
ATOM      3  C   LIG A   1      -9.390   4.656 131.695  0.00  0.00    +0.088 A 
ATOM      4  C   LIG A   1      -8.987   3.984 130.516  0.00  0.00    +0.067 A 
ATOM      5  C   LIG A   1      -8.409   2.697 130.690  0.00  0.00    +0.041 A 
ATOM      6  C   LIG A   1      -8.010   2.263 131.972  0.00  0.00    +0.134 A 
ATOM      7  O   LIG A   1      -7.242   1.134 132.165  0.00  0.00    -0.481 OA
ATOM      8  C   LIG A   1      -6.417   0.784 131.025  0.00  0.00    +0.123 C 
ATOM      9  C   LIG A   1      -5.907  -0.640 131.270  0.00  0.00    +0.060 C 
ATOM     10  C   LIG A   1      -5.208   1.736 130.958  0.00  0.00    +0.060 C 
ATOM     11  C   LIG A   1      -7.239   0.817 129.757  0.00  0.00    +0.020 C 
ATOM     12  C   LIG A   1      -8.228   1.708 129.617  0.00  0.00    +0.013 C 
ATOM     13  C   LIG A   1      -8.341   2.976 133.112  0.00  0.00    +0.092 A 
ATOM     14  C   LIG A   1      -9.057   4.157 132.975  0.00  0.00    +0.133 A 
ATOM     15  N   LIG A   1      -9.133   4.638 129.244  0.00  0.00    -0.339 N 
ATOM     16  C   LIG A   1      -8.112   4.305 128.239  0.00  0.00    +0.149 C 
ATOM     17  C   LIG A   1      -9.822   5.877 129.081  0.00  0.00    +0.095 A 
ATOM     18  C   LIG A   1     -10.017   6.583 127.867  0.00  0.00    +0.141 A 
ATOM     19  C   LIG A   1     -10.751   7.780 127.803  0.00  0.00    +0.047 A 
ATOM     20  C   LIG A   1     -11.329   8.320 128.940  0.00  0.00    +0.004 A 
ATOM     21  C   LIG A   1     -11.145   7.674 130.151  0.00  0.00    +0.014 A 
ATOM     22  C   LIG A   1     -10.397   6.480 130.218  0.00  0.00    +0.050 A 
ENDROOT
BRANCH  14  23
ATOM     23  O   LIG A   1      -9.374   4.845 134.112  0.00  0.00    -0.506 OA
ATOM     24  H   LIG A   1      -8.929   5.708 134.128  0.00  0.00    +0.292 HD
ENDBRANCH  14  23
BRANCH  18  25
ATOM     25  O   LIG A   1      -9.534   6.216 126.637  0.00  0.00    -0.505 OA
ATOM     26  H   LIG A   1      -9.139   6.986 126.210  0.00  0.00    +0.292 HD
ENDBRANCH  18  25
TORSDOF 2
ENDMDL
