MODEL 1
REMARK VINA RESULT:      -7.6      0.000      0.000
REMARK  Name = NuBBE_311
REMARK  20 active torsions:
REMARK  status: ('A' for Active; 'I' for Inactive)
REMARK    1  A    between atoms: C_3  and  C_4
REMARK    2  A    between atoms: C_5  and  O_6
REMARK    3  A    between atoms: O_6  and  C_7
REMARK    4  A    between atoms: C_7  and  C_8
REMARK    5  A    between atoms: C_9  and  C_10
REMARK    6  A    between atoms: C_13  and  O_14
REMARK    7  A    between atoms: C_20  and  C_21
REMARK    8  A    between atoms: C_21  and  C_22
REMARK    9  A    between atoms: C_22  and  C_23
REMARK   10  A    between atoms: C_23  and  C_24
REMARK   11  A    between atoms: C_24  and  C_25
REMARK   12  A    between atoms: C_25  and  C_26
REMARK   13  A    between atoms: C_26  and  C_27
REMARK   14  A    between atoms: C_27  and  C_28
REMARK   15  A    between atoms: C_28  and  C_29
REMARK   16  A    between atoms: C_29  and  C_30
REMARK   17  A    between atoms: C_30  and  C_31
REMARK   18  A    between atoms: C_31  and  C_32
REMARK   19  A    between atoms: C_32  and  C_33
REMARK   20  A    between atoms: C_33  and  C_34
REMARK                            x       y       z     vdW  Elec       q    Type
REMARK                         _______ _______ _______ _____ _____    ______ ____
ROOT
ATOM      1  H   LIG A   1      -6.844  -3.701 125.259  0.00  0.00    +0.123 HD
ATOM      2  N   LIG A   1      -7.351  -3.181 124.554  0.00  0.00    -0.307 NA
ATOM      3  C   LIG A   1      -7.010  -1.740 124.653  0.00  0.00    +0.092 C 
ATOM      4  C   LIG A   1      -5.544  -1.674 124.292  0.00  0.00    +0.028 C 
ATOM      5  C   LIG A   1      -7.689  -0.808 123.659  0.00  0.00    +0.193 C 
ATOM      6  C   LIG A   1      -8.995  -1.428 123.395  0.00  0.00    +0.048 C 
ATOM      7  C   LIG A   1      -9.259  -2.909 123.278  0.00  0.00    +0.022 C 
ATOM      8  C   LIG A   1      -8.769  -3.560 124.539  0.00  0.00    +0.054 C 
ENDROOT
BRANCH   8   9
ATOM      9  C   LIG A   1      -9.565  -3.270 125.861  0.00  0.00    +0.019 C 
BRANCH   9  10
ATOM     10  C   LIG A   1      -8.911  -3.661 127.218  0.00  0.00    +0.002 C 
BRANCH  10  11
ATOM     11  C   LIG A   1      -8.088  -2.666 128.075  0.00  0.00    +0.000 C 
BRANCH  11  12
ATOM     12  C   LIG A   1      -8.242  -2.571 129.619  0.00  0.00    -0.000 C 
BRANCH  12  13
ATOM     13  C   LIG A   1      -7.884  -1.279 130.322  0.00  0.00    -0.000 C 
BRANCH  13  14
ATOM     14  C   LIG A   1      -7.311  -1.445 131.712  0.00  0.00    -0.000 C 
BRANCH  14  15
ATOM     15  C   LIG A   1      -7.474  -2.239 132.962  0.00  0.00    -0.000 C 
BRANCH  15  16
ATOM     16  C   LIG A   1      -6.887  -3.668 133.053  0.00  0.00    -0.000 C 
BRANCH  16  17
ATOM     17  C   LIG A   1      -5.365  -3.600 133.129  0.00  0.00    +0.000 C 
BRANCH  17  18
ATOM     18  C   LIG A   1      -4.630  -4.542 132.150  0.00  0.00    +0.000 C 
BRANCH  18  19
ATOM     19  C   LIG A   1      -5.253  -4.776 130.757  0.00  0.00    +0.007 C 
BRANCH  19  20
ATOM     20  C   LIG A   1      -5.006  -3.626 129.769  0.00  0.00    +0.074 C 
BRANCH  20  21
ATOM     21  C   LIG A   1      -3.580  -3.109 129.855  0.00  0.00    +0.130 C 
ATOM     22  C   LIG A   1      -3.366  -1.734 130.442  0.00  0.00    +0.086 C 
ATOM     23  O   LIG A   1      -2.622  -3.766 129.445  0.00  0.00    -0.298 OA
ENDBRANCH  20  21
ENDBRANCH  19  20
ENDBRANCH  18  19
ENDBRANCH  17  18
ENDBRANCH  16  17
ENDBRANCH  15  16
ENDBRANCH  14  15
ENDBRANCH  13  14
ENDBRANCH  12  13
ENDBRANCH  11  12
ENDBRANCH  10  11
ENDBRANCH   9  10
ENDBRANCH   8   9
BRANCH   5  24
ATOM     24  O   LIG A   1      -8.014   0.520 124.177  0.00  0.00    -0.457 OA
BRANCH  24  25
ATOM     25  C   LIG A   1      -6.981   1.404 124.133  0.00  0.00    +0.332 C 
ATOM     26  O   LIG A   1      -6.261   1.735 124.985  0.00  0.00    -0.246 OA
BRANCH  25  27
ATOM     27  C   LIG A   1      -6.753   1.860 122.774  0.00  0.00    +0.092 C 
ATOM     28  C   LIG A   1      -6.860   3.190 122.660  0.00  0.00    +0.015 C 
BRANCH  28  29
ATOM     29  C   LIG A   1      -6.566   3.842 121.408  0.00  0.00    -0.025 A 
ATOM     30  C   LIG A   1      -7.529   3.857 120.398  0.00  0.00    +0.011 A 
ATOM     31  C   LIG A   1      -7.274   4.522 119.218  0.00  0.00    +0.046 A 
ATOM     32  C   LIG A   1      -6.040   5.139 119.053  0.00  0.00    +0.117 A 
ATOM     33  C   LIG A   1      -5.054   5.085 120.035  0.00  0.00    +0.046 A 
ATOM     34  C   LIG A   1      -5.315   4.427 121.227  0.00  0.00    +0.011 A 
BRANCH  32  35
ATOM     35  O   LIG A   1      -5.769   5.825 117.910  0.00  0.00    -0.507 OA
ATOM     36  H   LIG A   1      -6.435   5.565 117.252  0.00  0.00    +0.292 HD
ENDBRANCH  32  35
ENDBRANCH  28  29
ENDBRANCH  25  27
ENDBRANCH  24  25
ENDBRANCH   5  24
TORSDOF 18
ENDMDL
MODEL 2
REMARK VINA RESULT:      -7.5      1.406      2.511
REMARK  Name = NuBBE_311
REMARK  20 active torsions:
REMARK  status: ('A' for Active; 'I' for Inactive)
REMARK    1  A    between atoms: C_3  and  C_4
REMARK    2  A    between atoms: C_5  and  O_6
REMARK    3  A    between atoms: O_6  and  C_7
REMARK    4  A    between atoms: C_7  and  C_8
REMARK    5  A    between atoms: C_9  and  C_10
REMARK    6  A    between atoms: C_13  and  O_14
REMARK    7  A    between atoms: C_20  and  C_21
REMARK    8  A    between atoms: C_21  and  C_22
REMARK    9  A    between atoms: C_22  and  C_23
REMARK   10  A    between atoms: C_23  and  C_24
REMARK   11  A    between atoms: C_24  and  C_25
REMARK   12  A    between atoms: C_25  and  C_26
REMARK   13  A    between atoms: C_26  and  C_27
REMARK   14  A    between atoms: C_27  and  C_28
REMARK   15  A    between atoms: C_28  and  C_29
REMARK   16  A    between atoms: C_29  and  C_30
REMARK   17  A    between atoms: C_30  and  C_31
REMARK   18  A    between atoms: C_31  and  C_32
REMARK   19  A    between atoms: C_32  and  C_33
REMARK   20  A    between atoms: C_33  and  C_34
REMARK                            x       y       z     vdW  Elec       q    Type
REMARK                         _______ _______ _______ _____ _____    ______ ____
ROOT
ATOM      1  H   LIG A   1      -6.797  -3.700 125.518  0.00  0.00    +0.123 HD
ATOM      2  N   LIG A   1      -7.308  -3.195 124.805  0.00  0.00    -0.307 NA
ATOM      3  C   LIG A   1      -6.957  -1.754 124.866  0.00  0.00    +0.092 C 
ATOM      4  C   LIG A   1      -5.493  -1.706 124.490  0.00  0.00    +0.028 C 
ATOM      5  C   LIG A   1      -7.640  -0.841 123.856  0.00  0.00    +0.193 C 
ATOM      6  C   LIG A   1      -8.951  -1.459 123.619  0.00  0.00    +0.048 C 
ATOM      7  C   LIG A   1      -9.225  -2.941 123.540  0.00  0.00    +0.022 C 
ATOM      8  C   LIG A   1      -8.728  -3.564 124.813  0.00  0.00    +0.054 C 
ENDROOT
BRANCH   8   9
ATOM      9  C   LIG A   1      -9.510  -3.237 126.134  0.00  0.00    +0.019 C 
BRANCH   9  10
ATOM     10  C   LIG A   1      -9.053  -3.927 127.453  0.00  0.00    +0.002 C 
BRANCH  10  11
ATOM     11  C   LIG A   1      -7.861  -3.415 128.301  0.00  0.00    +0.000 C 
BRANCH  11  12
ATOM     12  C   LIG A   1      -8.052  -2.463 129.516  0.00  0.00    -0.000 C 
BRANCH  12  13
ATOM     13  C   LIG A   1      -7.384  -2.798 130.833  0.00  0.00    -0.000 C 
BRANCH  13  14
ATOM     14  C   LIG A   1      -6.391  -3.938 130.775  0.00  0.00    -0.000 C 
BRANCH  14  15
ATOM     15  C   LIG A   1      -4.930  -4.219 130.711  0.00  0.00    -0.000 C 
BRANCH  15  16
ATOM     16  C   LIG A   1      -4.116  -3.804 129.463  0.00  0.00    -0.000 C 
BRANCH  16  17
ATOM     17  C   LIG A   1      -4.169  -2.290 129.288  0.00  0.00    +0.000 C 
BRANCH  17  18
ATOM     18  C   LIG A   1      -3.510  -1.486 130.431  0.00  0.00    +0.000 C 
BRANCH  18  19
ATOM     19  C   LIG A   1      -4.372  -0.450 131.184  0.00  0.00    +0.007 C 
BRANCH  19  20
ATOM     20  C   LIG A   1      -5.363   0.300 130.283  0.00  0.00    +0.074 C 
BRANCH  20  21
ATOM     21  C   LIG A   1      -4.699   1.465 129.568  0.00  0.00    +0.130 C 
ATOM     22  C   LIG A   1      -4.183   2.605 130.414  0.00  0.00    +0.086 C 
ATOM     23  O   LIG A   1      -4.597   1.506 128.342  0.00  0.00    -0.298 OA
ENDBRANCH  20  21
ENDBRANCH  19  20
ENDBRANCH  18  19
ENDBRANCH  17  18
ENDBRANCH  16  17
ENDBRANCH  15  16
ENDBRANCH  14  15
ENDBRANCH  13  14
ENDBRANCH  12  13
ENDBRANCH  11  12
ENDBRANCH  10  11
ENDBRANCH   9  10
ENDBRANCH   8   9
BRANCH   5  24
ATOM     24  O   LIG A   1      -7.951   0.501 124.344  0.00  0.00    -0.457 OA
BRANCH  24  25
ATOM     25  C   LIG A   1      -6.939   1.398 124.195  0.00  0.00    +0.332 C 
ATOM     26  O   LIG A   1      -6.065   1.647 124.921  0.00  0.00    -0.246 OA
BRANCH  25  27
ATOM     27  C   LIG A   1      -6.975   1.996 122.873  0.00  0.00    +0.092 C 
ATOM     28  C   LIG A   1      -6.378   3.194 122.842  0.00  0.00    +0.015 C 
BRANCH  28  29
ATOM     29  C   LIG A   1      -6.221   3.899 121.595  0.00  0.00    -0.025 A 
ATOM     30  C   LIG A   1      -5.090   4.692 121.391  0.00  0.00    +0.011 A 
ATOM     31  C   LIG A   1      -4.909   5.329 120.181  0.00  0.00    +0.046 A 
ATOM     32  C   LIG A   1      -5.882   5.186 119.199  0.00  0.00    +0.117 A 
ATOM     33  C   LIG A   1      -7.038   4.439 119.413  0.00  0.00    +0.046 A 
ATOM     34  C   LIG A   1      -7.215   3.789 120.624  0.00  0.00    +0.011 A 
BRANCH  32  35
ATOM     35  O   LIG A   1      -5.718   5.781 117.987  0.00  0.00    -0.507 OA
ATOM     36  H   LIG A   1      -5.885   6.731 118.106  0.00  0.00    +0.292 HD
ENDBRANCH  32  35
ENDBRANCH  28  29
ENDBRANCH  25  27
ENDBRANCH  24  25
ENDBRANCH   5  24
TORSDOF 18
ENDMDL
MODEL 3
REMARK VINA RESULT:      -7.4      2.546      4.688
REMARK  Name = NuBBE_311
REMARK  20 active torsions:
REMARK  status: ('A' for Active; 'I' for Inactive)
REMARK    1  A    between atoms: C_3  and  C_4
REMARK    2  A    between atoms: C_5  and  O_6
REMARK    3  A    between atoms: O_6  and  C_7
REMARK    4  A    between atoms: C_7  and  C_8
REMARK    5  A    between atoms: C_9  and  C_10
REMARK    6  A    between atoms: C_13  and  O_14
REMARK    7  A    between atoms: C_20  and  C_21
REMARK    8  A    between atoms: C_21  and  C_22
REMARK    9  A    between atoms: C_22  and  C_23
REMARK   10  A    between atoms: C_23  and  C_24
REMARK   11  A    between atoms: C_24  and  C_25
REMARK   12  A    between atoms: C_25  and  C_26
REMARK   13  A    between atoms: C_26  and  C_27
REMARK   14  A    between atoms: C_27  and  C_28
REMARK   15  A    between atoms: C_28  and  C_29
REMARK   16  A    between atoms: C_29  and  C_30
REMARK   17  A    between atoms: C_30  and  C_31
REMARK   18  A    between atoms: C_31  and  C_32
REMARK   19  A    between atoms: C_32  and  C_33
REMARK   20  A    between atoms: C_33  and  C_34
REMARK                            x       y       z     vdW  Elec       q    Type
REMARK                         _______ _______ _______ _____ _____    ______ ____
ROOT
ATOM      1  H   LIG A   1      -6.294  -3.696 123.795  0.00  0.00    +0.123 HD
ATOM      2  N   LIG A   1      -7.192  -3.266 123.617  0.00  0.00    -0.307 NA
ATOM      3  C   LIG A   1      -7.040  -1.790 123.576  0.00  0.00    +0.092 C 
ATOM      4  C   LIG A   1      -6.172  -1.534 122.365  0.00  0.00    +0.028 C 
ATOM      5  C   LIG A   1      -8.303  -0.980 123.317  0.00  0.00    +0.193 C 
ATOM      6  C   LIG A   1      -9.386  -1.776 123.908  0.00  0.00    +0.048 C 
ATOM      7  C   LIG A   1      -9.488  -3.281 123.883  0.00  0.00    +0.022 C 
ATOM      8  C   LIG A   1      -8.229  -3.832 124.488  0.00  0.00    +0.054 C 
ENDROOT
BRANCH   8   9
ATOM      9  C   LIG A   1      -8.012  -3.624 126.029  0.00  0.00    +0.019 C 
BRANCH   9  10
ATOM     10  C   LIG A   1      -9.265  -3.581 126.951  0.00  0.00    +0.002 C 
BRANCH  10  11
ATOM     11  C   LIG A   1      -9.230  -4.011 128.440  0.00  0.00    +0.000 C 
BRANCH  11  12
ATOM     12  C   LIG A   1      -8.359  -3.277 129.498  0.00  0.00    -0.000 C 
BRANCH  12  13
ATOM     13  C   LIG A   1      -7.702  -1.962 129.136  0.00  0.00    -0.000 C 
BRANCH  13  14
ATOM     14  C   LIG A   1      -6.202  -2.027 128.946  0.00  0.00    -0.000 C 
BRANCH  14  15
ATOM     15  C   LIG A   1      -5.148  -1.949 127.897  0.00  0.00    -0.000 C 
BRANCH  15  16
ATOM     16  C   LIG A   1      -5.396  -1.126 126.610  0.00  0.00    -0.000 C 
BRANCH  16  17
ATOM     17  C   LIG A   1      -5.359   0.364 126.931  0.00  0.00    +0.000 C 
BRANCH  17  18
ATOM     18  C   LIG A   1      -6.696   1.104 126.705  0.00  0.00    +0.000 C 
BRANCH  18  19
ATOM     19  C   LIG A   1      -6.651   2.521 126.093  0.00  0.00    +0.007 C 
BRANCH  19  20
ATOM     20  C   LIG A   1      -7.802   3.428 126.550  0.00  0.00    +0.074 C 
BRANCH  20  21
ATOM     21  C   LIG A   1      -7.778   4.769 125.835  0.00  0.00    +0.130 C 
ATOM     22  C   LIG A   1      -6.501   5.166 125.133  0.00  0.00    +0.086 C 
ATOM     23  O   LIG A   1      -8.748   5.526 125.836  0.00  0.00    -0.298 OA
ENDBRANCH  20  21
ENDBRANCH  19  20
ENDBRANCH  18  19
ENDBRANCH  17  18
ENDBRANCH  16  17
ENDBRANCH  15  16
ENDBRANCH  14  15
ENDBRANCH  13  14
ENDBRANCH  12  13
ENDBRANCH  11  12
ENDBRANCH  10  11
ENDBRANCH   9  10
ENDBRANCH   8   9
BRANCH   5  24
ATOM     24  O   LIG A   1      -8.370   0.303 124.014  0.00  0.00    -0.457 OA
BRANCH  24  25
ATOM     25  C   LIG A   1      -9.348   1.133 123.562  0.00  0.00    +0.332 C 
ATOM     26  O   LIG A   1     -10.376   1.389 124.045  0.00  0.00    -0.246 OA
BRANCH  25  27
ATOM     27  C   LIG A   1      -8.916   1.832 122.366  0.00  0.00    +0.092 C 
ATOM     28  C   LIG A   1      -8.004   2.776 122.631  0.00  0.00    +0.015 C 
BRANCH  28  29
ATOM     29  C   LIG A   1      -7.377   3.508 121.559  0.00  0.00    -0.025 A 
ATOM     30  C   LIG A   1      -6.041   3.892 121.679  0.00  0.00    +0.011 A 
ATOM     31  C   LIG A   1      -5.420   4.548 120.637  0.00  0.00    +0.046 A 
ATOM     32  C   LIG A   1      -6.159   4.837 119.496  0.00  0.00    +0.117 A 
ATOM     33  C   LIG A   1      -7.507   4.504 119.389  0.00  0.00    +0.046 A 
ATOM     34  C   LIG A   1      -8.128   3.833 120.432  0.00  0.00    +0.011 A 
BRANCH  32  35
ATOM     35  O   LIG A   1      -5.567   5.459 118.442  0.00  0.00    -0.507 OA
ATOM     36  H   LIG A   1      -6.214   5.477 117.716  0.00  0.00    +0.292 HD
ENDBRANCH  32  35
ENDBRANCH  28  29
ENDBRANCH  25  27
ENDBRANCH  24  25
ENDBRANCH   5  24
TORSDOF 18
ENDMDL
MODEL 4
REMARK VINA RESULT:      -7.4      1.603      2.579
REMARK  Name = NuBBE_311
REMARK  20 active torsions:
REMARK  status: ('A' for Active; 'I' for Inactive)
REMARK    1  A    between atoms: C_3  and  C_4
REMARK    2  A    between atoms: C_5  and  O_6
REMARK    3  A    between atoms: O_6  and  C_7
REMARK    4  A    between atoms: C_7  and  C_8
REMARK    5  A    between atoms: C_9  and  C_10
REMARK    6  A    between atoms: C_13  and  O_14
REMARK    7  A    between atoms: C_20  and  C_21
REMARK    8  A    between atoms: C_21  and  C_22
REMARK    9  A    between atoms: C_22  and  C_23
REMARK   10  A    between atoms: C_23  and  C_24
REMARK   11  A    between atoms: C_24  and  C_25
REMARK   12  A    between atoms: C_25  and  C_26
REMARK   13  A    between atoms: C_26  and  C_27
REMARK   14  A    between atoms: C_27  and  C_28
REMARK   15  A    between atoms: C_28  and  C_29
REMARK   16  A    between atoms: C_29  and  C_30
REMARK   17  A    between atoms: C_30  and  C_31
REMARK   18  A    between atoms: C_31  and  C_32
REMARK   19  A    between atoms: C_32  and  C_33
REMARK   20  A    between atoms: C_33  and  C_34
REMARK                            x       y       z     vdW  Elec       q    Type
REMARK                         _______ _______ _______ _____ _____    ______ ____
ROOT
ATOM      1  H   LIG A   1      -6.201  -2.149 126.027  0.00  0.00    +0.123 HD
ATOM      2  N   LIG A   1      -6.193  -1.677 125.132  0.00  0.00    -0.307 NA
ATOM      3  C   LIG A   1      -7.046  -0.464 125.198  0.00  0.00    +0.092 C 
ATOM      4  C   LIG A   1      -6.342   0.437 126.187  0.00  0.00    +0.028 C 
ATOM      5  C   LIG A   1      -7.148   0.370 123.929  0.00  0.00    +0.193 C 
ATOM      6  C   LIG A   1      -7.011  -0.598 122.833  0.00  0.00    +0.048 C 
ATOM      7  C   LIG A   1      -6.095  -1.797 122.826  0.00  0.00    +0.022 C 
ATOM      8  C   LIG A   1      -6.421  -2.625 124.035  0.00  0.00    +0.054 C 
ENDROOT
BRANCH   8   9
ATOM      9  C   LIG A   1      -7.803  -3.369 124.054  0.00  0.00    +0.019 C 
BRANCH   9  10
ATOM     10  C   LIG A   1      -8.238  -4.088 125.364  0.00  0.00    +0.002 C 
BRANCH  10  11
ATOM     11  C   LIG A   1      -8.914  -3.348 126.545  0.00  0.00    +0.000 C 
BRANCH  11  12
ATOM     12  C   LIG A   1      -9.034  -3.977 127.963  0.00  0.00    -0.000 C 
BRANCH  12  13
ATOM     13  C   LIG A   1      -8.417  -3.261 129.146  0.00  0.00    -0.000 C 
BRANCH  13  14
ATOM     14  C   LIG A   1      -7.144  -2.502 128.841  0.00  0.00    -0.000 C 
BRANCH  14  15
ATOM     15  C   LIG A   1      -5.706  -2.706 128.514  0.00  0.00    -0.000 C 
BRANCH  15  16
ATOM     16  C   LIG A   1      -4.748  -3.303 129.573  0.00  0.00    -0.000 C 
BRANCH  16  17
ATOM     17  C   LIG A   1      -5.439  -4.441 130.316  0.00  0.00    +0.000 C 
BRANCH  17  18
ATOM     18  C   LIG A   1      -5.139  -4.498 131.831  0.00  0.00    +0.000 C 
BRANCH  18  19
ATOM     19  C   LIG A   1      -6.239  -4.031 132.809  0.00  0.00    +0.007 C 
BRANCH  19  20
ATOM     20  C   LIG A   1      -6.025  -2.608 133.345  0.00  0.00    +0.074 C 
BRANCH  20  21
ATOM     21  C   LIG A   1      -6.665  -1.566 132.443  0.00  0.00    +0.130 C 
ATOM     22  C   LIG A   1      -5.767  -0.509 131.846  0.00  0.00    +0.086 C 
ATOM     23  O   LIG A   1      -7.874  -1.556 132.214  0.00  0.00    -0.298 OA
ENDBRANCH  20  21
ENDBRANCH  19  20
ENDBRANCH  18  19
ENDBRANCH  17  18
ENDBRANCH  16  17
ENDBRANCH  15  16
ENDBRANCH  14  15
ENDBRANCH  13  14
ENDBRANCH  12  13
ENDBRANCH  11  12
ENDBRANCH  10  11
ENDBRANCH   9  10
ENDBRANCH   8   9
BRANCH   5  24
ATOM     24  O   LIG A   1      -8.448   0.997 123.702  0.00  0.00    -0.457 OA
BRANCH  24  25
ATOM     25  C   LIG A   1      -8.518   2.296 124.099  0.00  0.00    +0.332 C 
ATOM     26  O   LIG A   1      -8.634   2.730 125.173  0.00  0.00    -0.246 OA
BRANCH  25  27
ATOM     27  C   LIG A   1      -8.299   3.189 122.977  0.00  0.00    +0.092 C 
ATOM     28  C   LIG A   1      -7.085   3.034 122.435  0.00  0.00    +0.015 C 
BRANCH  28  29
ATOM     29  C   LIG A   1      -6.719   3.760 121.244  0.00  0.00    -0.025 A 
ATOM     30  C   LIG A   1      -7.614   3.823 120.175  0.00  0.00    +0.011 A 
ATOM     31  C   LIG A   1      -7.291   4.557 119.053  0.00  0.00    +0.046 A 
ATOM     32  C   LIG A   1      -6.058   5.196 119.006  0.00  0.00    +0.117 A 
ATOM     33  C   LIG A   1      -5.138   5.096 120.046  0.00  0.00    +0.046 A 
ATOM     34  C   LIG A   1      -5.467   4.368 121.180  0.00  0.00    +0.011 A 
BRANCH  32  35
ATOM     35  O   LIG A   1      -5.723   5.949 117.924  0.00  0.00    -0.507 OA
ATOM     36  H   LIG A   1      -6.103   5.516 117.141  0.00  0.00    +0.292 HD
ENDBRANCH  32  35
ENDBRANCH  28  29
ENDBRANCH  25  27
ENDBRANCH  24  25
ENDBRANCH   5  24
TORSDOF 18
ENDMDL
MODEL 5
REMARK VINA RESULT:      -7.3      3.544      6.815
REMARK  Name = NuBBE_311
REMARK  20 active torsions:
REMARK  status: ('A' for Active; 'I' for Inactive)
REMARK    1  A    between atoms: C_3  and  C_4
REMARK    2  A    between atoms: C_5  and  O_6
REMARK    3  A    between atoms: O_6  and  C_7
REMARK    4  A    between atoms: C_7  and  C_8
REMARK    5  A    between atoms: C_9  and  C_10
REMARK    6  A    between atoms: C_13  and  O_14
REMARK    7  A    between atoms: C_20  and  C_21
REMARK    8  A    between atoms: C_21  and  C_22
REMARK    9  A    between atoms: C_22  and  C_23
REMARK   10  A    between atoms: C_23  and  C_24
REMARK   11  A    between atoms: C_24  and  C_25
REMARK   12  A    between atoms: C_25  and  C_26
REMARK   13  A    between atoms: C_26  and  C_27
REMARK   14  A    between atoms: C_27  and  C_28
REMARK   15  A    between atoms: C_28  and  C_29
REMARK   16  A    between atoms: C_29  and  C_30
REMARK   17  A    between atoms: C_30  and  C_31
REMARK   18  A    between atoms: C_31  and  C_32
REMARK   19  A    between atoms: C_32  and  C_33
REMARK   20  A    between atoms: C_33  and  C_34
REMARK                            x       y       z     vdW  Elec       q    Type
REMARK                         _______ _______ _______ _____ _____    ______ ____
ROOT
ATOM      1  H   LIG A   1      -7.218  -4.575 125.217  0.00  0.00    +0.123 HD
ATOM      2  N   LIG A   1      -7.503  -3.931 124.490  0.00  0.00    -0.307 NA
ATOM      3  C   LIG A   1      -6.546  -2.799 124.421  0.00  0.00    +0.092 C 
ATOM      4  C   LIG A   1      -5.246  -3.431 123.978  0.00  0.00    +0.028 C 
ATOM      5  C   LIG A   1      -6.826  -1.731 123.373  0.00  0.00    +0.193 C 
ATOM      6  C   LIG A   1      -8.289  -1.707 123.244  0.00  0.00    +0.048 C 
ATOM      7  C   LIG A   1      -9.198  -2.911 123.295  0.00  0.00    +0.022 C 
ATOM      8  C   LIG A   1      -8.935  -3.625 124.589  0.00  0.00    +0.054 C 
ENDROOT
BRANCH   8   9
ATOM      9  C   LIG A   1      -9.389  -2.916 125.914  0.00  0.00    +0.019 C 
BRANCH   9  10
ATOM     10  C   LIG A   1      -9.367  -3.736 127.236  0.00  0.00    +0.002 C 
BRANCH  10  11
ATOM     11  C   LIG A   1      -8.177  -3.705 128.228  0.00  0.00    +0.000 C 
BRANCH  11  12
ATOM     12  C   LIG A   1      -8.254  -2.977 129.600  0.00  0.00    -0.000 C 
BRANCH  12  13
ATOM     13  C   LIG A   1      -7.220  -3.285 130.662  0.00  0.00    -0.000 C 
BRANCH  13  14
ATOM     14  C   LIG A   1      -7.324  -2.446 131.917  0.00  0.00    -0.000 C 
BRANCH  14  15
ATOM     15  C   LIG A   1      -7.629  -1.065 132.383  0.00  0.00    -0.000 C 
BRANCH  15  16
ATOM     16  C   LIG A   1      -8.131  -0.002 131.377  0.00  0.00    -0.000 C 
BRANCH  16  17
ATOM     17  C   LIG A   1      -8.475   1.288 132.114  0.00  0.00    +0.000 C 
BRANCH  17  18
ATOM     18  C   LIG A   1      -9.915   1.799 131.879  0.00  0.00    +0.000 C 
BRANCH  18  19
ATOM     19  C   LIG A   1     -10.115   3.006 130.937  0.00  0.00    +0.007 C 
BRANCH  19  20
ATOM     20  C   LIG A   1      -8.821   3.773 130.633  0.00  0.00    +0.074 C 
BRANCH  20  21
ATOM     21  C   LIG A   1      -8.501   3.768 129.148  0.00  0.00    +0.130 C 
ATOM     22  C   LIG A   1      -8.093   2.455 128.523  0.00  0.00    +0.086 C 
ATOM     23  O   LIG A   1      -8.547   4.792 128.467  0.00  0.00    -0.298 OA
ENDBRANCH  20  21
ENDBRANCH  19  20
ENDBRANCH  18  19
ENDBRANCH  17  18
ENDBRANCH  16  17
ENDBRANCH  15  16
ENDBRANCH  14  15
ENDBRANCH  13  14
ENDBRANCH  12  13
ENDBRANCH  11  12
ENDBRANCH  10  11
ENDBRANCH   9  10
ENDBRANCH   8   9
BRANCH   5  24
ATOM     24  O   LIG A   1      -6.472  -0.368 123.767  0.00  0.00    -0.457 OA
BRANCH  24  25
ATOM     25  C   LIG A   1      -6.893  -0.020 125.013  0.00  0.00    +0.332 C 
ATOM     26  O   LIG A   1      -7.951   0.315 125.364  0.00  0.00    -0.246 OA
BRANCH  25  27
ATOM     27  C   LIG A   1      -5.840  -0.233 125.988  0.00  0.00    +0.092 C 
ATOM     28  C   LIG A   1      -6.307  -0.738 127.138  0.00  0.00    +0.015 C 
BRANCH  28  29
ATOM     29  C   LIG A   1      -5.399  -1.115 128.192  0.00  0.00    -0.025 A 
ATOM     30  C   LIG A   1      -5.107  -0.203 129.206  0.00  0.00    +0.011 A 
ATOM     31  C   LIG A   1      -4.279  -0.574 130.245  0.00  0.00    +0.046 A 
ATOM     32  C   LIG A   1      -3.729  -1.850 130.236  0.00  0.00    +0.117 A 
ATOM     33  C   LIG A   1      -3.974  -2.749 129.201  0.00  0.00    +0.046 A 
ATOM     34  C   LIG A   1      -4.816  -2.380 128.163  0.00  0.00    +0.011 A 
BRANCH  32  35
ATOM     35  O   LIG A   1      -2.930  -2.254 131.260  0.00  0.00    -0.507 OA
ATOM     36  H   LIG A   1      -3.262  -3.116 131.563  0.00  0.00    +0.292 HD
ENDBRANCH  32  35
ENDBRANCH  28  29
ENDBRANCH  25  27
ENDBRANCH  24  25
ENDBRANCH   5  24
TORSDOF 18
ENDMDL
MODEL 6
REMARK VINA RESULT:      -7.3      1.209      2.144
REMARK  Name = NuBBE_311
REMARK  20 active torsions:
REMARK  status: ('A' for Active; 'I' for Inactive)
REMARK    1  A    between atoms: C_3  and  C_4
REMARK    2  A    between atoms: C_5  and  O_6
REMARK    3  A    between atoms: O_6  and  C_7
REMARK    4  A    between atoms: C_7  and  C_8
REMARK    5  A    between atoms: C_9  and  C_10
REMARK    6  A    between atoms: C_13  and  O_14
REMARK    7  A    between atoms: C_20  and  C_21
REMARK    8  A    between atoms: C_21  and  C_22
REMARK    9  A    between atoms: C_22  and  C_23
REMARK   10  A    between atoms: C_23  and  C_24
REMARK   11  A    between atoms: C_24  and  C_25
REMARK   12  A    between atoms: C_25  and  C_26
REMARK   13  A    between atoms: C_26  and  C_27
REMARK   14  A    between atoms: C_27  and  C_28
REMARK   15  A    between atoms: C_28  and  C_29
REMARK   16  A    between atoms: C_29  and  C_30
REMARK   17  A    between atoms: C_30  and  C_31
REMARK   18  A    between atoms: C_31  and  C_32
REMARK   19  A    between atoms: C_32  and  C_33
REMARK   20  A    between atoms: C_33  and  C_34
REMARK                            x       y       z     vdW  Elec       q    Type
REMARK                         _______ _______ _______ _____ _____    ______ ____
ROOT
ATOM      1  H   LIG A   1      -6.747  -3.532 125.371  0.00  0.00    +0.123 HD
ATOM      2  N   LIG A   1      -7.330  -3.061 124.690  0.00  0.00    -0.307 NA
ATOM      3  C   LIG A   1      -7.050  -1.603 124.715  0.00  0.00    +0.092 C 
ATOM      4  C   LIG A   1      -5.619  -1.486 124.240  0.00  0.00    +0.028 C 
ATOM      5  C   LIG A   1      -7.845  -0.738 123.747  0.00  0.00    +0.193 C 
ATOM      6  C   LIG A   1      -9.136  -1.424 123.605  0.00  0.00    +0.048 C 
ATOM      7  C   LIG A   1      -9.339  -2.919 123.557  0.00  0.00    +0.022 C 
ATOM      8  C   LIG A   1      -8.725  -3.502 124.798  0.00  0.00    +0.054 C 
ENDROOT
BRANCH   8   9
ATOM      9  C   LIG A   1      -9.432  -3.200 126.167  0.00  0.00    +0.019 C 
BRANCH   9  10
ATOM     10  C   LIG A   1      -8.897  -3.908 127.446  0.00  0.00    +0.002 C 
BRANCH  10  11
ATOM     11  C   LIG A   1      -7.876  -3.251 128.408  0.00  0.00    +0.000 C 
BRANCH  11  12
ATOM     12  C   LIG A   1      -8.083  -1.826 128.996  0.00  0.00    -0.000 C 
BRANCH  12  13
ATOM     13  C   LIG A   1      -7.594  -0.624 128.217  0.00  0.00    -0.000 C 
BRANCH  13  14
ATOM     14  C   LIG A   1      -6.107  -0.362 128.310  0.00  0.00    -0.000 C 
BRANCH  14  15
ATOM     15  C   LIG A   1      -5.011  -0.163 129.299  0.00  0.00    -0.000 C 
BRANCH  15  16
ATOM     16  C   LIG A   1      -4.477  -1.363 130.116  0.00  0.00    -0.000 C 
BRANCH  16  17
ATOM     17  C   LIG A   1      -4.113  -2.509 129.177  0.00  0.00    +0.000 C 
BRANCH  17  18
ATOM     18  C   LIG A   1      -4.321  -3.919 129.773  0.00  0.00    +0.000 C 
BRANCH  18  19
ATOM     19  C   LIG A   1      -5.418  -4.104 130.843  0.00  0.00    +0.007 C 
BRANCH  19  20
ATOM     20  C   LIG A   1      -4.948  -4.879 132.082  0.00  0.00    +0.074 C 
BRANCH  20  21
ATOM     21  C   LIG A   1      -3.902  -4.104 132.865  0.00  0.00    +0.130 C 
ATOM     22  C   LIG A   1      -4.310  -2.774 133.454  0.00  0.00    +0.086 C 
ATOM     23  O   LIG A   1      -2.752  -4.520 133.007  0.00  0.00    -0.298 OA
ENDBRANCH  20  21
ENDBRANCH  19  20
ENDBRANCH  18  19
ENDBRANCH  17  18
ENDBRANCH  16  17
ENDBRANCH  15  16
ENDBRANCH  14  15
ENDBRANCH  13  14
ENDBRANCH  12  13
ENDBRANCH  11  12
ENDBRANCH  10  11
ENDBRANCH   9  10
ENDBRANCH   8   9
BRANCH   5  24
ATOM     24  O   LIG A   1      -8.191   0.592 124.245  0.00  0.00    -0.457 OA
BRANCH  24  25
ATOM     25  C   LIG A   1      -7.187   1.504 124.144  0.00  0.00    +0.332 C 
ATOM     26  O   LIG A   1      -6.264   1.660 124.835  0.00  0.00    -0.246 OA
BRANCH  25  27
ATOM     27  C   LIG A   1      -7.310   2.269 122.917  0.00  0.00    +0.092 C 
ATOM     28  C   LIG A   1      -6.267   3.086 122.721  0.00  0.00    +0.015 C 
BRANCH  28  29
ATOM     29  C   LIG A   1      -6.157   3.851 121.505  0.00  0.00    -0.025 A 
ATOM     30  C   LIG A   1      -5.040   4.662 121.301  0.00  0.00    +0.011 A 
ATOM     31  C   LIG A   1      -4.904   5.357 120.118  0.00  0.00    +0.046 A 
ATOM     32  C   LIG A   1      -5.909   5.254 119.164  0.00  0.00    +0.117 A 
ATOM     33  C   LIG A   1      -7.052   4.488 119.380  0.00  0.00    +0.046 A 
ATOM     34  C   LIG A   1      -7.183   3.779 120.564  0.00  0.00    +0.011 A 
BRANCH  32  35
ATOM     35  O   LIG A   1      -5.790   5.907 117.977  0.00  0.00    -0.507 OA
ATOM     36  H   LIG A   1      -5.886   5.245 117.272  0.00  0.00    +0.292 HD
ENDBRANCH  32  35
ENDBRANCH  28  29
ENDBRANCH  25  27
ENDBRANCH  24  25
ENDBRANCH   5  24
TORSDOF 18
ENDMDL
MODEL 7
REMARK VINA RESULT:      -7.3      2.838      4.657
REMARK  Name = NuBBE_311
REMARK  20 active torsions:
REMARK  status: ('A' for Active; 'I' for Inactive)
REMARK    1  A    between atoms: C_3  and  C_4
REMARK    2  A    between atoms: C_5  and  O_6
REMARK    3  A    between atoms: O_6  and  C_7
REMARK    4  A    between atoms: C_7  and  C_8
REMARK    5  A    between atoms: C_9  and  C_10
REMARK    6  A    between atoms: C_13  and  O_14
REMARK    7  A    between atoms: C_20  and  C_21
REMARK    8  A    between atoms: C_21  and  C_22
REMARK    9  A    between atoms: C_22  and  C_23
REMARK   10  A    between atoms: C_23  and  C_24
REMARK   11  A    between atoms: C_24  and  C_25
REMARK   12  A    between atoms: C_25  and  C_26
REMARK   13  A    between atoms: C_26  and  C_27
REMARK   14  A    between atoms: C_27  and  C_28
REMARK   15  A    between atoms: C_28  and  C_29
REMARK   16  A    between atoms: C_29  and  C_30
REMARK   17  A    between atoms: C_30  and  C_31
REMARK   18  A    between atoms: C_31  and  C_32
REMARK   19  A    between atoms: C_32  and  C_33
REMARK   20  A    between atoms: C_33  and  C_34
REMARK                            x       y       z     vdW  Elec       q    Type
REMARK                         _______ _______ _______ _____ _____    ______ ____
ROOT
ATOM      1  H   LIG A   1      -6.457  -2.940 126.345  0.00  0.00    +0.123 HD
ATOM      2  N   LIG A   1      -7.062  -2.847 125.539  0.00  0.00    -0.307 NA
ATOM      3  C   LIG A   1      -7.305  -1.410 125.259  0.00  0.00    +0.092 C 
ATOM      4  C   LIG A   1      -5.949  -0.868 124.868  0.00  0.00    +0.028 C 
ATOM      5  C   LIG A   1      -8.201  -1.087 124.072  0.00  0.00    +0.193 C 
ATOM      6  C   LIG A   1      -9.145  -2.210 123.998  0.00  0.00    +0.048 C 
ATOM      7  C   LIG A   1      -8.815  -3.658 124.269  0.00  0.00    +0.022 C 
ATOM      8  C   LIG A   1      -8.222  -3.739 125.646  0.00  0.00    +0.054 C 
ENDROOT
BRANCH   8   9
ATOM      9  C   LIG A   1      -9.177  -3.471 126.863  0.00  0.00    +0.019 C 
BRANCH   9  10
ATOM     10  C   LIG A   1      -8.700  -3.893 128.284  0.00  0.00    +0.002 C 
BRANCH  10  11
ATOM     11  C   LIG A   1      -7.920  -2.942 129.227  0.00  0.00    +0.000 C 
BRANCH  11  12
ATOM     12  C   LIG A   1      -7.441  -1.532 128.778  0.00  0.00    -0.000 C 
BRANCH  12  13
ATOM     13  C   LIG A   1      -7.698  -0.341 129.676  0.00  0.00    -0.000 C 
BRANCH  13  14
ATOM     14  C   LIG A   1      -8.087   0.931 128.956  0.00  0.00    -0.000 C 
BRANCH  14  15
ATOM     15  C   LIG A   1      -8.580   1.432 127.643  0.00  0.00    -0.000 C 
BRANCH  15  16
ATOM     16  C   LIG A   1      -7.589   2.047 126.626  0.00  0.00    -0.000 C 
BRANCH  16  17
ATOM     17  C   LIG A   1      -6.171   1.986 127.182  0.00  0.00    +0.000 C 
BRANCH  17  18
ATOM     18  C   LIG A   1      -5.121   2.759 126.353  0.00  0.00    +0.000 C 
BRANCH  18  19
ATOM     19  C   LIG A   1      -3.659   2.762 126.849  0.00  0.00    +0.007 C 
BRANCH  19  20
ATOM     20  C   LIG A   1      -3.015   4.155 126.865  0.00  0.00    +0.074 C 
BRANCH  20  21
ATOM     21  C   LIG A   1      -3.675   5.067 127.885  0.00  0.00    +0.130 C 
ATOM     22  C   LIG A   1      -3.759   4.579 129.312  0.00  0.00    +0.086 C 
ATOM     23  O   LIG A   1      -4.148   6.160 127.573  0.00  0.00    -0.298 OA
ENDBRANCH  20  21
ENDBRANCH  19  20
ENDBRANCH  18  19
ENDBRANCH  17  18
ENDBRANCH  16  17
ENDBRANCH  15  16
ENDBRANCH  14  15
ENDBRANCH  13  14
ENDBRANCH  12  13
ENDBRANCH  11  12
ENDBRANCH  10  11
ENDBRANCH   9  10
ENDBRANCH   8   9
BRANCH   5  24
ATOM     24  O   LIG A   1      -9.049   0.092 124.237  0.00  0.00    -0.457 OA
BRANCH  24  25
ATOM     25  C   LIG A   1      -9.246   0.802 123.094  0.00  0.00    +0.332 C 
ATOM     26  O   LIG A   1     -10.241   1.034 122.537  0.00  0.00    -0.246 OA
BRANCH  25  27
ATOM     27  C   LIG A   1      -8.006   1.404 122.642  0.00  0.00    +0.092 C 
ATOM     28  C   LIG A   1      -8.125   2.722 122.439  0.00  0.00    +0.015 C 
BRANCH  28  29
ATOM     29  C   LIG A   1      -6.973   3.514 122.088  0.00  0.00    -0.025 A 
ATOM     30  C   LIG A   1      -6.748   3.845 120.751  0.00  0.00    +0.011 A 
ATOM     31  C   LIG A   1      -5.676   4.645 120.415  0.00  0.00    +0.046 A 
ATOM     32  C   LIG A   1      -4.824   5.078 121.423  0.00  0.00    +0.117 A 
ATOM     33  C   LIG A   1      -5.011   4.710 122.753  0.00  0.00    +0.046 A 
ATOM     34  C   LIG A   1      -6.096   3.916 123.094  0.00  0.00    +0.011 A 
BRANCH  32  35
ATOM     35  O   LIG A   1      -3.774   5.889 121.125  0.00  0.00    -0.507 OA
ATOM     36  H   LIG A   1      -3.533   5.721 120.198  0.00  0.00    +0.292 HD
ENDBRANCH  32  35
ENDBRANCH  28  29
ENDBRANCH  25  27
ENDBRANCH  24  25
ENDBRANCH   5  24
TORSDOF 18
ENDMDL
MODEL 8
REMARK VINA RESULT:      -7.1      2.523      4.150
REMARK  Name = NuBBE_311
REMARK  20 active torsions:
REMARK  status: ('A' for Active; 'I' for Inactive)
REMARK    1  A    between atoms: C_3  and  C_4
REMARK    2  A    between atoms: C_5  and  O_6
REMARK    3  A    between atoms: O_6  and  C_7
REMARK    4  A    between atoms: C_7  and  C_8
REMARK    5  A    between atoms: C_9  and  C_10
REMARK    6  A    between atoms: C_13  and  O_14
REMARK    7  A    between atoms: C_20  and  C_21
REMARK    8  A    between atoms: C_21  and  C_22
REMARK    9  A    between atoms: C_22  and  C_23
REMARK   10  A    between atoms: C_23  and  C_24
REMARK   11  A    between atoms: C_24  and  C_25
REMARK   12  A    between atoms: C_25  and  C_26
REMARK   13  A    between atoms: C_26  and  C_27
REMARK   14  A    between atoms: C_27  and  C_28
REMARK   15  A    between atoms: C_28  and  C_29
REMARK   16  A    between atoms: C_29  and  C_30
REMARK   17  A    between atoms: C_30  and  C_31
REMARK   18  A    between atoms: C_31  and  C_32
REMARK   19  A    between atoms: C_32  and  C_33
REMARK   20  A    between atoms: C_33  and  C_34
REMARK                            x       y       z     vdW  Elec       q    Type
REMARK                         _______ _______ _______ _____ _____    ______ ____
ROOT
ATOM      1  H   LIG A   1      -6.507  -2.969 126.078  0.00  0.00    +0.123 HD
ATOM      2  N   LIG A   1      -6.976  -2.535 125.294  0.00  0.00    -0.307 NA
ATOM      3  C   LIG A   1      -6.989  -1.061 125.472  0.00  0.00    +0.092 C 
ATOM      4  C   LIG A   1      -5.533  -0.660 125.404  0.00  0.00    +0.028 C 
ATOM      5  C   LIG A   1      -7.661  -0.247 124.376  0.00  0.00    +0.193 C 
ATOM      6  C   LIG A   1      -8.723  -1.119 123.857  0.00  0.00    +0.048 C 
ATOM      7  C   LIG A   1      -8.623  -2.614 123.675  0.00  0.00    +0.022 C 
ATOM      8  C   LIG A   1      -8.245  -3.210 125.001  0.00  0.00    +0.054 C 
ENDROOT
BRANCH   8   9
ATOM      9  C   LIG A   1      -9.318  -3.171 126.146  0.00  0.00    +0.019 C 
BRANCH   9  10
ATOM     10  C   LIG A   1      -8.996  -3.894 127.486  0.00  0.00    +0.002 C 
BRANCH  10  11
ATOM     11  C   LIG A   1      -8.412  -3.160 128.720  0.00  0.00    +0.000 C 
BRANCH  11  12
ATOM     12  C   LIG A   1      -6.891  -2.880 128.880  0.00  0.00    -0.000 C 
BRANCH  12  13
ATOM     13  C   LIG A   1      -6.243  -3.061 130.236  0.00  0.00    -0.000 C 
BRANCH  13  14
ATOM     14  C   LIG A   1      -7.123  -2.716 131.417  0.00  0.00    -0.000 C 
BRANCH  14  15
ATOM     15  C   LIG A   1      -7.679  -1.555 132.167  0.00  0.00    -0.000 C 
BRANCH  15  16
ATOM     16  C   LIG A   1      -7.920  -0.210 131.443  0.00  0.00    -0.000 C 
BRANCH  16  17
ATOM     17  C   LIG A   1      -9.247   0.392 131.892  0.00  0.00    +0.000 C 
BRANCH  17  18
ATOM     18  C   LIG A   1      -9.252   1.933 131.999  0.00  0.00    +0.000 C 
BRANCH  18  19
ATOM     19  C   LIG A   1      -8.654   2.746 130.830  0.00  0.00    +0.007 C 
BRANCH  19  20
ATOM     20  C   LIG A   1      -9.670   3.659 130.130  0.00  0.00    +0.074 C 
BRANCH  20  21
ATOM     21  C   LIG A   1      -9.033   4.961 129.672  0.00  0.00    +0.130 C 
ATOM     22  C   LIG A   1      -8.445   5.864 130.730  0.00  0.00    +0.086 C 
ATOM     23  O   LIG A   1      -9.008   5.293 128.487  0.00  0.00    -0.298 OA
ENDBRANCH  20  21
ENDBRANCH  19  20
ENDBRANCH  18  19
ENDBRANCH  17  18
ENDBRANCH  16  17
ENDBRANCH  15  16
ENDBRANCH  14  15
ENDBRANCH  13  14
ENDBRANCH  12  13
ENDBRANCH  11  12
ENDBRANCH  10  11
ENDBRANCH   9  10
ENDBRANCH   8   9
BRANCH   5  24
ATOM     24  O   LIG A   1      -8.364   0.950 124.835  0.00  0.00    -0.457 OA
BRANCH  24  25
ATOM     25  C   LIG A   1      -7.581   2.059 124.919  0.00  0.00    +0.332 C 
ATOM     26  O   LIG A   1      -6.888   2.405 125.788  0.00  0.00    -0.246 OA
BRANCH  25  27
ATOM     27  C   LIG A   1      -7.592   2.791 123.666  0.00  0.00    +0.092 C 
ATOM     28  C   LIG A   1      -6.358   3.109 123.253  0.00  0.00    +0.015 C 
BRANCH  28  29
ATOM     29  C   LIG A   1      -6.157   3.746 121.976  0.00  0.00    -0.025 A 
ATOM     30  C   LIG A   1      -7.127   3.613 120.982  0.00  0.00    +0.011 A 
ATOM     31  C   LIG A   1      -6.965   4.262 119.776  0.00  0.00    +0.046 A 
ATOM     32  C   LIG A   1      -5.815   5.014 119.572  0.00  0.00    +0.117 A 
ATOM     33  C   LIG A   1      -4.817   5.110 120.539  0.00  0.00    +0.046 A 
ATOM     34  C   LIG A   1      -4.986   4.468 121.757  0.00  0.00    +0.011 A 
BRANCH  32  35
ATOM     35  O   LIG A   1      -5.639   5.686 118.402  0.00  0.00    -0.507 OA
ATOM     36  H   LIG A   1      -4.756   5.459 118.067  0.00  0.00    +0.292 HD
ENDBRANCH  32  35
ENDBRANCH  28  29
ENDBRANCH  25  27
ENDBRANCH  24  25
ENDBRANCH   5  24
TORSDOF 18
ENDMDL
MODEL 9
REMARK VINA RESULT:      -7.1      2.066      3.380
REMARK  Name = NuBBE_311
REMARK  20 active torsions:
REMARK  status: ('A' for Active; 'I' for Inactive)
REMARK    1  A    between atoms: C_3  and  C_4
REMARK    2  A    between atoms: C_5  and  O_6
REMARK    3  A    between atoms: O_6  and  C_7
REMARK    4  A    between atoms: C_7  and  C_8
REMARK    5  A    between atoms: C_9  and  C_10
REMARK    6  A    between atoms: C_13  and  O_14
REMARK    7  A    between atoms: C_20  and  C_21
REMARK    8  A    between atoms: C_21  and  C_22
REMARK    9  A    between atoms: C_22  and  C_23
REMARK   10  A    between atoms: C_23  and  C_24
REMARK   11  A    between atoms: C_24  and  C_25
REMARK   12  A    between atoms: C_25  and  C_26
REMARK   13  A    between atoms: C_26  and  C_27
REMARK   14  A    between atoms: C_27  and  C_28
REMARK   15  A    between atoms: C_28  and  C_29
REMARK   16  A    between atoms: C_29  and  C_30
REMARK   17  A    between atoms: C_30  and  C_31
REMARK   18  A    between atoms: C_31  and  C_32
REMARK   19  A    between atoms: C_32  and  C_33
REMARK   20  A    between atoms: C_33  and  C_34
REMARK                            x       y       z     vdW  Elec       q    Type
REMARK                         _______ _______ _______ _____ _____    ______ ____
ROOT
ATOM      1  H   LIG A   1      -6.662  -3.667 125.545  0.00  0.00    +0.123 HD
ATOM      2  N   LIG A   1      -7.196  -3.172 124.842  0.00  0.00    -0.307 NA
ATOM      3  C   LIG A   1      -6.897  -1.720 124.918  0.00  0.00    +0.092 C 
ATOM      4  C   LIG A   1      -5.439  -1.614 124.533  0.00  0.00    +0.028 C 
ATOM      5  C   LIG A   1      -7.621  -0.821 123.925  0.00  0.00    +0.193 C 
ATOM      6  C   LIG A   1      -8.910  -1.484 123.690  0.00  0.00    +0.048 C 
ATOM      7  C   LIG A   1      -9.131  -2.974 123.595  0.00  0.00    +0.022 C 
ATOM      8  C   LIG A   1      -8.601  -3.594 124.855  0.00  0.00    +0.054 C 
ENDROOT
BRANCH   8   9
ATOM      9  C   LIG A   1      -9.385  -3.312 126.186  0.00  0.00    +0.019 C 
BRANCH   9  10
ATOM     10  C   LIG A   1      -8.984  -4.109 127.462  0.00  0.00    +0.002 C 
BRANCH  10  11
ATOM     11  C   LIG A   1      -8.702  -3.430 128.826  0.00  0.00    +0.000 C 
BRANCH  11  12
ATOM     12  C   LIG A   1      -7.263  -3.259 129.390  0.00  0.00    -0.000 C 
BRANCH  12  13
ATOM     13  C   LIG A   1      -7.065  -3.102 130.882  0.00  0.00    -0.000 C 
BRANCH  13  14
ATOM     14  C   LIG A   1      -6.670  -1.713 131.332  0.00  0.00    -0.000 C 
BRANCH  14  15
ATOM     15  C   LIG A   1      -6.726  -0.284 130.914  0.00  0.00    -0.000 C 
BRANCH  15  16
ATOM     16  C   LIG A   1      -7.971   0.258 130.173  0.00  0.00    -0.000 C 
BRANCH  16  17
ATOM     17  C   LIG A   1      -7.645   0.477 128.700  0.00  0.00    +0.000 C 
BRANCH  17  18
ATOM     18  C   LIG A   1      -7.425   1.954 128.302  0.00  0.00    +0.000 C 
BRANCH  18  19
ATOM     19  C   LIG A   1      -6.147   2.661 128.801  0.00  0.00    +0.007 C 
BRANCH  19  20
ATOM     20  C   LIG A   1      -4.850   2.057 128.244  0.00  0.00    +0.074 C 
BRANCH  20  21
ATOM     21  C   LIG A   1      -3.937   3.125 127.664  0.00  0.00    +0.130 C 
ATOM     22  C   LIG A   1      -4.566   4.187 126.793  0.00  0.00    +0.086 C 
ATOM     23  O   LIG A   1      -2.724   3.127 127.869  0.00  0.00    -0.298 OA
ENDBRANCH  20  21
ENDBRANCH  19  20
ENDBRANCH  18  19
ENDBRANCH  17  18
ENDBRANCH  16  17
ENDBRANCH  15  16
ENDBRANCH  14  15
ENDBRANCH  13  14
ENDBRANCH  12  13
ENDBRANCH  11  12
ENDBRANCH  10  11
ENDBRANCH   9  10
ENDBRANCH   8   9
BRANCH   5  24
ATOM     24  O   LIG A   1      -7.977   0.502 124.432  0.00  0.00    -0.457 OA
BRANCH  24  25
ATOM     25  C   LIG A   1      -6.998   1.436 124.291  0.00  0.00    +0.332 C 
ATOM     26  O   LIG A   1      -6.145   1.723 125.029  0.00  0.00    -0.246 OA
BRANCH  25  27
ATOM     27  C   LIG A   1      -7.038   2.026 122.966  0.00  0.00    +0.092 C 
ATOM     28  C   LIG A   1      -6.329   3.159 122.893  0.00  0.00    +0.015 C 
BRANCH  28  29
ATOM     29  C   LIG A   1      -6.163   3.837 121.631  0.00  0.00    -0.025 A 
ATOM     30  C   LIG A   1      -7.139   3.699 120.644  0.00  0.00    +0.011 A 
ATOM     31  C   LIG A   1      -7.012   4.384 119.454  0.00  0.00    +0.046 A 
ATOM     32  C   LIG A   1      -5.888   5.178 119.258  0.00  0.00    +0.117 A 
ATOM     33  C   LIG A   1      -4.884   5.280 120.217  0.00  0.00    +0.046 A 
ATOM     34  C   LIG A   1      -5.017   4.601 121.419  0.00  0.00    +0.011 A 
BRANCH  32  35
ATOM     35  O   LIG A   1      -5.748   5.886 118.106  0.00  0.00    -0.507 OA
ATOM     36  H   LIG A   1      -5.582   6.811 118.353  0.00  0.00    +0.292 HD
ENDBRANCH  32  35
ENDBRANCH  28  29
ENDBRANCH  25  27
ENDBRANCH  24  25
ENDBRANCH   5  24
TORSDOF 18
ENDMDL
