MODEL 1
REMARK VINA RESULT:      -8.7      0.000      0.000
REMARK  Name = NuBBE_2306
REMARK  8 active torsions:
REMARK  status: ('A' for Active; 'I' for Inactive)
REMARK    1  A    between atoms: C_5  and  C_6
REMARK    2  A    between atoms: C_8  and  C_25
REMARK    3  A    between atoms: C_12  and  C_20
REMARK    4  A    between atoms: C_12  and  O_23
REMARK    5  A    between atoms: C_15  and  O_18
REMARK    6  A    between atoms: O_18  and  C_19
REMARK    7  A    between atoms: C_20  and  C_21
REMARK    8  A    between atoms: O_23  and  C_24
REMARK                            x       y       z     vdW  Elec       q    Type
REMARK                         _______ _______ _______ _____ _____    ______ ____
ROOT
ATOM      1  C   LIG A   1      -6.889   2.932 124.321  0.00  0.00    +0.211 C 
ATOM      2  C   LIG A   1      -5.879   1.958 124.946  0.00  0.00    +0.065 C 
ATOM      3  C   LIG A   1      -6.596   0.656 124.836  0.00  0.00    +0.004 C 
ATOM      4  C   LIG A   1      -6.114  -0.567 125.076  0.00  0.00    +0.023 C 
ATOM      5  C   LIG A   1      -6.967  -1.813 125.007  0.00  0.00    +0.156 C 
ATOM      6  C   LIG A   1      -8.481  -1.466 124.735  0.00  0.00    +0.237 C 
ATOM      7  O   LIG A   1      -9.370  -2.329 124.833  0.00  0.00    -0.285 OA
ATOM      8  C   LIG A   1      -8.872  -0.073 124.287  0.00  0.00    +0.208 C 
ATOM      9  C   LIG A   1      -7.936   0.894 124.405  0.00  0.00    +0.170 C 
ATOM     10  O   LIG A   1      -8.132   2.223 124.104  0.00  0.00    -0.480 OA
ATOM     11  C   LIG A   1      -5.593   2.307 126.407  0.00  0.00    +0.016 C 
ENDROOT
BRANCH   1  16
ATOM     12  C   LIG A   1      -4.706   4.796 121.758  0.00  0.00    +0.050 A 
ATOM     13  C   LIG A   1      -5.526   4.708 120.657  0.00  0.00    +0.166 A 
ATOM     14  C   LIG A   1      -6.743   4.072 120.710  0.00  0.00    +0.167 A 
ATOM     15  C   LIG A   1      -7.209   3.486 121.870  0.00  0.00    +0.056 A 
ATOM     16  C   LIG A   1      -6.401   3.550 123.021  0.00  0.00    -0.003 A 
ATOM     17  C   LIG A   1      -5.153   4.216 122.948  0.00  0.00    +0.011 A 
ATOM     18  O   LIG A   1      -7.392   4.101 119.516  0.00  0.00    -0.453 OA
ATOM     19  C   LIG A   1      -6.451   4.845 118.711  0.00  0.00    +0.466 C 
ATOM     20  O   LIG A   1      -5.256   5.220 119.427  0.00  0.00    -0.453 OA
ENDBRANCH   1  16
BRANCH   8  21
ATOM     21  O   LIG A   1     -10.155   0.059 123.812  0.00  0.00    -0.488 OA
ATOM     22  C   LIG A   1     -10.363   0.396 122.446  0.00  0.00    +0.277 C 
ENDBRANCH   8  21
BRANCH   5  23
ATOM     23  O   LIG A   1      -6.704  -2.411 126.283  0.00  0.00    -0.364 OA
ATOM     24  C   LIG A   1      -5.684  -1.853 127.091  0.00  0.00    +0.195 C 
ENDBRANCH   5  23
BRANCH   5  25
ATOM     25  C   LIG A   1      -6.517  -2.695 123.802  0.00  0.00    +0.074 C 
BRANCH  25  26
ATOM     26  C   LIG A   1      -5.030  -2.927 123.671  0.00  0.00    -0.031 C 
ATOM     27  C   LIG A   1      -4.450  -4.135 123.658  0.00  0.00    +0.004 C 
ENDBRANCH  25  26
ENDBRANCH   5  25
TORSDOF 5
ENDMDL
MODEL 2
REMARK VINA RESULT:      -8.1      3.706      8.321
REMARK  Name = NuBBE_2306
REMARK  8 active torsions:
REMARK  status: ('A' for Active; 'I' for Inactive)
REMARK    1  A    between atoms: C_5  and  C_6
REMARK    2  A    between atoms: C_8  and  C_25
REMARK    3  A    between atoms: C_12  and  C_20
REMARK    4  A    between atoms: C_12  and  O_23
REMARK    5  A    between atoms: C_15  and  O_18
REMARK    6  A    between atoms: O_18  and  C_19
REMARK    7  A    between atoms: C_20  and  C_21
REMARK    8  A    between atoms: O_23  and  C_24
REMARK                            x       y       z     vdW  Elec       q    Type
REMARK                         _______ _______ _______ _____ _____    ______ ____
ROOT
ATOM      1  C   LIG A   1      -7.418  -2.333 128.493  0.00  0.00    +0.211 C 
ATOM      2  C   LIG A   1      -7.786  -3.351 127.405  0.00  0.00    +0.065 C 
ATOM      3  C   LIG A   1      -7.451  -2.608 126.158  0.00  0.00    +0.004 C 
ATOM      4  C   LIG A   1      -7.417  -3.078 124.907  0.00  0.00    +0.023 C 
ATOM      5  C   LIG A   1      -7.139  -2.200 123.708  0.00  0.00    +0.156 C 
ATOM      6  C   LIG A   1      -7.015  -0.682 124.115  0.00  0.00    +0.237 C 
ATOM      7  O   LIG A   1      -6.979   0.217 123.259  0.00  0.00    -0.285 OA
ATOM      8  C   LIG A   1      -6.875  -0.297 125.574  0.00  0.00    +0.208 C 
ATOM      9  C   LIG A   1      -7.141  -1.254 126.489  0.00  0.00    +0.170 C 
ATOM     10  O   LIG A   1      -7.122  -1.069 127.853  0.00  0.00    -0.480 OA
ATOM     11  C   LIG A   1      -9.272  -3.709 127.449  0.00  0.00    +0.016 C 
ENDROOT
BRANCH   1  16
ATOM     12  C   LIG A   1      -3.831  -3.022 129.703  0.00  0.00    +0.050 A 
ATOM     13  C   LIG A   1      -4.111  -3.608 130.915  0.00  0.00    +0.166 A 
ATOM     14  C   LIG A   1      -5.401  -3.783 131.354  0.00  0.00    +0.167 A 
ATOM     15  C   LIG A   1      -6.488  -3.380 130.603  0.00  0.00    +0.056 A 
ATOM     16  C   LIG A   1      -6.247  -2.773 129.356  0.00  0.00    -0.003 A 
ATOM     17  C   LIG A   1      -4.910  -2.608 128.918  0.00  0.00    +0.011 A 
ATOM     18  O   LIG A   1      -5.454  -4.382 132.574  0.00  0.00    -0.453 OA
ATOM     19  C   LIG A   1      -4.049  -4.579 132.842  0.00  0.00    +0.466 C 
ATOM     20  O   LIG A   1      -3.190  -4.075 131.799  0.00  0.00    -0.453 OA
ENDBRANCH   1  16
BRANCH   8  21
ATOM     21  O   LIG A   1      -6.497   1.004 125.810  0.00  0.00    -0.488 OA
ATOM     22  C   LIG A   1      -5.149   1.287 126.162  0.00  0.00    +0.277 C 
ENDBRANCH   8  21
BRANCH   5  23
ATOM     23  O   LIG A   1      -8.255  -2.509 122.863  0.00  0.00    -0.364 OA
ATOM     24  C   LIG A   1      -9.359  -3.193 123.427  0.00  0.00    +0.195 C 
ENDBRANCH   5  23
BRANCH   5  25
ATOM     25  C   LIG A   1      -5.762  -2.581 123.084  0.00  0.00    +0.074 C 
BRANCH  25  26
ATOM     26  C   LIG A   1      -4.875  -3.468 123.926  0.00  0.00    -0.031 C 
ATOM     27  C   LIG A   1      -4.319  -4.608 123.497  0.00  0.00    +0.004 C 
ENDBRANCH  25  26
ENDBRANCH   5  25
TORSDOF 5
ENDMDL
MODEL 3
REMARK VINA RESULT:      -7.7      4.177      8.662
REMARK  Name = NuBBE_2306
REMARK  8 active torsions:
REMARK  status: ('A' for Active; 'I' for Inactive)
REMARK    1  A    between atoms: C_5  and  C_6
REMARK    2  A    between atoms: C_8  and  C_25
REMARK    3  A    between atoms: C_12  and  C_20
REMARK    4  A    between atoms: C_12  and  O_23
REMARK    5  A    between atoms: C_15  and  O_18
REMARK    6  A    between atoms: O_18  and  C_19
REMARK    7  A    between atoms: C_20  and  C_21
REMARK    8  A    between atoms: O_23  and  C_24
REMARK                            x       y       z     vdW  Elec       q    Type
REMARK                         _______ _______ _______ _____ _____    ______ ____
ROOT
ATOM      1  C   LIG A   1      -7.859  -2.687 129.524  0.00  0.00    +0.211 C 
ATOM      2  C   LIG A   1      -8.067  -3.572 128.286  0.00  0.00    +0.065 C 
ATOM      3  C   LIG A   1      -7.838  -2.607 127.174  0.00  0.00    +0.004 C 
ATOM      4  C   LIG A   1      -7.729  -2.871 125.869  0.00  0.00    +0.023 C 
ATOM      5  C   LIG A   1      -7.576  -1.792 124.822  0.00  0.00    +0.156 C 
ATOM      6  C   LIG A   1      -7.680  -0.351 125.454  0.00  0.00    +0.237 C 
ATOM      7  O   LIG A   1      -7.772   0.663 124.743  0.00  0.00    -0.285 OA
ATOM      8  C   LIG A   1      -7.605  -0.175 126.958  0.00  0.00    +0.208 C 
ATOM      9  C   LIG A   1      -7.733  -1.289 127.712  0.00  0.00    +0.170 C 
ATOM     10  O   LIG A   1      -7.749  -1.311 129.088  0.00  0.00    -0.480 OA
ATOM     11  C   LIG A   1      -9.484  -4.143 128.236  0.00  0.00    +0.016 C 
ENDROOT
BRANCH   1  16
ATOM     12  C   LIG A   1      -4.994  -4.757 131.046  0.00  0.00    +0.050 A 
ATOM     13  C   LIG A   1      -4.439  -3.804 131.867  0.00  0.00    +0.166 A 
ATOM     14  C   LIG A   1      -4.947  -2.529 131.943  0.00  0.00    +0.167 A 
ATOM     15  C   LIG A   1      -6.042  -2.135 131.200  0.00  0.00    +0.056 A 
ATOM     16  C   LIG A   1      -6.641  -3.079 130.344  0.00  0.00    -0.003 A 
ATOM     17  C   LIG A   1      -6.107  -4.390 130.285  0.00  0.00    +0.011 A 
ATOM     18  O   LIG A   1      -4.252  -1.749 132.813  0.00  0.00    -0.453 OA
ATOM     19  C   LIG A   1      -3.261  -2.685 133.288  0.00  0.00    +0.466 C 
ATOM     20  O   LIG A   1      -3.364  -3.988 132.679  0.00  0.00    -0.453 OA
ENDBRANCH   1  16
BRANCH   8  21
ATOM     21  O   LIG A   1      -7.425   1.115 127.395  0.00  0.00    -0.488 OA
ATOM     22  C   LIG A   1      -8.529   1.830 127.936  0.00  0.00    +0.277 C 
ENDBRANCH   8  21
BRANCH   5  23
ATOM     23  O   LIG A   1      -8.630  -2.127 123.909  0.00  0.00    -0.364 OA
ATOM     24  C   LIG A   1      -8.369  -2.046 122.520  0.00  0.00    +0.195 C 
ENDBRANCH   5  23
BRANCH   5  25
ATOM     25  C   LIG A   1      -6.155  -1.869 124.186  0.00  0.00    +0.074 C 
BRANCH  25  26
ATOM     26  C   LIG A   1      -5.398  -3.157 124.412  0.00  0.00    -0.031 C 
ATOM     27  C   LIG A   1      -4.570  -3.716 123.519  0.00  0.00    +0.004 C 
ENDBRANCH  25  26
ENDBRANCH   5  25
TORSDOF 5
ENDMDL
MODEL 4
REMARK VINA RESULT:      -7.4      3.195      4.574
REMARK  Name = NuBBE_2306
REMARK  8 active torsions:
REMARK  status: ('A' for Active; 'I' for Inactive)
REMARK    1  A    between atoms: C_5  and  C_6
REMARK    2  A    between atoms: C_8  and  C_25
REMARK    3  A    between atoms: C_12  and  C_20
REMARK    4  A    between atoms: C_12  and  O_23
REMARK    5  A    between atoms: C_15  and  O_18
REMARK    6  A    between atoms: O_18  and  C_19
REMARK    7  A    between atoms: C_20  and  C_21
REMARK    8  A    between atoms: O_23  and  C_24
REMARK                            x       y       z     vdW  Elec       q    Type
REMARK                         _______ _______ _______ _____ _____    ______ ____
ROOT
ATOM      1  C   LIG A   1      -6.872   1.782 127.181  0.00  0.00    +0.211 C 
ATOM      2  C   LIG A   1      -6.590   0.322 127.562  0.00  0.00    +0.065 C 
ATOM      3  C   LIG A   1      -6.795  -0.382 126.265  0.00  0.00    +0.004 C 
ATOM      4  C   LIG A   1      -6.521  -1.657 125.971  0.00  0.00    +0.023 C 
ATOM      5  C   LIG A   1      -6.850  -2.280 124.634  0.00  0.00    +0.156 C 
ATOM      6  C   LIG A   1      -7.642  -1.281 123.707  0.00  0.00    +0.237 C 
ATOM      7  O   LIG A   1      -8.170  -1.661 122.648  0.00  0.00    -0.285 OA
ATOM      8  C   LIG A   1      -7.721   0.189 124.067  0.00  0.00    +0.208 C 
ATOM      9  C   LIG A   1      -7.342   0.535 125.317  0.00  0.00    +0.170 C 
ATOM     10  O   LIG A   1      -7.402   1.809 125.835  0.00  0.00    -0.480 OA
ATOM     11  C   LIG A   1      -7.570  -0.181 128.622  0.00  0.00    +0.016 C 
ENDROOT
BRANCH   1  16
ATOM     12  C   LIG A   1      -3.223   3.001 127.075  0.00  0.00    +0.050 A 
ATOM     13  C   LIG A   1      -3.406   4.297 127.500  0.00  0.00    +0.166 A 
ATOM     14  C   LIG A   1      -4.651   4.787 127.811  0.00  0.00    +0.167 A 
ATOM     15  C   LIG A   1      -5.787   4.008 127.715  0.00  0.00    +0.056 A 
ATOM     16  C   LIG A   1      -5.646   2.676 127.282  0.00  0.00    -0.003 A 
ATOM     17  C   LIG A   1      -4.354   2.187 126.972  0.00  0.00    +0.011 A 
ATOM     18  O   LIG A   1      -4.608   6.087 128.210  0.00  0.00    -0.453 OA
ATOM     19  C   LIG A   1      -3.190   6.350 128.130  0.00  0.00    +0.466 C 
ATOM     20  O   LIG A   1      -2.423   5.221 127.664  0.00  0.00    -0.453 OA
ENDBRANCH   1  16
BRANCH   8  21
ATOM     21  O   LIG A   1      -8.185   1.018 123.074  0.00  0.00    -0.488 OA
ATOM     22  C   LIG A   1      -9.519   1.504 123.137  0.00  0.00    +0.277 C 
ENDBRANCH   8  21
BRANCH   5  23
ATOM     23  O   LIG A   1      -7.585  -3.444 125.035  0.00  0.00    -0.364 OA
ATOM     24  C   LIG A   1      -8.800  -3.265 125.738  0.00  0.00    +0.195 C 
ENDBRANCH   5  23
BRANCH   5  25
ATOM     25  C   LIG A   1      -5.534  -2.610 123.867  0.00  0.00    +0.074 C 
BRANCH  25  26
ATOM     26  C   LIG A   1      -5.160  -4.072 123.789  0.00  0.00    -0.031 C 
ATOM     27  C   LIG A   1      -3.921  -4.526 123.561  0.00  0.00    +0.004 C 
ENDBRANCH  25  26
ENDBRANCH   5  25
TORSDOF 5
ENDMDL
MODEL 5
REMARK VINA RESULT:      -7.2      7.717     10.509
REMARK  Name = NuBBE_2306
REMARK  8 active torsions:
REMARK  status: ('A' for Active; 'I' for Inactive)
REMARK    1  A    between atoms: C_5  and  C_6
REMARK    2  A    between atoms: C_8  and  C_25
REMARK    3  A    between atoms: C_12  and  C_20
REMARK    4  A    between atoms: C_12  and  O_23
REMARK    5  A    between atoms: C_15  and  O_18
REMARK    6  A    between atoms: O_18  and  C_19
REMARK    7  A    between atoms: C_20  and  C_21
REMARK    8  A    between atoms: O_23  and  C_24
REMARK                            x       y       z     vdW  Elec       q    Type
REMARK                         _______ _______ _______ _____ _____    ______ ____
ROOT
ATOM      1  C   LIG A   1      -8.658   4.969 132.269  0.00  0.00    +0.211 C 
ATOM      2  C   LIG A   1      -7.806   5.699 133.318  0.00  0.00    +0.065 C 
ATOM      3  C   LIG A   1      -6.440   5.595 132.733  0.00  0.00    +0.004 C 
ATOM      4  C   LIG A   1      -5.323   6.204 133.145  0.00  0.00    +0.023 C 
ATOM      5  C   LIG A   1      -3.972   5.955 132.514  0.00  0.00    +0.156 C 
ATOM      6  C   LIG A   1      -4.043   4.826 131.416  0.00  0.00    +0.237 C 
ATOM      7  O   LIG A   1      -3.013   4.341 130.918  0.00  0.00    -0.285 OA
ATOM      8  C   LIG A   1      -5.387   4.353 130.900  0.00  0.00    +0.208 C 
ATOM      9  C   LIG A   1      -6.479   4.722 131.604  0.00  0.00    +0.170 C 
ATOM     10  O   LIG A   1      -7.769   4.338 131.318  0.00  0.00    -0.480 OA
ATOM     11  C   LIG A   1      -7.876   5.007 134.678  0.00  0.00    +0.016 C 
ENDROOT
BRANCH   1  16
ATOM     12  C   LIG A   1     -11.854   6.922 131.381  0.00  0.00    +0.050 A 
ATOM     13  C   LIG A   1     -11.434   7.522 130.217  0.00  0.00    +0.166 A 
ATOM     14  C   LIG A   1     -10.170   7.326 129.716  0.00  0.00    +0.167 A 
ATOM     15  C   LIG A   1      -9.251   6.516 130.353  0.00  0.00    +0.056 A 
ATOM     16  C   LIG A   1      -9.637   5.883 131.549  0.00  0.00    -0.003 A 
ATOM     17  C   LIG A   1     -10.947   6.092 132.046  0.00  0.00    +0.011 A 
ATOM     18  O   LIG A   1      -9.963   8.010 128.558  0.00  0.00    -0.453 OA
ATOM     19  C   LIG A   1     -11.249   8.643 128.381  0.00  0.00    +0.466 C 
ATOM     20  O   LIG A   1     -12.183   8.350 129.440  0.00  0.00    -0.453 OA
ENDBRANCH   1  16
BRANCH   8  21
ATOM     21  O   LIG A   1      -5.347   3.580 129.763  0.00  0.00    -0.488 OA
ATOM     22  C   LIG A   1      -5.552   4.191 128.496  0.00  0.00    +0.277 C 
ENDBRANCH   8  21
BRANCH   5  23
ATOM     23  O   LIG A   1      -3.176   5.631 133.662  0.00  0.00    -0.364 OA
ATOM     24  C   LIG A   1      -3.471   6.273 134.889  0.00  0.00    +0.195 C 
ENDBRANCH   5  23
BRANCH   5  25
ATOM     25  C   LIG A   1      -3.494   7.237 131.768  0.00  0.00    +0.074 C 
BRANCH  25  26
ATOM     26  C   LIG A   1      -4.336   7.671 130.591  0.00  0.00    -0.031 C 
ATOM     27  C   LIG A   1      -3.848   7.973 129.380  0.00  0.00    +0.004 C 
ENDBRANCH  25  26
ENDBRANCH   5  25
TORSDOF 5
ENDMDL
MODEL 6
REMARK VINA RESULT:      -7.1      4.477      8.022
REMARK  Name = NuBBE_2306
REMARK  8 active torsions:
REMARK  status: ('A' for Active; 'I' for Inactive)
REMARK    1  A    between atoms: C_5  and  C_6
REMARK    2  A    between atoms: C_8  and  C_25
REMARK    3  A    between atoms: C_12  and  C_20
REMARK    4  A    between atoms: C_12  and  O_23
REMARK    5  A    between atoms: C_15  and  O_18
REMARK    6  A    between atoms: O_18  and  C_19
REMARK    7  A    between atoms: C_20  and  C_21
REMARK    8  A    between atoms: O_23  and  C_24
REMARK                            x       y       z     vdW  Elec       q    Type
REMARK                         _______ _______ _______ _____ _____    ______ ____
ROOT
ATOM      1  C   LIG A   1      -6.675  -2.317 128.293  0.00  0.00    +0.211 C 
ATOM      2  C   LIG A   1      -7.506  -2.473 129.575  0.00  0.00    +0.065 C 
ATOM      3  C   LIG A   1      -7.374  -1.124 130.195  0.00  0.00    +0.004 C 
ATOM      4  C   LIG A   1      -8.034  -0.640 131.252  0.00  0.00    +0.023 C 
ATOM      5  C   LIG A   1      -7.752   0.723 131.841  0.00  0.00    +0.156 C 
ATOM      6  C   LIG A   1      -6.532   1.423 131.129  0.00  0.00    +0.237 C 
ATOM      7  O   LIG A   1      -6.022   2.459 131.587  0.00  0.00    -0.285 OA
ATOM      8  C   LIG A   1      -5.995   0.869 129.825  0.00  0.00    +0.208 C 
ATOM      9  C   LIG A   1      -6.406  -0.368 129.468  0.00  0.00    +0.170 C 
ATOM     10  O   LIG A   1      -5.978  -1.050 128.352  0.00  0.00    -0.480 OA
ATOM     11  C   LIG A   1      -6.933  -3.557 130.487  0.00  0.00    +0.016 C 
ENDROOT
BRANCH   1  16
ATOM     12  C   LIG A   1      -9.544  -3.113 125.855  0.00  0.00    +0.050 A 
ATOM     13  C   LIG A   1      -9.012  -2.586 124.701  0.00  0.00    +0.166 A 
ATOM     14  C   LIG A   1      -7.776  -1.986 124.682  0.00  0.00    +0.167 A 
ATOM     15  C   LIG A   1      -7.001  -1.878 125.820  0.00  0.00    +0.056 A 
ATOM     16  C   LIG A   1      -7.508  -2.401 127.024  0.00  0.00    -0.003 A 
ATOM     17  C   LIG A   1      -8.781  -3.023 127.022  0.00  0.00    +0.011 A 
ATOM     18  O   LIG A   1      -7.440  -1.536 123.443  0.00  0.00    -0.453 OA
ATOM     19  C   LIG A   1      -8.600  -1.940 122.683  0.00  0.00    +0.466 C 
ATOM     20  O   LIG A   1      -9.609  -2.593 123.480  0.00  0.00    -0.453 OA
ENDBRANCH   1  16
BRANCH   8  21
ATOM     21  O   LIG A   1      -5.128   1.690 129.144  0.00  0.00    -0.488 OA
ATOM     22  C   LIG A   1      -5.615   2.481 128.068  0.00  0.00    +0.277 C 
ENDBRANCH   8  21
BRANCH   5  23
ATOM     23  O   LIG A   1      -7.542   0.401 133.222  0.00  0.00    -0.364 OA
ATOM     24  C   LIG A   1      -6.407  -0.370 133.568  0.00  0.00    +0.195 C 
ENDBRANCH   5  23
BRANCH   5  25
ATOM     25  C   LIG A   1      -8.973   1.663 131.601  0.00  0.00    +0.074 C 
BRANCH  25  26
ATOM     26  C   LIG A   1      -9.524   2.359 132.824  0.00  0.00    -0.031 C 
ATOM     27  C   LIG A   1      -8.989   3.455 133.377  0.00  0.00    +0.004 C 
ENDBRANCH  25  26
ENDBRANCH   5  25
TORSDOF 5
ENDMDL
MODEL 7
REMARK VINA RESULT:      -7.0      2.893      8.070
REMARK  Name = NuBBE_2306
REMARK  8 active torsions:
REMARK  status: ('A' for Active; 'I' for Inactive)
REMARK    1  A    between atoms: C_5  and  C_6
REMARK    2  A    between atoms: C_8  and  C_25
REMARK    3  A    between atoms: C_12  and  C_20
REMARK    4  A    between atoms: C_12  and  O_23
REMARK    5  A    between atoms: C_15  and  O_18
REMARK    6  A    between atoms: O_18  and  C_19
REMARK    7  A    between atoms: C_20  and  C_21
REMARK    8  A    between atoms: O_23  and  C_24
REMARK                            x       y       z     vdW  Elec       q    Type
REMARK                         _______ _______ _______ _____ _____    ______ ____
ROOT
ATOM      1  C   LIG A   1      -7.592  -0.900 126.599  0.00  0.00    +0.211 C 
ATOM      2  C   LIG A   1      -6.488  -0.464 125.624  0.00  0.00    +0.065 C 
ATOM      3  C   LIG A   1      -6.387   0.996 125.903  0.00  0.00    +0.004 C 
ATOM      4  C   LIG A   1      -5.466   1.854 125.455  0.00  0.00    +0.023 C 
ATOM      5  C   LIG A   1      -5.516   3.337 125.743  0.00  0.00    +0.156 C 
ATOM      6  C   LIG A   1      -6.828   3.733 126.522  0.00  0.00    +0.237 C 
ATOM      7  O   LIG A   1      -7.151   4.922 126.686  0.00  0.00    -0.285 OA
ATOM      8  C   LIG A   1      -7.695   2.657 127.145  0.00  0.00    +0.208 C 
ATOM      9  C   LIG A   1      -7.455   1.382 126.768  0.00  0.00    +0.170 C 
ATOM     10  O   LIG A   1      -8.178   0.287 127.184  0.00  0.00    -0.480 OA
ATOM     11  C   LIG A   1      -6.888  -0.721 124.172  0.00  0.00    +0.016 C 
ENDROOT
BRANCH   1  16
ATOM     12  C   LIG A   1      -7.549  -3.428 129.500  0.00  0.00    +0.050 A 
ATOM     13  C   LIG A   1      -6.191  -3.512 129.705  0.00  0.00    +0.166 A 
ATOM     14  C   LIG A   1      -5.299  -2.795 128.946  0.00  0.00    +0.167 A 
ATOM     15  C   LIG A   1      -5.714  -1.950 127.936  0.00  0.00    +0.056 A 
ATOM     16  C   LIG A   1      -7.095  -1.834 127.690  0.00  0.00    -0.003 A 
ATOM     17  C   LIG A   1      -8.000  -2.577 128.487  0.00  0.00    +0.011 A 
ATOM     18  O   LIG A   1      -4.009  -3.023 129.314  0.00  0.00    -0.453 OA
ATOM     19  C   LIG A   1      -4.197  -3.952 130.403  0.00  0.00    +0.466 C 
ATOM     20  O   LIG A   1      -5.580  -4.280 130.646  0.00  0.00    -0.453 OA
ENDBRANCH   1  16
BRANCH   8  21
ATOM     21  O   LIG A   1      -8.650   3.102 128.028  0.00  0.00    -0.488 OA
ATOM     22  C   LIG A   1      -8.446   2.929 129.424  0.00  0.00    +0.277 C 
ENDBRANCH   8  21
BRANCH   5  23
ATOM     23  O   LIG A   1      -5.407   3.889 124.425  0.00  0.00    -0.364 OA
ATOM     24  C   LIG A   1      -6.439   3.620 123.494  0.00  0.00    +0.195 C 
ENDBRANCH   5  23
BRANCH   5  25
ATOM     25  C   LIG A   1      -4.336   3.732 126.682  0.00  0.00    +0.074 C 
BRANCH  25  26
ATOM     26  C   LIG A   1      -3.129   2.825 126.646  0.00  0.00    -0.031 C 
ATOM     27  C   LIG A   1      -1.875   3.221 126.905  0.00  0.00    +0.004 C 
ENDBRANCH  25  26
ENDBRANCH   5  25
TORSDOF 5
ENDMDL
MODEL 8
REMARK VINA RESULT:      -6.9      2.862      8.238
REMARK  Name = NuBBE_2306
REMARK  8 active torsions:
REMARK  status: ('A' for Active; 'I' for Inactive)
REMARK    1  A    between atoms: C_5  and  C_6
REMARK    2  A    between atoms: C_8  and  C_25
REMARK    3  A    between atoms: C_12  and  C_20
REMARK    4  A    between atoms: C_12  and  O_23
REMARK    5  A    between atoms: C_15  and  O_18
REMARK    6  A    between atoms: O_18  and  C_19
REMARK    7  A    between atoms: C_20  and  C_21
REMARK    8  A    between atoms: O_23  and  C_24
REMARK                            x       y       z     vdW  Elec       q    Type
REMARK                         _______ _______ _______ _____ _____    ______ ____
ROOT
ATOM      1  C   LIG A   1      -7.318  -2.134 127.191  0.00  0.00    +0.211 C 
ATOM      2  C   LIG A   1      -6.618  -1.786 125.870  0.00  0.00    +0.065 C 
ATOM      3  C   LIG A   1      -6.869  -0.321 125.763  0.00  0.00    +0.004 C 
ATOM      4  C   LIG A   1      -6.343   0.539 124.885  0.00  0.00    +0.023 C 
ATOM      5  C   LIG A   1      -6.739   1.996 124.825  0.00  0.00    +0.156 C 
ATOM      6  C   LIG A   1      -7.908   2.322 125.832  0.00  0.00    +0.237 C 
ATOM      7  O   LIG A   1      -8.505   3.411 125.801  0.00  0.00    -0.285 OA
ATOM      8  C   LIG A   1      -8.285   1.322 126.907  0.00  0.00    +0.208 C 
ATOM      9  C   LIG A   1      -7.788   0.072 126.783  0.00  0.00    +0.170 C 
ATOM     10  O   LIG A   1      -8.070  -0.977 127.628  0.00  0.00    -0.480 OA
ATOM     11  C   LIG A   1      -7.236  -2.538 124.692  0.00  0.00    +0.016 C 
ENDROOT
BRANCH   1  16
ATOM     12  C   LIG A   1      -4.067  -2.882 129.110  0.00  0.00    +0.050 A 
ATOM     13  C   LIG A   1      -4.601  -3.424 130.255  0.00  0.00    +0.166 A 
ATOM     14  C   LIG A   1      -5.958  -3.551 130.431  0.00  0.00    +0.167 A 
ATOM     15  C   LIG A   1      -6.860  -3.142 129.469  0.00  0.00    +0.056 A 
ATOM     16  C   LIG A   1      -6.357  -2.579 128.281  0.00  0.00    -0.003 A 
ATOM     17  C   LIG A   1      -4.955  -2.463 128.115  0.00  0.00    +0.011 A 
ATOM     18  O   LIG A   1      -6.271  -4.112 131.630  0.00  0.00    -0.453 OA
ATOM     19  C   LIG A   1      -4.955  -4.339 132.179  0.00  0.00    +0.466 C 
ATOM     20  O   LIG A   1      -3.890  -3.889 131.316  0.00  0.00    -0.453 OA
ENDBRANCH   1  16
BRANCH   8  21
ATOM     21  O   LIG A   1      -9.111   1.799 127.897  0.00  0.00    -0.488 OA
ATOM     22  C   LIG A   1      -8.553   2.182 129.147  0.00  0.00    +0.277 C 
ENDBRANCH   8  21
BRANCH   5  23
ATOM     23  O   LIG A   1      -7.077   2.144 123.440  0.00  0.00    -0.364 OA
ATOM     24  C   LIG A   1      -6.555   3.254 122.734  0.00  0.00    +0.195 C 
ENDBRANCH   5  23
BRANCH   5  25
ATOM     25  C   LIG A   1      -5.541   2.888 125.272  0.00  0.00    +0.074 C 
BRANCH  25  26
ATOM     26  C   LIG A   1      -4.586   2.267 126.264  0.00  0.00    -0.031 C 
ATOM     27  C   LIG A   1      -3.432   2.824 126.655  0.00  0.00    +0.004 C 
ENDBRANCH  25  26
ENDBRANCH   5  25
TORSDOF 5
ENDMDL
MODEL 9
REMARK VINA RESULT:      -6.8      5.229      8.681
REMARK  Name = NuBBE_2306
REMARK  8 active torsions:
REMARK  status: ('A' for Active; 'I' for Inactive)
REMARK    1  A    between atoms: C_5  and  C_6
REMARK    2  A    between atoms: C_8  and  C_25
REMARK    3  A    between atoms: C_12  and  C_20
REMARK    4  A    between atoms: C_12  and  O_23
REMARK    5  A    between atoms: C_15  and  O_18
REMARK    6  A    between atoms: O_18  and  C_19
REMARK    7  A    between atoms: C_20  and  C_21
REMARK    8  A    between atoms: O_23  and  C_24
REMARK                            x       y       z     vdW  Elec       q    Type
REMARK                         _______ _______ _______ _____ _____    ______ ____
ROOT
ATOM      1  C   LIG A   1      -5.933  -2.126 128.579  0.00  0.00    +0.211 C 
ATOM      2  C   LIG A   1      -5.641  -3.312 129.510  0.00  0.00    +0.065 C 
ATOM      3  C   LIG A   1      -6.117  -2.798 130.825  0.00  0.00    +0.004 C 
ATOM      4  C   LIG A   1      -6.257  -3.476 131.968  0.00  0.00    +0.023 C 
ATOM      5  C   LIG A   1      -6.675  -2.821 133.264  0.00  0.00    +0.156 C 
ATOM      6  C   LIG A   1      -6.805  -1.258 133.110  0.00  0.00    +0.237 C 
ATOM      7  O   LIG A   1      -6.951  -0.519 134.099  0.00  0.00    -0.285 OA
ATOM      8  C   LIG A   1      -6.817  -0.629 131.731  0.00  0.00    +0.208 C 
ATOM      9  C   LIG A   1      -6.435  -1.412 130.698  0.00  0.00    +0.170 C 
ATOM     10  O   LIG A   1      -6.328  -0.995 129.391  0.00  0.00    -0.480 OA
ATOM     11  C   LIG A   1      -4.147  -3.636 129.554  0.00  0.00    +0.016 C 
ENDROOT
BRANCH   1  16
ATOM     12  C   LIG A   1      -9.152  -3.438 126.927  0.00  0.00    +0.050 A 
ATOM     13  C   LIG A   1      -8.936  -3.008 125.639  0.00  0.00    +0.166 A 
ATOM     14  C   LIG A   1      -7.804  -2.313 125.289  0.00  0.00    +0.167 A 
ATOM     15  C   LIG A   1      -6.821  -2.008 126.209  0.00  0.00    +0.056 A 
ATOM     16  C   LIG A   1      -7.002  -2.427 127.540  0.00  0.00    -0.003 A 
ATOM     17  C   LIG A   1      -8.172  -3.149 127.881  0.00  0.00    +0.011 A 
ATOM     18  O   LIG A   1      -7.789  -1.985 123.969  0.00  0.00    -0.453 OA
ATOM     19  C   LIG A   1      -9.033  -2.570 123.527  0.00  0.00    +0.466 C 
ATOM     20  O   LIG A   1      -9.774  -3.207 124.588  0.00  0.00    -0.453 OA
ENDBRANCH   1  16
BRANCH   8  21
ATOM     21  O   LIG A   1      -7.209   0.687 131.683  0.00  0.00    -0.488 OA
ATOM     22  C   LIG A   1      -8.545   1.005 131.314  0.00  0.00    +0.277 C 
ENDBRANCH   8  21
BRANCH   5  23
ATOM     23  O   LIG A   1      -5.637  -3.256 134.152  0.00  0.00    -0.364 OA
ATOM     24  C   LIG A   1      -4.302  -3.251 133.681  0.00  0.00    +0.195 C 
ENDBRANCH   5  23
BRANCH   5  25
ATOM     25  C   LIG A   1      -8.093  -3.322 133.674  0.00  0.00    +0.074 C 
BRANCH  25  26
ATOM     26  C   LIG A   1      -8.186  -4.035 135.003  0.00  0.00    -0.031 C 
ATOM     27  C   LIG A   1      -8.529  -3.445 136.157  0.00  0.00    +0.004 C 
ENDBRANCH  25  26
ENDBRANCH   5  25
TORSDOF 5
ENDMDL
