MODEL 1
REMARK VINA RESULT:      -8.2      0.000      0.000
REMARK  Name = NuBBE_576
REMARK  6 active torsions:
REMARK  status: ('A' for Active; 'I' for Inactive)
REMARK    1  A    between atoms: C_5  and  C_6
REMARK    2  A    between atoms: C_5  and  O_7
REMARK    3  A    between atoms: C_13  and  C_15
REMARK    4  A    between atoms: C_22  and  C_23
REMARK    5  A    between atoms: C_22  and  C_24
REMARK    6  A    between atoms: C_26  and  C_28
REMARK                            x       y       z     vdW  Elec       q    Type
REMARK                         _______ _______ _______ _____ _____    ______ ____
ROOT
ATOM      1  O   LIG A   1      -8.305   2.616 127.103  0.00  0.00    -0.292 OA
ATOM      2  C   LIG A   1      -7.629   1.850 126.402  0.00  0.00    +0.163 C 
ATOM      3  C   LIG A   1      -8.145   1.560 125.020  0.00  0.00    +0.008 C 
ATOM      4  C   LIG A   1      -8.401   2.947 124.447  0.00  0.00    +0.081 C 
ATOM      5  C   LIG A   1      -8.230   2.756 122.965  0.00  0.00    +0.129 C 
ATOM      6  C   LIG A   1      -6.762   2.550 122.582  0.00  0.00    +0.050 C 
ATOM      7  C   LIG A   1      -8.954   1.434 122.950  0.00  0.00    +0.193 C 
ATOM      8  O   LIG A   1      -9.787   1.075 122.108  0.00  0.00    -0.289 OA
ATOM      9  C   LIG A   1      -8.608   0.596 124.175  0.00  0.00    +0.036 C 
ATOM     10  C   LIG A   1      -9.021  -0.823 124.060  0.00  0.00    +0.184 C 
ATOM     11  C   LIG A   1      -8.434  -2.239 124.039  0.00  0.00    +0.098 C 
ATOM     12  O   LIG A   1      -8.420  -1.471 122.873  0.00  0.00    -0.360 OA
ATOM     13  C   LIG A   1      -9.385  -3.416 123.926  0.00  0.00    +0.044 C 
ATOM     14  C   LIG A   1      -7.117  -2.546 124.677  0.00  0.00    +0.038 C 
ATOM     15  C   LIG A   1      -7.377  -2.514 126.168  0.00  0.00    +0.007 C 
ATOM     16  C   LIG A   1      -6.181  -2.355 127.032  0.00  0.00    -0.001 C 
ATOM     17  C   LIG A   1      -5.841  -1.074 127.769  0.00  0.00    -0.001 C 
ATOM     18  C   LIG A   1      -6.427  -2.262 128.530  0.00  0.00    -0.029 C 
ATOM     19  C   LIG A   1      -5.528  -3.037 129.446  0.00  0.00    +0.011 C 
ATOM     20  C   LIG A   1      -7.857  -2.180 129.060  0.00  0.00    +0.011 C 
ATOM     21  C   LIG A   1      -6.685   0.149 127.769  0.00  0.00    +0.015 C 
ATOM     22  C   LIG A   1      -6.294   1.365 126.959  0.00  0.00    +0.057 C 
ATOM     23  C   LIG A   1      -5.094   1.361 126.027  0.00  0.00    +0.016 C 
ENDROOT
BRANCH   5  24
ATOM     24  O   LIG A   1      -8.755   3.861 122.274  0.00  0.00    -0.381 OA
ATOM     25  H   LIG A   1      -8.499   4.668 122.751  0.00  0.00    +0.211 HD
ENDBRANCH   5  24
TORSDOF 1
ENDMDL
MODEL 2
REMARK VINA RESULT:      -7.8      1.501      4.029
REMARK  Name = NuBBE_576
REMARK  6 active torsions:
REMARK  status: ('A' for Active; 'I' for Inactive)
REMARK    1  A    between atoms: C_5  and  C_6
REMARK    2  A    between atoms: C_5  and  O_7
REMARK    3  A    between atoms: C_13  and  C_15
REMARK    4  A    between atoms: C_22  and  C_23
REMARK    5  A    between atoms: C_22  and  C_24
REMARK    6  A    between atoms: C_26  and  C_28
REMARK                            x       y       z     vdW  Elec       q    Type
REMARK                         _______ _______ _______ _____ _____    ______ ____
ROOT
ATOM      1  O   LIG A   1      -6.300  -1.141 123.902  0.00  0.00    -0.292 OA
ATOM      2  C   LIG A   1      -7.188  -0.889 124.728  0.00  0.00    +0.163 C 
ATOM      3  C   LIG A   1      -7.644   0.541 124.821  0.00  0.00    +0.008 C 
ATOM      4  C   LIG A   1      -7.948   0.903 123.373  0.00  0.00    +0.081 C 
ATOM      5  C   LIG A   1      -9.002   1.969 123.488  0.00  0.00    +0.129 C 
ATOM      6  C   LIG A   1     -10.350   1.393 123.931  0.00  0.00    +0.050 C 
ATOM      7  C   LIG A   1      -8.329   2.652 124.650  0.00  0.00    +0.193 C 
ATOM      8  O   LIG A   1      -8.192   3.875 124.790  0.00  0.00    -0.289 OA
ATOM      9  C   LIG A   1      -7.733   1.640 125.621  0.00  0.00    +0.036 C 
ATOM     10  C   LIG A   1      -7.352   2.226 126.929  0.00  0.00    +0.184 C 
ATOM     11  C   LIG A   1      -7.677   2.121 128.424  0.00  0.00    +0.098 C 
ATOM     12  O   LIG A   1      -8.504   2.877 127.591  0.00  0.00    -0.360 OA
ATOM     13  C   LIG A   1      -6.906   2.995 129.395  0.00  0.00    +0.044 C 
ATOM     14  C   LIG A   1      -8.249   0.871 129.011  0.00  0.00    +0.038 C 
ATOM     15  C   LIG A   1      -7.104  -0.120 129.037  0.00  0.00    +0.007 C 
ATOM     16  C   LIG A   1      -7.487  -1.549 129.161  0.00  0.00    -0.001 C 
ATOM     17  C   LIG A   1      -7.403  -2.544 128.019  0.00  0.00    -0.001 C 
ATOM     18  C   LIG A   1      -6.354  -2.564 129.130  0.00  0.00    -0.029 C 
ATOM     19  C   LIG A   1      -6.384  -3.691 130.119  0.00  0.00    +0.011 C 
ATOM     20  C   LIG A   1      -4.931  -2.103 128.825  0.00  0.00    +0.011 C 
ATOM     21  C   LIG A   1      -6.876  -2.231 126.665  0.00  0.00    +0.015 C 
ATOM     22  C   LIG A   1      -7.809  -2.057 125.488  0.00  0.00    +0.057 C 
ATOM     23  C   LIG A   1      -9.320  -2.081 125.645  0.00  0.00    +0.016 C 
ENDROOT
BRANCH   5  24
ATOM     24  O   LIG A   1      -9.148   2.635 122.259  0.00  0.00    -0.381 OA
ATOM     25  H   LIG A   1      -8.262   2.865 121.930  0.00  0.00    +0.211 HD
ENDBRANCH   5  24
TORSDOF 1
ENDMDL
MODEL 3
REMARK VINA RESULT:      -7.6      2.516      5.342
REMARK  Name = NuBBE_576
REMARK  6 active torsions:
REMARK  status: ('A' for Active; 'I' for Inactive)
REMARK    1  A    between atoms: C_5  and  C_6
REMARK    2  A    between atoms: C_5  and  O_7
REMARK    3  A    between atoms: C_13  and  C_15
REMARK    4  A    between atoms: C_22  and  C_23
REMARK    5  A    between atoms: C_22  and  C_24
REMARK    6  A    between atoms: C_26  and  C_28
REMARK                            x       y       z     vdW  Elec       q    Type
REMARK                         _______ _______ _______ _____ _____    ______ ____
ROOT
ATOM      1  O   LIG A   1      -5.278  -0.761 127.175  0.00  0.00    -0.292 OA
ATOM      2  C   LIG A   1      -5.894   0.303 127.022  0.00  0.00    +0.163 C 
ATOM      3  C   LIG A   1      -6.794   0.400 125.821  0.00  0.00    +0.008 C 
ATOM      4  C   LIG A   1      -7.641  -0.861 125.918  0.00  0.00    +0.081 C 
ATOM      5  C   LIG A   1      -8.923  -0.482 125.231  0.00  0.00    +0.129 C 
ATOM      6  C   LIG A   1      -9.755   0.490 126.073  0.00  0.00    +0.050 C 
ATOM      7  C   LIG A   1      -8.227   0.265 124.123  0.00  0.00    +0.193 C 
ATOM      8  O   LIG A   1      -8.516   0.211 122.921  0.00  0.00    -0.289 OA
ATOM      9  C   LIG A   1      -7.032   1.052 124.648  0.00  0.00    +0.036 C 
ATOM     10  C   LIG A   1      -6.511   2.052 123.686  0.00  0.00    +0.184 C 
ATOM     11  C   LIG A   1      -6.295   3.563 123.535  0.00  0.00    +0.098 C 
ATOM     12  O   LIG A   1      -7.557   3.018 123.284  0.00  0.00    -0.360 OA
ATOM     13  C   LIG A   1      -5.643   4.077 122.265  0.00  0.00    +0.044 C 
ATOM     14  C   LIG A   1      -6.154   4.453 124.726  0.00  0.00    +0.038 C 
ATOM     15  C   LIG A   1      -4.776   4.161 125.284  0.00  0.00    +0.007 C 
ATOM     16  C   LIG A   1      -4.545   4.574 126.690  0.00  0.00    -0.001 C 
ATOM     17  C   LIG A   1      -4.457   3.599 127.849  0.00  0.00    -0.001 C 
ATOM     18  C   LIG A   1      -3.187   4.237 127.287  0.00  0.00    -0.029 C 
ATOM     19  C   LIG A   1      -2.492   5.284 128.105  0.00  0.00    +0.011 C 
ATOM     20  C   LIG A   1      -2.204   3.378 126.496  0.00  0.00    +0.011 C 
ATOM     21  C   LIG A   1      -4.527   2.120 127.714  0.00  0.00    +0.015 C 
ATOM     22  C   LIG A   1      -5.773   1.361 128.114  0.00  0.00    +0.057 C 
ATOM     23  C   LIG A   1      -7.040   2.070 128.563  0.00  0.00    +0.016 C 
ENDROOT
BRANCH   5  24
ATOM     24  O   LIG A   1      -9.676  -1.634 124.948  0.00  0.00    -0.381 OA
ATOM     25  H   LIG A   1      -9.558  -2.263 125.680  0.00  0.00    +0.211 HD
ENDBRANCH   5  24
TORSDOF 1
ENDMDL
MODEL 4
REMARK VINA RESULT:      -7.6      1.948      4.699
REMARK  Name = NuBBE_576
REMARK  6 active torsions:
REMARK  status: ('A' for Active; 'I' for Inactive)
REMARK    1  A    between atoms: C_5  and  C_6
REMARK    2  A    between atoms: C_5  and  O_7
REMARK    3  A    between atoms: C_13  and  C_15
REMARK    4  A    between atoms: C_22  and  C_23
REMARK    5  A    between atoms: C_22  and  C_24
REMARK    6  A    between atoms: C_26  and  C_28
REMARK                            x       y       z     vdW  Elec       q    Type
REMARK                         _______ _______ _______ _____ _____    ______ ____
ROOT
ATOM      1  O   LIG A   1      -6.554   2.016 122.259  0.00  0.00    -0.292 OA
ATOM      2  C   LIG A   1      -7.212   1.898 123.303  0.00  0.00    +0.163 C 
ATOM      3  C   LIG A   1      -6.666   2.575 124.529  0.00  0.00    +0.008 C 
ATOM      4  C   LIG A   1      -6.406   3.998 124.054  0.00  0.00    +0.081 C 
ATOM      5  C   LIG A   1      -6.546   4.821 125.305  0.00  0.00    +0.129 C 
ATOM      6  C   LIG A   1      -8.005   4.929 125.757  0.00  0.00    +0.050 C 
ATOM      7  C   LIG A   1      -5.815   3.822 126.165  0.00  0.00    +0.193 C 
ATOM      8  O   LIG A   1      -4.963   4.091 127.022  0.00  0.00    -0.289 OA
ATOM      9  C   LIG A   1      -6.182   2.391 125.790  0.00  0.00    +0.036 C 
ATOM     10  C   LIG A   1      -5.759   1.387 126.795  0.00  0.00    +0.184 C 
ATOM     11  C   LIG A   1      -6.339   0.333 127.746  0.00  0.00    +0.098 C 
ATOM     12  O   LIG A   1      -6.333   1.676 128.129  0.00  0.00    -0.360 OA
ATOM     13  C   LIG A   1      -5.379  -0.494 128.581  0.00  0.00    +0.044 C 
ATOM     14  C   LIG A   1      -7.666  -0.303 127.488  0.00  0.00    +0.038 C 
ATOM     15  C   LIG A   1      -7.436  -1.255 126.332  0.00  0.00    +0.007 C 
ATOM     16  C   LIG A   1      -8.651  -1.686 125.596  0.00  0.00    -0.001 C 
ATOM     17  C   LIG A   1      -9.012  -1.193 124.208  0.00  0.00    -0.001 C 
ATOM     18  C   LIG A   1      -8.436  -2.595 124.395  0.00  0.00    -0.029 C 
ATOM     19  C   LIG A   1      -9.349  -3.771 124.224  0.00  0.00    +0.011 C 
ATOM     20  C   LIG A   1      -7.018  -2.892 123.914  0.00  0.00    +0.011 C 
ATOM     21  C   LIG A   1      -8.174  -0.274 123.395  0.00  0.00    +0.015 C 
ATOM     22  C   LIG A   1      -8.555   1.180 123.222  0.00  0.00    +0.057 C 
ATOM     23  C   LIG A   1      -9.736   1.796 123.953  0.00  0.00    +0.016 C 
ENDROOT
BRANCH   5  24
ATOM     24  O   LIG A   1      -6.012   6.105 125.098  0.00  0.00    -0.381 OA
ATOM     25  H   LIG A   1      -6.157   6.348 124.168  0.00  0.00    +0.211 HD
ENDBRANCH   5  24
TORSDOF 1
ENDMDL
MODEL 5
REMARK VINA RESULT:      -7.5      2.375      5.312
REMARK  Name = NuBBE_576
REMARK  6 active torsions:
REMARK  status: ('A' for Active; 'I' for Inactive)
REMARK    1  A    between atoms: C_5  and  C_6
REMARK    2  A    between atoms: C_5  and  O_7
REMARK    3  A    between atoms: C_13  and  C_15
REMARK    4  A    between atoms: C_22  and  C_23
REMARK    5  A    between atoms: C_22  and  C_24
REMARK    6  A    between atoms: C_26  and  C_28
REMARK                            x       y       z     vdW  Elec       q    Type
REMARK                         _______ _______ _______ _____ _____    ______ ____
ROOT
ATOM      1  O   LIG A   1      -8.215  -2.193 129.701  0.00  0.00    -0.292 OA
ATOM      2  C   LIG A   1      -7.457  -1.388 129.142  0.00  0.00    +0.163 C 
ATOM      3  C   LIG A   1      -7.893   0.051 129.118  0.00  0.00    +0.008 C 
ATOM      4  C   LIG A   1      -8.223   0.339 130.576  0.00  0.00    +0.081 C 
ATOM      5  C   LIG A   1      -7.978   1.816 130.711  0.00  0.00    +0.129 C 
ATOM      6  C   LIG A   1      -6.484   2.151 130.682  0.00  0.00    +0.050 C 
ATOM      7  C   LIG A   1      -8.603   2.144 129.380  0.00  0.00    +0.193 C 
ATOM      8  O   LIG A   1      -9.372   3.088 129.155  0.00  0.00    -0.289 OA
ATOM      9  C   LIG A   1      -8.249   1.102 128.327  0.00  0.00    +0.036 C 
ATOM     10  C   LIG A   1      -8.554   1.531 126.941  0.00  0.00    +0.184 C 
ATOM     11  C   LIG A   1      -7.865   1.811 125.599  0.00  0.00    +0.098 C 
ATOM     12  O   LIG A   1      -7.858   2.791 126.595  0.00  0.00    -0.360 OA
ATOM     13  C   LIG A   1      -8.724   2.219 124.417  0.00  0.00    +0.044 C 
ATOM     14  C   LIG A   1      -6.558   1.178 125.247  0.00  0.00    +0.038 C 
ATOM     15  C   LIG A   1      -6.882  -0.271 124.949  0.00  0.00    +0.007 C 
ATOM     16  C   LIG A   1      -5.737  -1.214 124.996  0.00  0.00    -0.001 C 
ATOM     17  C   LIG A   1      -5.522  -2.218 126.113  0.00  0.00    -0.001 C 
ATOM     18  C   LIG A   1      -6.052  -2.683 124.757  0.00  0.00    -0.029 C 
ATOM     19  C   LIG A   1      -5.139  -3.468 123.864  0.00  0.00    +0.011 C 
ATOM     20  C   LIG A   1      -7.505  -3.137 124.637  0.00  0.00    +0.011 C 
ATOM     21  C   LIG A   1      -6.451  -2.424 127.254  0.00  0.00    +0.015 C 
ATOM     22  C   LIG A   1      -6.115  -1.906 128.634  0.00  0.00    +0.057 C 
ATOM     23  C   LIG A   1      -4.880  -1.062 128.901  0.00  0.00    +0.016 C 
ENDROOT
BRANCH   5  24
ATOM     24  O   LIG A   1      -8.551   2.292 131.903  0.00  0.00    -0.381 OA
ATOM     25  H   LIG A   1      -9.512   2.154 131.855  0.00  0.00    +0.211 HD
ENDBRANCH   5  24
TORSDOF 1
ENDMDL
MODEL 6
REMARK VINA RESULT:      -7.4      6.592      7.931
REMARK  Name = NuBBE_576
REMARK  6 active torsions:
REMARK  status: ('A' for Active; 'I' for Inactive)
REMARK    1  A    between atoms: C_5  and  C_6
REMARK    2  A    between atoms: C_5  and  O_7
REMARK    3  A    between atoms: C_13  and  C_15
REMARK    4  A    between atoms: C_22  and  C_23
REMARK    5  A    between atoms: C_22  and  C_24
REMARK    6  A    between atoms: C_26  and  C_28
REMARK                            x       y       z     vdW  Elec       q    Type
REMARK                         _______ _______ _______ _____ _____    ______ ____
ROOT
ATOM      1  O   LIG A   1     -10.084   1.717 131.778  0.00  0.00    -0.292 OA
ATOM      2  C   LIG A   1      -9.374   2.699 132.036  0.00  0.00    +0.163 C 
ATOM      3  C   LIG A   1      -9.227   3.734 130.956  0.00  0.00    +0.008 C 
ATOM      4  C   LIG A   1     -10.667   4.030 130.559  0.00  0.00    +0.081 C 
ATOM      5  C   LIG A   1     -10.614   5.446 130.058  0.00  0.00    +0.129 C 
ATOM      6  C   LIG A   1     -10.418   6.448 131.200  0.00  0.00    +0.050 C 
ATOM      7  C   LIG A   1      -9.315   5.245 129.323  0.00  0.00    +0.193 C 
ATOM      8  O   LIG A   1      -9.053   5.663 128.187  0.00  0.00    -0.289 OA
ATOM      9  C   LIG A   1      -8.357   4.364 130.116  0.00  0.00    +0.036 C 
ATOM     10  C   LIG A   1      -6.964   4.395 129.611  0.00  0.00    +0.184 C 
ATOM     11  C   LIG A   1      -5.545   4.780 130.046  0.00  0.00    +0.098 C 
ATOM     12  O   LIG A   1      -6.420   5.772 129.598  0.00  0.00    -0.360 OA
ATOM     13  C   LIG A   1      -4.403   4.556 129.072  0.00  0.00    +0.044 C 
ATOM     14  C   LIG A   1      -5.153   4.808 131.488  0.00  0.00    +0.038 C 
ATOM     15  C   LIG A   1      -5.048   3.355 131.903  0.00  0.00    +0.007 C 
ATOM     16  C   LIG A   1      -5.101   3.092 133.363  0.00  0.00    -0.001 C 
ATOM     17  C   LIG A   1      -6.299   2.482 134.064  0.00  0.00    -0.001 C 
ATOM     18  C   LIG A   1      -5.056   1.635 133.797  0.00  0.00    -0.029 C 
ATOM     19  C   LIG A   1      -4.180   1.267 134.957  0.00  0.00    +0.011 C 
ATOM     20  C   LIG A   1      -5.115   0.529 132.746  0.00  0.00    +0.011 C 
ATOM     21  C   LIG A   1      -7.533   2.019 133.377  0.00  0.00    +0.015 C 
ATOM     22  C   LIG A   1      -8.812   2.822 133.449  0.00  0.00    +0.057 C 
ATOM     23  C   LIG A   1      -8.874   4.182 134.124  0.00  0.00    +0.016 C 
ENDROOT
BRANCH   5  24
ATOM     24  O   LIG A   1     -11.791   5.751 129.352  0.00  0.00    -0.381 OA
ATOM     25  H   LIG A   1     -11.925   5.067 128.674  0.00  0.00    +0.211 HD
ENDBRANCH   5  24
TORSDOF 1
ENDMDL
MODEL 7
REMARK VINA RESULT:      -7.1      5.357      8.674
REMARK  Name = NuBBE_576
REMARK  6 active torsions:
REMARK  status: ('A' for Active; 'I' for Inactive)
REMARK    1  A    between atoms: C_5  and  C_6
REMARK    2  A    between atoms: C_5  and  O_7
REMARK    3  A    between atoms: C_13  and  C_15
REMARK    4  A    between atoms: C_22  and  C_23
REMARK    5  A    between atoms: C_22  and  C_24
REMARK    6  A    between atoms: C_26  and  C_28
REMARK                            x       y       z     vdW  Elec       q    Type
REMARK                         _______ _______ _______ _____ _____    ______ ____
ROOT
ATOM      1  O   LIG A   1      -8.090   2.086 128.986  0.00  0.00    -0.292 OA
ATOM      2  C   LIG A   1      -7.141   2.416 129.711  0.00  0.00    +0.163 C 
ATOM      3  C   LIG A   1      -7.409   3.481 130.737  0.00  0.00    +0.008 C 
ATOM      4  C   LIG A   1      -8.656   2.973 131.449  0.00  0.00    +0.081 C 
ATOM      5  C   LIG A   1      -8.545   3.566 132.826  0.00  0.00    +0.129 C 
ATOM      6  C   LIG A   1      -7.446   2.890 133.651  0.00  0.00    +0.050 C 
ATOM      7  C   LIG A   1      -8.061   4.901 132.323  0.00  0.00    +0.193 C 
ATOM      8  O   LIG A   1      -8.438   6.008 132.731  0.00  0.00    -0.289 OA
ATOM      9  C   LIG A   1      -7.093   4.739 131.157  0.00  0.00    +0.036 C 
ATOM     10  C   LIG A   1      -6.339   5.974 130.836  0.00  0.00    +0.184 C 
ATOM     11  C   LIG A   1      -4.906   6.517 130.779  0.00  0.00    +0.098 C 
ATOM     12  O   LIG A   1      -5.575   6.466 132.004  0.00  0.00    -0.360 OA
ATOM     13  C   LIG A   1      -4.691   7.946 130.315  0.00  0.00    +0.044 C 
ATOM     14  C   LIG A   1      -3.735   5.607 130.596  0.00  0.00    +0.038 C 
ATOM     15  C   LIG A   1      -3.788   5.172 129.146  0.00  0.00    +0.007 C 
ATOM     16  C   LIG A   1      -3.017   3.950 128.806  0.00  0.00    -0.001 C 
ATOM     17  C   LIG A   1      -3.659   2.609 128.506  0.00  0.00    -0.001 C 
ATOM     18  C   LIG A   1      -3.105   3.464 127.368  0.00  0.00    -0.029 C 
ATOM     19  C   LIG A   1      -1.843   3.021 126.690  0.00  0.00    +0.011 C 
ATOM     20  C   LIG A   1      -4.073   4.138 126.398  0.00  0.00    +0.011 C 
ATOM     21  C   LIG A   1      -5.124   2.368 128.453  0.00  0.00    +0.015 C 
ATOM     22  C   LIG A   1      -5.834   1.641 129.574  0.00  0.00    +0.057 C 
ATOM     23  C   LIG A   1      -5.117   1.223 130.846  0.00  0.00    +0.016 C 
ENDROOT
BRANCH   5  24
ATOM     24  O   LIG A   1      -9.777   3.462 133.495  0.00  0.00    -0.381 OA
ATOM     25  H   LIG A   1     -10.474   3.333 132.830  0.00  0.00    +0.211 HD
ENDBRANCH   5  24
TORSDOF 1
ENDMDL
MODEL 8
REMARK VINA RESULT:      -7.1      5.431      8.431
REMARK  Name = NuBBE_576
REMARK  6 active torsions:
REMARK  status: ('A' for Active; 'I' for Inactive)
REMARK    1  A    between atoms: C_5  and  C_6
REMARK    2  A    between atoms: C_5  and  O_7
REMARK    3  A    between atoms: C_13  and  C_15
REMARK    4  A    between atoms: C_22  and  C_23
REMARK    5  A    between atoms: C_22  and  C_24
REMARK    6  A    between atoms: C_26  and  C_28
REMARK                            x       y       z     vdW  Elec       q    Type
REMARK                         _______ _______ _______ _____ _____    ______ ____
ROOT
ATOM      1  O   LIG A   1      -4.039   3.112 128.097  0.00  0.00    -0.292 OA
ATOM      2  C   LIG A   1      -4.595   3.271 129.192  0.00  0.00    +0.163 C 
ATOM      3  C   LIG A   1      -6.076   3.017 129.245  0.00  0.00    +0.008 C 
ATOM      4  C   LIG A   1      -6.215   1.639 128.614  0.00  0.00    +0.081 C 
ATOM      5  C   LIG A   1      -7.457   1.080 129.250  0.00  0.00    +0.129 C 
ATOM      6  C   LIG A   1      -7.227   0.704 130.717  0.00  0.00    +0.050 C 
ATOM      7  C   LIG A   1      -8.209   2.383 129.166  0.00  0.00    +0.193 C 
ATOM      8  O   LIG A   1      -9.391   2.516 128.823  0.00  0.00    -0.289 OA
ATOM      9  C   LIG A   1      -7.302   3.569 129.472  0.00  0.00    +0.036 C 
ATOM     10  C   LIG A   1      -8.039   4.830 129.726  0.00  0.00    +0.184 C 
ATOM     11  C   LIG A   1      -8.271   5.877 130.823  0.00  0.00    +0.098 C 
ATOM     12  O   LIG A   1      -8.999   4.685 130.843  0.00  0.00    -0.360 OA
ATOM     13  C   LIG A   1      -9.154   7.069 130.509  0.00  0.00    +0.044 C 
ATOM     14  C   LIG A   1      -7.275   6.093 131.916  0.00  0.00    +0.038 C 
ATOM     15  C   LIG A   1      -6.115   6.816 131.264  0.00  0.00    +0.007 C 
ATOM     16  C   LIG A   1      -4.827   6.770 132.000  0.00  0.00    -0.001 C 
ATOM     17  C   LIG A   1      -3.641   5.929 131.566  0.00  0.00    -0.001 C 
ATOM     18  C   LIG A   1      -3.635   7.439 131.333  0.00  0.00    -0.029 C 
ATOM     19  C   LIG A   1      -2.734   8.289 132.178  0.00  0.00    +0.011 C 
ATOM     20  C   LIG A   1      -3.766   7.978 129.910  0.00  0.00    +0.011 C 
ATOM     21  C   LIG A   1      -3.598   5.104 130.331  0.00  0.00    +0.015 C 
ATOM     22  C   LIG A   1      -3.719   3.598 130.398  0.00  0.00    +0.057 C 
ATOM     23  C   LIG A   1      -3.999   2.867 131.700  0.00  0.00    +0.016 C 
ENDROOT
BRANCH   5  24
ATOM     24  O   LIG A   1      -7.901  -0.044 128.532  0.00  0.00    -0.381 OA
ATOM     25  H   LIG A   1      -8.571  -0.502 129.068  0.00  0.00    +0.211 HD
ENDBRANCH   5  24
TORSDOF 1
ENDMDL
MODEL 9
REMARK VINA RESULT:      -7.1      2.884      5.889
REMARK  Name = NuBBE_576
REMARK  6 active torsions:
REMARK  status: ('A' for Active; 'I' for Inactive)
REMARK    1  A    between atoms: C_5  and  C_6
REMARK    2  A    between atoms: C_5  and  O_7
REMARK    3  A    between atoms: C_13  and  C_15
REMARK    4  A    between atoms: C_22  and  C_23
REMARK    5  A    between atoms: C_22  and  C_24
REMARK    6  A    between atoms: C_26  and  C_28
REMARK                            x       y       z     vdW  Elec       q    Type
REMARK                         _______ _______ _______ _____ _____    ______ ____
ROOT
ATOM      1  O   LIG A   1      -4.924   1.254 126.060  0.00  0.00    -0.292 OA
ATOM      2  C   LIG A   1      -5.878   0.895 126.765  0.00  0.00    +0.163 C 
ATOM      3  C   LIG A   1      -5.594   0.658 128.223  0.00  0.00    +0.008 C 
ATOM      4  C   LIG A   1      -4.884   1.936 128.650  0.00  0.00    +0.081 C 
ATOM      5  C   LIG A   1      -5.207   2.049 130.114  0.00  0.00    +0.129 C 
ATOM      6  C   LIG A   1      -6.670   2.440 130.347  0.00  0.00    +0.050 C 
ATOM      7  C   LIG A   1      -5.021   0.577 130.372  0.00  0.00    +0.193 C 
ATOM      8  O   LIG A   1      -4.435   0.080 131.343  0.00  0.00    -0.289 OA
ATOM      9  C   LIG A   1      -5.572  -0.263 129.226  0.00  0.00    +0.036 C 
ATOM     10  C   LIG A   1      -5.717  -1.700 129.560  0.00  0.00    +0.184 C 
ATOM     11  C   LIG A   1      -6.784  -2.796 129.683  0.00  0.00    +0.098 C 
ATOM     12  O   LIG A   1      -6.589  -1.901 130.738  0.00  0.00    -0.360 OA
ATOM     13  C   LIG A   1      -6.340  -4.200 130.048  0.00  0.00    +0.044 C 
ATOM     14  C   LIG A   1      -8.077  -2.711 128.939  0.00  0.00    +0.038 C 
ATOM     15  C   LIG A   1      -7.728  -3.005 127.495  0.00  0.00    +0.007 C 
ATOM     16  C   LIG A   1      -8.725  -2.568 126.485  0.00  0.00    -0.001 C 
ATOM     17  C   LIG A   1      -8.523  -1.380 125.564  0.00  0.00    -0.001 C 
ATOM     18  C   LIG A   1      -8.366  -2.801 125.026  0.00  0.00    -0.029 C 
ATOM     19  C   LIG A   1      -9.427  -3.339 124.112  0.00  0.00    +0.011 C 
ATOM     20  C   LIG A   1      -6.976  -3.314 124.660  0.00  0.00    +0.011 C 
ATOM     21  C   LIG A   1      -7.290  -0.551 125.514  0.00  0.00    +0.015 C 
ATOM     22  C   LIG A   1      -7.259   0.834 126.121  0.00  0.00    +0.057 C 
ATOM     23  C   LIG A   1      -8.434   1.400 126.901  0.00  0.00    +0.016 C 
ENDROOT
BRANCH   5  24
ATOM     24  O   LIG A   1      -4.359   2.990 130.722  0.00  0.00    -0.381 OA
ATOM     25  H   LIG A   1      -3.602   2.515 131.104  0.00  0.00    +0.211 HD
ENDBRANCH   5  24
TORSDOF 1
ENDMDL
