MODEL 1
REMARK VINA RESULT:      -9.3      0.000      0.000
REMARK  Name = NuBBE_1203
REMARK  11 active torsions:
REMARK  status: ('A' for Active; 'I' for Inactive)
REMARK    1  A    between atoms: C_1  and  C_2
REMARK    2  A    between atoms: C_6  and  C_7
REMARK    3  A    between atoms: C_12  and  C_13
REMARK    4  A    between atoms: C_16  and  C_17
REMARK    5  A    between atoms: C_17  and  O_18
REMARK    6  A    between atoms: C_22  and  C_25
REMARK    7  A    between atoms: C_22  and  C_26
REMARK    8  A    between atoms: C_27  and  C_35
REMARK    9  A    between atoms: C_27  and  C_36
REMARK   10  A    between atoms: C_28  and  O_30
REMARK   11  A    between atoms: C_31  and  O_33
REMARK                            x       y       z     vdW  Elec       q    Type
REMARK                         _______ _______ _______ _____ _____    ______ ____
ROOT
ATOM      1  C   LIG A   1      -9.387  -3.398 123.222  0.00  0.00    +0.012 C 
ATOM      2  C   LIG A   1      -8.308  -2.816 124.141  0.00  0.00    -0.023 C 
ATOM      3  C   LIG A   1      -7.553  -1.482 123.477  0.00  0.00    +0.003 C 
ATOM      4  C   LIG A   1      -6.129  -1.736 123.143  0.00  0.00    +0.005 C 
ATOM      5  C   LIG A   1      -5.531  -1.788 124.490  0.00  0.00    +0.008 C 
ATOM      6  C   LIG A   1      -6.604  -1.362 125.619  0.00  0.00    -0.019 C 
ATOM      7  C   LIG A   1      -5.887  -2.352 126.718  0.00  0.00    +0.012 C 
ATOM      8  C   LIG A   1      -8.587  -1.692 124.982  0.00  0.00    +0.006 C 
ATOM      9  C   LIG A   1      -9.916  -0.342 125.514  0.00  0.00    +0.031 C 
ATOM     10  C   LIG A   1      -9.143   1.212 126.245  0.00  0.00    -0.026 C 
ATOM     11  C   LIG A   1      -7.760   1.456 126.683  0.00  0.00    -0.063 C 
ATOM     12  C   LIG A   1      -6.237   0.393 126.475  0.00  0.00    -0.005 C 
ATOM     13  C   LIG A   1      -4.928   1.147 125.848  0.00  0.00    +0.016 C 
ATOM     14  C   LIG A   1      -5.502   0.345 127.951  0.00  0.00    +0.012 C 
ATOM     15  C   LIG A   1      -5.367   1.709 128.696  0.00  0.00    +0.019 C 
ATOM     16  C   LIG A   1      -6.226   2.940 128.261  0.00  0.00    +0.074 C 
ATOM     17  C   LIG A   1      -7.649   2.516 127.816  0.00  0.00    +0.033 C 
ATOM     18  C   LIG A   1      -8.443   2.027 129.073  0.00  0.00    +0.015 C 
ATOM     19  C   LIG A   1      -8.552   3.060 130.223  0.00  0.00    -0.034 C 
ATOM     20  C   LIG A   1      -7.688   4.299 129.938  0.00  0.00    +0.007 C 
ATOM     21  C   LIG A   1      -6.278   3.936 129.482  0.00  0.00    +0.019 C 
ATOM     22  C   LIG A   1      -8.121   2.397 131.548  0.00  0.00    +0.011 C 
ATOM     23  C   LIG A   1     -10.017   3.506 130.385  0.00  0.00    +0.011 C 
ATOM     24  C   LIG A   1      -7.839   0.012 124.686  0.00  0.00    -0.003 C 
ATOM     25  C   LIG A   1      -8.243  -0.839 126.644  0.00  0.00    +0.149 C 
ATOM     26  C   LIG A   1      -8.710  -2.665 126.793  0.00  0.00    +0.144 C 
ATOM     27  C   LIG A   1      -8.283  -3.592 125.506  0.00  0.00    +0.041 C 
ATOM     28  C   LIG A   1      -6.762   1.012 124.047  0.00  0.00    +0.014 C 
ATOM     29  C   LIG A   1      -9.042   0.809 123.590  0.00  0.00    +0.014 C 
ENDROOT
BRANCH  16  30
ATOM     30  C   LIG A   1      -5.509   3.774 127.196  0.00  0.00    +0.311 C 
ATOM     31  O   LIG A   1      -4.308   3.998 127.143  0.00  0.00    -0.250 OA
BRANCH  30  32
ATOM     32  O   LIG A   1      -6.322   4.402 126.326  0.00  0.00    -0.480 OA
ATOM     33  H   LIG A   1      -5.723   5.005 125.839  0.00  0.00    +0.295 HD
ENDBRANCH  30  32
ENDBRANCH  16  30
BRANCH  25  34
ATOM     34  O   LIG A   1      -7.621  -0.726 127.944  0.00  0.00    -0.389 OA
ATOM     35  H   LIG A   1      -8.060  -1.374 128.538  0.00  0.00    +0.210 HD
ENDBRANCH  25  34
BRANCH  26  36
ATOM     36  O   LIG A   1      -8.350  -3.205 128.060  0.00  0.00    -0.389 OA
ATOM     37  H   LIG A   1      -8.225  -2.455 128.668  0.00  0.00    +0.210 HD
ENDBRANCH  26  36
TORSDOF 4
ENDMDL
MODEL 2
REMARK VINA RESULT:      -8.9      3.092      5.509
REMARK  Name = NuBBE_1203
REMARK  11 active torsions:
REMARK  status: ('A' for Active; 'I' for Inactive)
REMARK    1  A    between atoms: C_1  and  C_2
REMARK    2  A    between atoms: C_6  and  C_7
REMARK    3  A    between atoms: C_12  and  C_13
REMARK    4  A    between atoms: C_16  and  C_17
REMARK    5  A    between atoms: C_17  and  O_18
REMARK    6  A    between atoms: C_22  and  C_25
REMARK    7  A    between atoms: C_22  and  C_26
REMARK    8  A    between atoms: C_27  and  C_35
REMARK    9  A    between atoms: C_27  and  C_36
REMARK   10  A    between atoms: C_28  and  O_30
REMARK   11  A    between atoms: C_31  and  O_33
REMARK                            x       y       z     vdW  Elec       q    Type
REMARK                         _______ _______ _______ _____ _____    ______ ____
ROOT
ATOM      1  C   LIG A   1      -5.867  -4.080 132.835  0.00  0.00    +0.012 C 
ATOM      2  C   LIG A   1      -5.862  -3.431 131.447  0.00  0.00    -0.023 C 
ATOM      3  C   LIG A   1      -7.292  -2.636 131.107  0.00  0.00    +0.003 C 
ATOM      4  C   LIG A   1      -8.064  -3.288 130.018  0.00  0.00    +0.005 C 
ATOM      5  C   LIG A   1      -7.237  -2.947 128.846  0.00  0.00    +0.008 C 
ATOM      6  C   LIG A   1      -6.063  -1.912 129.243  0.00  0.00    -0.019 C 
ATOM      7  C   LIG A   1      -5.078  -2.537 128.085  0.00  0.00    +0.012 C 
ATOM      8  C   LIG A   1      -5.562  -2.041 131.288  0.00  0.00    +0.006 C 
ATOM      9  C   LIG A   1      -5.149  -0.346 132.198  0.00  0.00    +0.031 C 
ATOM     10  C   LIG A   1      -5.579   1.173 131.170  0.00  0.00    -0.026 C 
ATOM     11  C   LIG A   1      -5.939   1.272 129.747  0.00  0.00    -0.063 C 
ATOM     12  C   LIG A   1      -6.305  -0.082 128.511  0.00  0.00    -0.005 C 
ATOM     13  C   LIG A   1      -7.695   0.089 127.666  0.00  0.00    +0.016 C 
ATOM     14  C   LIG A   1      -5.437   0.283 127.156  0.00  0.00    +0.012 C 
ATOM     15  C   LIG A   1      -5.497   1.767 126.680  0.00  0.00    +0.019 C 
ATOM     16  C   LIG A   1      -6.000   2.891 127.643  0.00  0.00    +0.074 C 
ATOM     17  C   LIG A   1      -5.550   2.635 129.105  0.00  0.00    +0.033 C 
ATOM     18  C   LIG A   1      -4.001   2.835 129.196  0.00  0.00    +0.015 C 
ATOM     19  C   LIG A   1      -3.491   4.226 128.738  0.00  0.00    -0.034 C 
ATOM     20  C   LIG A   1      -4.628   5.055 128.120  0.00  0.00    +0.007 C 
ATOM     21  C   LIG A   1      -5.443   4.262 127.102  0.00  0.00    +0.019 C 
ATOM     22  C   LIG A   1      -2.345   4.041 127.722  0.00  0.00    +0.011 C 
ATOM     23  C   LIG A   1      -2.920   4.994 129.945  0.00  0.00    +0.011 C 
ATOM     24  C   LIG A   1      -6.858  -0.772 130.776  0.00  0.00    -0.003 C 
ATOM     25  C   LIG A   1      -4.768  -0.712 130.187  0.00  0.00    +0.149 C 
ATOM     26  C   LIG A   1      -3.657  -2.204 130.523  0.00  0.00    +0.144 C 
ATOM     27  C   LIG A   1      -4.459  -3.617 130.768  0.00  0.00    +0.041 C 
ATOM     28  C   LIG A   1      -8.263  -0.336 130.141  0.00  0.00    +0.014 C 
ATOM     29  C   LIG A   1      -7.546  -0.219 132.359  0.00  0.00    +0.014 C 
ENDROOT
BRANCH  16  30
ATOM     30  C   LIG A   1      -7.513   3.090 127.529  0.00  0.00    +0.311 C 
ATOM     31  O   LIG A   1      -8.172   3.033 126.500  0.00  0.00    -0.250 OA
BRANCH  30  32
ATOM     32  O   LIG A   1      -8.121   3.481 128.664  0.00  0.00    -0.480 OA
ATOM     33  H   LIG A   1      -7.463   3.284 129.362  0.00  0.00    +0.295 HD
ENDBRANCH  30  32
ENDBRANCH  16  30
BRANCH  25  34
ATOM     34  O   LIG A   1      -4.059  -0.245 129.017  0.00  0.00    -0.389 OA
ATOM     35  H   LIG A   1      -3.146  -0.015 129.297  0.00  0.00    +0.210 HD
ENDBRANCH  25  34
BRANCH  26  36
ATOM     36  O   LIG A   1      -2.579  -2.285 129.598  0.00  0.00    -0.389 OA
ATOM     37  H   LIG A   1      -1.796  -2.582 130.093  0.00  0.00    +0.210 HD
ENDBRANCH  26  36
TORSDOF 4
ENDMDL
MODEL 3
REMARK VINA RESULT:      -8.5      5.053      8.243
REMARK  Name = NuBBE_1203
REMARK  11 active torsions:
REMARK  status: ('A' for Active; 'I' for Inactive)
REMARK    1  A    between atoms: C_1  and  C_2
REMARK    2  A    between atoms: C_6  and  C_7
REMARK    3  A    between atoms: C_12  and  C_13
REMARK    4  A    between atoms: C_16  and  C_17
REMARK    5  A    between atoms: C_17  and  O_18
REMARK    6  A    between atoms: C_22  and  C_25
REMARK    7  A    between atoms: C_22  and  C_26
REMARK    8  A    between atoms: C_27  and  C_35
REMARK    9  A    between atoms: C_27  and  C_36
REMARK   10  A    between atoms: C_28  and  O_30
REMARK   11  A    between atoms: C_31  and  O_33
REMARK                            x       y       z     vdW  Elec       q    Type
REMARK                         _______ _______ _______ _____ _____    ______ ____
ROOT
ATOM      1  C   LIG A   1      -1.411   6.278 131.709  0.00  0.00    +0.012 C 
ATOM      2  C   LIG A   1      -2.486   5.342 131.144  0.00  0.00    -0.023 C 
ATOM      3  C   LIG A   1      -3.278   4.482 132.337  0.00  0.00    +0.003 C 
ATOM      4  C   LIG A   1      -2.990   3.027 132.282  0.00  0.00    +0.005 C 
ATOM      5  C   LIG A   1      -3.741   2.639 131.074  0.00  0.00    +0.008 C 
ATOM      6  C   LIG A   1      -4.640   3.864 130.529  0.00  0.00    -0.019 C 
ATOM      7  C   LIG A   1      -4.485   3.331 128.982  0.00  0.00    +0.012 C 
ATOM      8  C   LIG A   1      -3.862   5.733 131.123  0.00  0.00    +0.006 C 
ATOM      9  C   LIG A   1      -5.175   7.112 131.619  0.00  0.00    +0.031 C 
ATOM     10  C   LIG A   1      -6.927   6.441 131.793  0.00  0.00    -0.026 C 
ATOM     11  C   LIG A   1      -7.477   5.138 131.392  0.00  0.00    -0.063 C 
ATOM     12  C   LIG A   1      -6.596   3.611 130.767  0.00  0.00    -0.005 C 
ATOM     13  C   LIG A   1      -6.970   2.215 131.532  0.00  0.00    +0.016 C 
ATOM     14  C   LIG A   1      -7.433   3.107 129.438  0.00  0.00    +0.012 C 
ATOM     15  C   LIG A   1      -8.986   3.071 129.577  0.00  0.00    +0.019 C 
ATOM     16  C   LIG A   1      -9.698   3.842 130.734  0.00  0.00    +0.074 C 
ATOM     17  C   LIG A   1      -8.992   5.186 131.046  0.00  0.00    +0.033 C 
ATOM     18  C   LIG A   1      -9.226   6.166 129.848  0.00  0.00    +0.015 C 
ATOM     19  C   LIG A   1     -10.713   6.435 129.501  0.00  0.00    -0.034 C 
ATOM     20  C   LIG A   1     -11.644   5.525 130.317  0.00  0.00    +0.007 C 
ATOM     21  C   LIG A   1     -11.197   4.066 130.302  0.00  0.00    +0.019 C 
ATOM     22  C   LIG A   1     -10.933   6.215 127.989  0.00  0.00    +0.011 C 
ATOM     23  C   LIG A   1     -11.061   7.903 129.810  0.00  0.00    +0.011 C 
ATOM     24  C   LIG A   1      -5.165   4.931 132.224  0.00  0.00    -0.003 C 
ATOM     25  C   LIG A   1      -5.518   5.633 130.199  0.00  0.00    +0.149 C 
ATOM     26  C   LIG A   1      -4.055   6.137 129.113  0.00  0.00    +0.144 C 
ATOM     27  C   LIG A   1      -2.605   5.531 129.590  0.00  0.00    +0.041 C 
ATOM     28  C   LIG A   1      -5.719   3.760 133.167  0.00  0.00    +0.014 C 
ATOM     29  C   LIG A   1      -5.124   5.947 133.724  0.00  0.00    +0.014 C 
ENDROOT
BRANCH  16  30
ATOM     30  C   LIG A   1      -9.851   2.965 131.979  0.00  0.00    +0.311 C 
ATOM     31  O   LIG A   1     -10.133   1.775 131.993  0.00  0.00    -0.250 OA
BRANCH  30  32
ATOM     32  O   LIG A   1      -9.780   3.625 133.150  0.00  0.00    -0.480 OA
ATOM     33  H   LIG A   1     -10.161   4.504 132.947  0.00  0.00    +0.295 HD
ENDBRANCH  30  32
ENDBRANCH  16  30
BRANCH  25  34
ATOM     34  O   LIG A   1      -6.382   5.213 129.119  0.00  0.00    -0.389 OA
ATOM     35  H   LIG A   1      -6.154   5.753 128.331  0.00  0.00    +0.210 HD
ENDBRANCH  25  34
BRANCH  26  36
ATOM     36  O   LIG A   1      -4.340   5.977 127.728  0.00  0.00    -0.389 OA
ATOM     37  H   LIG A   1      -4.247   5.030 127.523  0.00  0.00    +0.210 HD
ENDBRANCH  26  36
TORSDOF 4
ENDMDL
MODEL 4
REMARK VINA RESULT:      -8.5      3.512      5.665
REMARK  Name = NuBBE_1203
REMARK  11 active torsions:
REMARK  status: ('A' for Active; 'I' for Inactive)
REMARK    1  A    between atoms: C_1  and  C_2
REMARK    2  A    between atoms: C_6  and  C_7
REMARK    3  A    between atoms: C_12  and  C_13
REMARK    4  A    between atoms: C_16  and  C_17
REMARK    5  A    between atoms: C_17  and  O_18
REMARK    6  A    between atoms: C_22  and  C_25
REMARK    7  A    between atoms: C_22  and  C_26
REMARK    8  A    between atoms: C_27  and  C_35
REMARK    9  A    between atoms: C_27  and  C_36
REMARK   10  A    between atoms: C_28  and  O_30
REMARK   11  A    between atoms: C_31  and  O_33
REMARK                            x       y       z     vdW  Elec       q    Type
REMARK                         _______ _______ _______ _____ _____    ______ ____
ROOT
ATOM      1  C   LIG A   1      -5.604  -5.394 131.368  0.00  0.00    +0.012 C 
ATOM      2  C   LIG A   1      -5.649  -4.139 130.489  0.00  0.00    -0.023 C 
ATOM      3  C   LIG A   1      -7.130  -3.367 130.549  0.00  0.00    +0.003 C 
ATOM      4  C   LIG A   1      -7.863  -3.433 129.260  0.00  0.00    +0.005 C 
ATOM      5  C   LIG A   1      -7.066  -2.503 128.438  0.00  0.00    +0.008 C 
ATOM      6  C   LIG A   1      -5.961  -1.737 129.332  0.00  0.00    -0.019 C 
ATOM      7  C   LIG A   1      -4.942  -1.639 128.046  0.00  0.00    +0.012 C 
ATOM      8  C   LIG A   1      -5.443  -2.840 131.054  0.00  0.00    +0.006 C 
ATOM      9  C   LIG A   1      -5.138  -1.805 132.699  0.00  0.00    +0.031 C 
ATOM     10  C   LIG A   1      -5.673  -0.005 132.555  0.00  0.00    -0.026 C 
ATOM     11  C   LIG A   1      -6.046   0.770 131.361  0.00  0.00    -0.063 C 
ATOM     12  C   LIG A   1      -6.328   0.196 129.604  0.00  0.00    -0.005 C 
ATOM     13  C   LIG A   1      -7.730   0.682 128.918  0.00  0.00    +0.016 C 
ATOM     14  C   LIG A   1      -5.493   1.240 128.638  0.00  0.00    +0.012 C 
ATOM     15  C   LIG A   1      -5.653   2.757 128.965  0.00  0.00    +0.019 C 
ATOM     16  C   LIG A   1      -6.225   3.216 130.345  0.00  0.00    +0.074 C 
ATOM     17  C   LIG A   1      -5.752   2.292 131.496  0.00  0.00    +0.033 C 
ATOM     18  C   LIG A   1      -4.218   2.512 131.720  0.00  0.00    +0.015 C 
ATOM     19  C   LIG A   1      -3.804   3.973 132.032  0.00  0.00    -0.034 C 
ATOM     20  C   LIG A   1      -4.996   4.931 131.877  0.00  0.00    +0.007 C 
ATOM     21  C   LIG A   1      -5.763   4.705 130.577  0.00  0.00    +0.019 C 
ATOM     22  C   LIG A   1      -2.653   4.390 131.093  0.00  0.00    +0.011 C 
ATOM     23  C   LIG A   1      -3.279   4.067 133.477  0.00  0.00    +0.011 C 
ATOM     24  C   LIG A   1      -6.823  -1.565 131.206  0.00  0.00    -0.003 C 
ATOM     25  C   LIG A   1      -4.744  -1.094 130.786  0.00  0.00    +0.149 C 
ATOM     26  C   LIG A   1      -3.535  -2.485 130.365  0.00  0.00    +0.144 C 
ATOM     27  C   LIG A   1      -4.240  -3.876 129.848  0.00  0.00    +0.041 C 
ATOM     28  C   LIG A   1      -8.256  -0.955 130.833  0.00  0.00    +0.014 C 
ATOM     29  C   LIG A   1      -7.538  -1.920 132.833  0.00  0.00    +0.014 C 
ENDROOT
BRANCH  16  30
ATOM     30  C   LIG A   1      -7.748   3.355 130.302  0.00  0.00    +0.311 C 
ATOM     31  O   LIG A   1      -8.533   2.959 131.152  0.00  0.00    -0.250 OA
BRANCH  30  32
ATOM     32  O   LIG A   1      -8.240   3.853 129.152  0.00  0.00    -0.480 OA
ATOM     33  H   LIG A   1      -7.724   4.674 129.012  0.00  0.00    +0.295 HD
ENDBRANCH  30  32
ENDBRANCH  16  30
BRANCH  25  34
ATOM     34  O   LIG A   1      -4.074  -0.064 130.026  0.00  0.00    -0.389 OA
ATOM     35  H   LIG A   1      -3.217   0.122 130.471  0.00  0.00    +0.210 HD
ENDBRANCH  25  34
BRANCH  26  36
ATOM     36  O   LIG A   1      -2.459  -2.028 129.553  0.00  0.00    -0.389 OA
ATOM     37  H   LIG A   1      -1.882  -1.485 130.119  0.00  0.00    +0.210 HD
ENDBRANCH  26  36
TORSDOF 4
ENDMDL
MODEL 5
REMARK VINA RESULT:      -8.4      2.536      7.368
REMARK  Name = NuBBE_1203
REMARK  11 active torsions:
REMARK  status: ('A' for Active; 'I' for Inactive)
REMARK    1  A    between atoms: C_1  and  C_2
REMARK    2  A    between atoms: C_6  and  C_7
REMARK    3  A    between atoms: C_12  and  C_13
REMARK    4  A    between atoms: C_16  and  C_17
REMARK    5  A    between atoms: C_17  and  O_18
REMARK    6  A    between atoms: C_22  and  C_25
REMARK    7  A    between atoms: C_22  and  C_26
REMARK    8  A    between atoms: C_27  and  C_35
REMARK    9  A    between atoms: C_27  and  C_36
REMARK   10  A    between atoms: C_28  and  O_30
REMARK   11  A    between atoms: C_31  and  O_33
REMARK                            x       y       z     vdW  Elec       q    Type
REMARK                         _______ _______ _______ _____ _____    ______ ____
ROOT
ATOM      1  C   LIG A   1      -7.837   4.943 134.900  0.00  0.00    +0.012 C 
ATOM      2  C   LIG A   1      -8.115   4.635 133.425  0.00  0.00    -0.023 C 
ATOM      3  C   LIG A   1      -6.861   5.103 132.426  0.00  0.00    +0.003 C 
ATOM      4  C   LIG A   1      -7.232   6.225 131.527  0.00  0.00    +0.005 C 
ATOM      5  C   LIG A   1      -8.136   5.542 130.585  0.00  0.00    +0.008 C 
ATOM      6  C   LIG A   1      -8.136   3.946 130.831  0.00  0.00    -0.019 C 
ATOM      7  C   LIG A   1      -9.698   3.837 130.331  0.00  0.00    +0.012 C 
ATOM      8  C   LIG A   1      -7.586   3.458 132.808  0.00  0.00    +0.006 C 
ATOM      9  C   LIG A   1      -6.456   1.863 133.035  0.00  0.00    +0.031 C 
ATOM     10  C   LIG A   1      -5.772   1.199 131.410  0.00  0.00    -0.026 C 
ATOM     11  C   LIG A   1      -6.141   1.540 130.028  0.00  0.00    -0.063 C 
ATOM     12  C   LIG A   1      -7.259   2.897 129.390  0.00  0.00    -0.005 C 
ATOM     13  C   LIG A   1      -6.628   3.837 128.210  0.00  0.00    +0.016 C 
ATOM     14  C   LIG A   1      -8.262   2.189 128.289  0.00  0.00    +0.012 C 
ATOM     15  C   LIG A   1      -7.587   1.230 127.261  0.00  0.00    +0.019 C 
ATOM     16  C   LIG A   1      -6.151   0.672 127.519  0.00  0.00    +0.074 C 
ATOM     17  C   LIG A   1      -5.914   0.376 129.022  0.00  0.00    +0.033 C 
ATOM     18  C   LIG A   1      -6.790  -0.854 129.436  0.00  0.00    +0.015 C 
ATOM     19  C   LIG A   1      -6.541  -2.143 128.614  0.00  0.00    -0.034 C 
ATOM     20  C   LIG A   1      -5.593  -1.873 127.435  0.00  0.00    +0.007 C 
ATOM     21  C   LIG A   1      -5.983  -0.628 126.644  0.00  0.00    +0.019 C 
ATOM     22  C   LIG A   1      -7.890  -2.693 128.104  0.00  0.00    +0.011 C 
ATOM     23  C   LIG A   1      -5.913  -3.223 129.515  0.00  0.00    +0.011 C 
ATOM     24  C   LIG A   1      -6.227   3.514 131.504  0.00  0.00    -0.003 C 
ATOM     25  C   LIG A   1      -7.865   2.087 131.523  0.00  0.00    +0.149 C 
ATOM     26  C   LIG A   1      -9.312   2.338 132.713  0.00  0.00    +0.144 C 
ATOM     27  C   LIG A   1      -9.479   3.870 133.280  0.00  0.00    +0.041 C 
ATOM     28  C   LIG A   1      -5.335   4.252 130.397  0.00  0.00    +0.014 C 
ATOM     29  C   LIG A   1      -4.706   3.420 132.485  0.00  0.00    +0.014 C 
ENDROOT
BRANCH  16  30
ATOM     30  C   LIG A   1      -5.079   1.594 126.935  0.00  0.00    +0.311 C 
ATOM     31  O   LIG A   1      -5.123   2.153 125.847  0.00  0.00    -0.250 OA
BRANCH  30  32
ATOM     32  O   LIG A   1      -3.946   1.677 127.657  0.00  0.00    -0.480 OA
ATOM     33  H   LIG A   1      -3.602   2.571 127.451  0.00  0.00    +0.295 HD
ENDBRANCH  30  32
ENDBRANCH  16  30
BRANCH  25  34
ATOM     34  O   LIG A   1      -8.617   1.396 130.500  0.00  0.00    -0.389 OA
ATOM     35  H   LIG A   1      -9.486   1.151 130.887  0.00  0.00    +0.210 HD
ENDBRANCH  25  34
BRANCH  26  36
ATOM     36  O   LIG A   1     -10.513   1.751 132.223  0.00  0.00    -0.389 OA
ATOM     37  H   LIG A   1     -10.405   1.635 131.262  0.00  0.00    +0.210 HD
ENDBRANCH  26  36
TORSDOF 4
ENDMDL
MODEL 6
REMARK VINA RESULT:      -8.1      4.439      7.007
REMARK  Name = NuBBE_1203
REMARK  11 active torsions:
REMARK  status: ('A' for Active; 'I' for Inactive)
REMARK    1  A    between atoms: C_1  and  C_2
REMARK    2  A    between atoms: C_6  and  C_7
REMARK    3  A    between atoms: C_12  and  C_13
REMARK    4  A    between atoms: C_16  and  C_17
REMARK    5  A    between atoms: C_17  and  O_18
REMARK    6  A    between atoms: C_22  and  C_25
REMARK    7  A    between atoms: C_22  and  C_26
REMARK    8  A    between atoms: C_27  and  C_35
REMARK    9  A    between atoms: C_27  and  C_36
REMARK   10  A    between atoms: C_28  and  O_30
REMARK   11  A    between atoms: C_31  and  O_33
REMARK                            x       y       z     vdW  Elec       q    Type
REMARK                         _______ _______ _______ _____ _____    ______ ____
ROOT
ATOM      1  C   LIG A   1      -9.362   0.437 131.831  0.00  0.00    +0.012 C 
ATOM      2  C   LIG A   1      -8.047   1.001 131.284  0.00  0.00    -0.023 C 
ATOM      3  C   LIG A   1      -8.286   2.262 130.214  0.00  0.00    +0.003 C 
ATOM      4  C   LIG A   1      -7.893   1.917 128.825  0.00  0.00    +0.005 C 
ATOM      5  C   LIG A   1      -6.424   1.894 128.947  0.00  0.00    +0.008 C 
ATOM      6  C   LIG A   1      -5.953   2.427 130.397  0.00  0.00    -0.019 C 
ATOM      7  C   LIG A   1      -4.632   1.450 130.361  0.00  0.00    +0.012 C 
ATOM      8  C   LIG A   1      -7.458   2.174 131.853  0.00  0.00    +0.006 C 
ATOM      9  C   LIG A   1      -7.647   3.616 133.179  0.00  0.00    +0.031 C 
ATOM     10  C   LIG A   1      -6.656   5.159 132.745  0.00  0.00    -0.026 C 
ATOM     11  C   LIG A   1      -5.612   5.347 131.726  0.00  0.00    -0.063 C 
ATOM     12  C   LIG A   1      -5.050   4.196 130.364  0.00  0.00    -0.005 C 
ATOM     13  C   LIG A   1      -4.984   4.850 128.866  0.00  0.00    +0.016 C 
ATOM     14  C   LIG A   1      -3.402   4.175 130.428  0.00  0.00    +0.012 C 
ATOM     15  C   LIG A   1      -2.702   5.562 130.572  0.00  0.00    +0.019 C 
ATOM     16  C   LIG A   1      -3.512   6.816 131.033  0.00  0.00    +0.074 C 
ATOM     17  C   LIG A   1      -4.579   6.449 132.096  0.00  0.00    +0.033 C 
ATOM     18  C   LIG A   1      -3.850   6.060 133.425  0.00  0.00    +0.015 C 
ATOM     19  C   LIG A   1      -2.907   7.148 133.999  0.00  0.00    -0.034 C 
ATOM     20  C   LIG A   1      -2.761   8.325 133.021  0.00  0.00    +0.007 C 
ATOM     21  C   LIG A   1      -2.480   7.867 131.593  0.00  0.00    +0.019 C 
ATOM     22  C   LIG A   1      -1.529   6.523 134.299  0.00  0.00    +0.011 C 
ATOM     23  C   LIG A   1      -3.473   7.679 135.330  0.00  0.00    +0.011 C 
ATOM     24  C   LIG A   1      -7.383   3.821 130.940  0.00  0.00    -0.003 C 
ATOM     25  C   LIG A   1      -5.847   3.082 132.286  0.00  0.00    +0.149 C 
ATOM     26  C   LIG A   1      -5.914   1.292 132.892  0.00  0.00    +0.144 C 
ATOM     27  C   LIG A   1      -6.827   0.287 131.966  0.00  0.00    +0.041 C 
ATOM     28  C   LIG A   1      -7.441   4.733 129.624  0.00  0.00    +0.014 C 
ATOM     29  C   LIG A   1      -8.932   4.632 131.417  0.00  0.00    +0.014 C 
ENDROOT
BRANCH  16  30
ATOM     30  C   LIG A   1      -4.115   7.562 129.840  0.00  0.00    +0.311 C 
ATOM     31  O   LIG A   1      -3.553   7.803 128.781  0.00  0.00    -0.250 OA
BRANCH  30  32
ATOM     32  O   LIG A   1      -5.333   8.092 130.059  0.00  0.00    -0.480 OA
ATOM     33  H   LIG A   1      -5.236   9.025 129.778  0.00  0.00    +0.295 HD
ENDBRANCH  30  32
ENDBRANCH  16  30
BRANCH  25  34
ATOM     34  O   LIG A   1      -4.409   3.220 132.355  0.00  0.00    -0.389 OA
ATOM     35  H   LIG A   1      -4.082   2.570 133.014  0.00  0.00    +0.210 HD
ENDBRANCH  25  34
BRANCH  26  36
ATOM     36  O   LIG A   1      -4.623   0.791 133.218  0.00  0.00    -0.389 OA
ATOM     37  H   LIG A   1      -3.973   1.443 132.903  0.00  0.00    +0.210 HD
ENDBRANCH  26  36
TORSDOF 4
ENDMDL
MODEL 7
REMARK VINA RESULT:      -8.0      3.801      6.296
REMARK  Name = NuBBE_1203
REMARK  11 active torsions:
REMARK  status: ('A' for Active; 'I' for Inactive)
REMARK    1  A    between atoms: C_1  and  C_2
REMARK    2  A    between atoms: C_6  and  C_7
REMARK    3  A    between atoms: C_12  and  C_13
REMARK    4  A    between atoms: C_16  and  C_17
REMARK    5  A    between atoms: C_17  and  O_18
REMARK    6  A    between atoms: C_22  and  C_25
REMARK    7  A    between atoms: C_22  and  C_26
REMARK    8  A    between atoms: C_27  and  C_35
REMARK    9  A    between atoms: C_27  and  C_36
REMARK   10  A    between atoms: C_28  and  O_30
REMARK   11  A    between atoms: C_31  and  O_33
REMARK                            x       y       z     vdW  Elec       q    Type
REMARK                         _______ _______ _______ _____ _____    ______ ____
ROOT
ATOM      1  C   LIG A   1      -5.628  -5.195 131.207  0.00  0.00    +0.012 C 
ATOM      2  C   LIG A   1      -6.252  -3.796 131.143  0.00  0.00    -0.023 C 
ATOM      3  C   LIG A   1      -5.855  -2.858 132.467  0.00  0.00    +0.003 C 
ATOM      4  C   LIG A   1      -7.025  -2.565 133.333  0.00  0.00    +0.005 C 
ATOM      5  C   LIG A   1      -7.765  -1.609 132.490  0.00  0.00    +0.008 C 
ATOM      6  C   LIG A   1      -6.904  -1.193 131.188  0.00  0.00    -0.019 C 
ATOM      7  C   LIG A   1      -8.277  -0.982 130.309  0.00  0.00    +0.012 C 
ATOM      8  C   LIG A   1      -5.495  -2.676 130.674  0.00  0.00    +0.006 C 
ATOM      9  C   LIG A   1      -3.746  -2.040 130.036  0.00  0.00    +0.031 C 
ATOM     10  C   LIG A   1      -3.490  -0.191 130.289  0.00  0.00    -0.026 C 
ATOM     11  C   LIG A   1      -4.463   0.849 130.657  0.00  0.00    -0.063 C 
ATOM     12  C   LIG A   1      -6.241   0.679 131.211  0.00  0.00    -0.005 C 
ATOM     13  C   LIG A   1      -6.634   1.479 132.583  0.00  0.00    +0.016 C 
ATOM     14  C   LIG A   1      -7.106   1.770 130.327  0.00  0.00    +0.012 C 
ATOM     15  C   LIG A   1      -6.493   3.199 130.208  0.00  0.00    +0.019 C 
ATOM     16  C   LIG A   1      -4.988   3.449 130.550  0.00  0.00    +0.074 C 
ATOM     17  C   LIG A   1      -4.097   2.259 130.112  0.00  0.00    +0.033 C 
ATOM     18  C   LIG A   1      -4.045   2.219 128.548  0.00  0.00    +0.015 C 
ATOM     19  C   LIG A   1      -3.533   3.519 127.876  0.00  0.00    -0.034 C 
ATOM     20  C   LIG A   1      -3.351   4.641 128.909  0.00  0.00    +0.007 C 
ATOM     21  C   LIG A   1      -4.556   4.785 129.835  0.00  0.00    +0.019 C 
ATOM     22  C   LIG A   1      -4.527   3.953 126.778  0.00  0.00    +0.011 C 
ATOM     23  C   LIG A   1      -2.179   3.252 127.192  0.00  0.00    +0.011 C 
ATOM     24  C   LIG A   1      -4.931  -1.281 131.809  0.00  0.00    -0.003 C 
ATOM     25  C   LIG A   1      -5.535  -1.024 129.737  0.00  0.00    +0.149 C 
ATOM     26  C   LIG A   1      -6.359  -2.455 128.817  0.00  0.00    +0.144 C 
ATOM     27  C   LIG A   1      -7.018  -3.607 129.786  0.00  0.00    +0.041 C 
ATOM     28  C   LIG A   1      -4.992  -0.419 133.158  0.00  0.00    +0.014 C 
ATOM     29  C   LIG A   1      -3.314  -1.851 132.395  0.00  0.00    +0.014 C 
ENDROOT
BRANCH  16  30
ATOM     30  C   LIG A   1      -4.801   3.800 132.028  0.00  0.00    +0.311 C 
ATOM     31  O   LIG A   1      -5.532   4.517 132.697  0.00  0.00    -0.250 OA
BRANCH  30  32
ATOM     32  O   LIG A   1      -3.652   3.360 132.574  0.00  0.00    -0.480 OA
ATOM     33  H   LIG A   1      -2.977   3.564 131.895  0.00  0.00    +0.295 HD
ENDBRANCH  30  32
ENDBRANCH  16  30
BRANCH  25  34
ATOM     34  O   LIG A   1      -6.180   0.036 128.996  0.00  0.00    -0.389 OA
ATOM     35  H   LIG A   1      -6.446  -0.333 128.125  0.00  0.00    +0.210 HD
ENDBRANCH  25  34
BRANCH  26  36
ATOM     36  O   LIG A   1      -7.211  -1.997 127.774  0.00  0.00    -0.389 OA
ATOM     37  H   LIG A   1      -6.662  -1.480 127.159  0.00  0.00    +0.210 HD
ENDBRANCH  26  36
TORSDOF 4
ENDMDL
MODEL 8
REMARK VINA RESULT:      -8.0      3.190      6.356
REMARK  Name = NuBBE_1203
REMARK  11 active torsions:
REMARK  status: ('A' for Active; 'I' for Inactive)
REMARK    1  A    between atoms: C_1  and  C_2
REMARK    2  A    between atoms: C_6  and  C_7
REMARK    3  A    between atoms: C_12  and  C_13
REMARK    4  A    between atoms: C_16  and  C_17
REMARK    5  A    between atoms: C_17  and  O_18
REMARK    6  A    between atoms: C_22  and  C_25
REMARK    7  A    between atoms: C_22  and  C_26
REMARK    8  A    between atoms: C_27  and  C_35
REMARK    9  A    between atoms: C_27  and  C_36
REMARK   10  A    between atoms: C_28  and  O_30
REMARK   11  A    between atoms: C_31  and  O_33
REMARK                            x       y       z     vdW  Elec       q    Type
REMARK                         _______ _______ _______ _____ _____    ______ ____
ROOT
ATOM      1  C   LIG A   1      -7.719  -1.159 127.467  0.00  0.00    +0.012 C 
ATOM      2  C   LIG A   1      -7.916   0.049 128.389  0.00  0.00    -0.023 C 
ATOM      3  C   LIG A   1      -7.305  -0.209 129.922  0.00  0.00    +0.003 C 
ATOM      4  C   LIG A   1      -8.366  -0.275 130.958  0.00  0.00    +0.005 C 
ATOM      5  C   LIG A   1      -8.780   1.138 131.026  0.00  0.00    +0.008 C 
ATOM      6  C   LIG A   1      -7.801   2.074 130.146  0.00  0.00    -0.019 C 
ATOM      7  C   LIG A   1      -9.032   3.115 129.827  0.00  0.00    +0.012 C 
ATOM      8  C   LIG A   1      -6.859   0.990 128.602  0.00  0.00    +0.006 C 
ATOM      9  C   LIG A   1      -4.984   1.452 128.223  0.00  0.00    +0.031 C 
ATOM     10  C   LIG A   1      -4.219   2.579 129.524  0.00  0.00    -0.026 C 
ATOM     11  C   LIG A   1      -4.865   3.331 130.611  0.00  0.00    -0.063 C 
ATOM     12  C   LIG A   1      -6.633   3.270 131.219  0.00  0.00    -0.005 C 
ATOM     13  C   LIG A   1      -6.819   3.066 132.831  0.00  0.00    +0.016 C 
ATOM     14  C   LIG A   1      -7.126   4.837 131.360  0.00  0.00    +0.012 C 
ATOM     15  C   LIG A   1      -6.128   5.813 132.057  0.00  0.00    +0.019 C 
ATOM     16  C   LIG A   1      -4.625   5.422 132.229  0.00  0.00    +0.074 C 
ATOM     17  C   LIG A   1      -4.098   4.624 131.009  0.00  0.00    +0.033 C 
ATOM     18  C   LIG A   1      -4.017   5.586 129.777  0.00  0.00    +0.015 C 
ATOM     19  C   LIG A   1      -3.138   6.846 129.986  0.00  0.00    -0.034 C 
ATOM     20  C   LIG A   1      -2.672   6.959 131.446  0.00  0.00    +0.007 C 
ATOM     21  C   LIG A   1      -3.811   6.754 132.440  0.00  0.00    +0.019 C 
ATOM     22  C   LIG A   1      -3.936   8.101 129.576  0.00  0.00    +0.011 C 
ATOM     23  C   LIG A   1      -1.897   6.771 129.076  0.00  0.00    +0.011 C 
ATOM     24  C   LIG A   1      -5.952   1.147 130.246  0.00  0.00    -0.003 C 
ATOM     25  C   LIG A   1      -6.401   2.806 128.916  0.00  0.00    +0.149 C 
ATOM     26  C   LIG A   1      -7.573   2.545 127.456  0.00  0.00    +0.144 C 
ATOM     27  C   LIG A   1      -8.559   1.239 127.591  0.00  0.00    +0.041 C 
ATOM     28  C   LIG A   1      -5.803   0.926 131.826  0.00  0.00    +0.014 C 
ATOM     29  C   LIG A   1      -4.581  -0.025 130.079  0.00  0.00    +0.014 C 
ENDROOT
BRANCH  16  30
ATOM     30  C   LIG A   1      -4.386   4.686 133.550  0.00  0.00    +0.311 C 
ATOM     31  O   LIG A   1      -4.924   4.933 134.620  0.00  0.00    -0.250 OA
BRANCH  30  32
ATOM     32  O   LIG A   1      -3.400   3.770 133.518  0.00  0.00    -0.480 OA
ATOM     33  H   LIG A   1      -3.675   3.106 134.184  0.00  0.00    +0.295 HD
ENDBRANCH  30  32
ENDBRANCH  16  30
BRANCH  25  34
ATOM     34  O   LIG A   1      -6.696   4.208 129.111  0.00  0.00    -0.389 OA
ATOM     35  H   LIG A   1      -7.201   4.514 128.326  0.00  0.00    +0.210 HD
ENDBRANCH  25  34
BRANCH  26  36
ATOM     36  O   LIG A   1      -8.230   3.750 127.080  0.00  0.00    -0.389 OA
ATOM     37  H   LIG A   1      -8.392   4.257 127.895  0.00  0.00    +0.210 HD
ENDBRANCH  26  36
TORSDOF 4
ENDMDL
MODEL 9
REMARK VINA RESULT:      -8.0      3.304      7.345
REMARK  Name = NuBBE_1203
REMARK  11 active torsions:
REMARK  status: ('A' for Active; 'I' for Inactive)
REMARK    1  A    between atoms: C_1  and  C_2
REMARK    2  A    between atoms: C_6  and  C_7
REMARK    3  A    between atoms: C_12  and  C_13
REMARK    4  A    between atoms: C_16  and  C_17
REMARK    5  A    between atoms: C_17  and  O_18
REMARK    6  A    between atoms: C_22  and  C_25
REMARK    7  A    between atoms: C_22  and  C_26
REMARK    8  A    between atoms: C_27  and  C_35
REMARK    9  A    between atoms: C_27  and  C_36
REMARK   10  A    between atoms: C_28  and  O_30
REMARK   11  A    between atoms: C_31  and  O_33
REMARK                            x       y       z     vdW  Elec       q    Type
REMARK                         _______ _______ _______ _____ _____    ______ ____
ROOT
ATOM      1  C   LIG A   1      -5.524   5.946 131.221  0.00  0.00    +0.012 C 
ATOM      2  C   LIG A   1      -6.402   4.713 130.982  0.00  0.00    -0.023 C 
ATOM      3  C   LIG A   1      -6.225   4.089 129.443  0.00  0.00    +0.003 C 
ATOM      4  C   LIG A   1      -7.451   4.243 128.618  0.00  0.00    +0.005 C 
ATOM      5  C   LIG A   1      -8.339   3.251 129.251  0.00  0.00    +0.008 C 
ATOM      6  C   LIG A   1      -7.543   2.369 130.344  0.00  0.00    -0.019 C 
ATOM      7  C   LIG A   1      -8.908   2.190 131.241  0.00  0.00    +0.012 C 
ATOM      8  C   LIG A   1      -5.863   3.393 131.105  0.00  0.00    +0.006 C 
ATOM      9  C   LIG A   1      -4.253   2.312 131.438  0.00  0.00    +0.031 C 
ATOM     10  C   LIG A   1      -4.363   0.574 130.719  0.00  0.00    -0.026 C 
ATOM     11  C   LIG A   1      -5.527  -0.145 130.177  0.00  0.00    -0.063 C 
ATOM     12  C   LIG A   1      -7.252   0.477 129.812  0.00  0.00    -0.005 C 
ATOM     13  C   LIG A   1      -7.824   0.139 128.317  0.00  0.00    +0.016 C 
ATOM     14  C   LIG A   1      -8.288  -0.630 130.460  0.00  0.00    +0.012 C 
ATOM     15  C   LIG A   1      -7.958  -2.128 130.178  0.00  0.00    +0.019 C 
ATOM     16  C   LIG A   1      -6.538  -2.548 129.677  0.00  0.00    +0.074 C 
ATOM     17  C   LIG A   1      -5.424  -1.689 130.330  0.00  0.00    +0.033 C 
ATOM     18  C   LIG A   1      -5.328  -2.061 131.847  0.00  0.00    +0.015 C 
ATOM     19  C   LIG A   1      -5.058  -3.559 132.140  0.00  0.00    -0.034 C 
ATOM     20  C   LIG A   1      -5.120  -4.394 130.851  0.00  0.00    +0.007 C 
ATOM     21  C   LIG A   1      -6.352  -4.078 130.008  0.00  0.00    +0.019 C 
ATOM     22  C   LIG A   1      -6.090  -4.074 133.165  0.00  0.00    +0.011 C 
ATOM     23  C   LIG A   1      -3.661  -3.724 132.768  0.00  0.00    +0.011 C 
ATOM     24  C   LIG A   1      -5.605   2.257 129.623  0.00  0.00    -0.003 C 
ATOM     25  C   LIG A   1      -6.196   1.591 131.605  0.00  0.00    +0.149 C 
ATOM     26  C   LIG A   1      -6.708   2.864 132.907  0.00  0.00    +0.144 C 
ATOM     27  C   LIG A   1      -7.157   4.323 132.302  0.00  0.00    +0.041 C 
ATOM     28  C   LIG A   1      -5.864   1.794 128.112  0.00  0.00    +0.014 C 
ATOM     29  C   LIG A   1      -3.923   2.658 129.080  0.00  0.00    +0.014 C 
ENDROOT
BRANCH  16  30
ATOM     30  C   LIG A   1      -6.458  -2.537 128.149  0.00  0.00    +0.311 C 
ATOM     31  O   LIG A   1      -7.349  -2.864 127.378  0.00  0.00    -0.250 OA
BRANCH  30  32
ATOM     32  O   LIG A   1      -5.241  -2.252 127.647  0.00  0.00    -0.480 OA
ATOM     33  H   LIG A   1      -4.917  -3.115 127.317  0.00  0.00    +0.295 HD
ENDBRANCH  30  32
ENDBRANCH  16  30
BRANCH  25  34
ATOM     34  O   LIG A   1      -7.014   0.511 132.107  0.00  0.00    -0.389 OA
ATOM     35  H   LIG A   1      -6.499  -0.320 132.008  0.00  0.00    +0.210 HD
ENDBRANCH  25  34
BRANCH  26  36
ATOM     36  O   LIG A   1      -7.606   2.314 133.864  0.00  0.00    -0.389 OA
ATOM     37  H   LIG A   1      -8.508   2.544 133.578  0.00  0.00    +0.210 HD
ENDBRANCH  26  36
TORSDOF 4
ENDMDL
