MODEL 1
REMARK VINA RESULT:      -3.8      0.000      0.000
REMARK  Name = NuBBE_1975
REMARK  5 active torsions:
REMARK  status: ('A' for Active; 'I' for Inactive)
REMARK    1  A    between atoms: S_1  and  S_2
REMARK    2  A    between atoms: S_1  and  C_6
REMARK    3  A    between atoms: S_2  and  C_3
REMARK    4  A    between atoms: C_3  and  C_4
REMARK    5  A    between atoms: C_6  and  C_7
REMARK                            x       y       z     vdW  Elec       q    Type
REMARK                         _______ _______ _______ _____ _____    ______ ____
ROOT
ATOM      1  S   LIG A   1      -8.412  -3.643 124.870  0.00  0.00    -0.089 S 
ENDROOT
BRANCH   1   2
ATOM      2  S   LIG A   1      -7.104  -2.429 123.834  0.00  0.00    -0.089 S 
BRANCH   2   3
ATOM      3  C   LIG A   1      -5.495  -2.879 124.564  0.00  0.00    +0.107 C 
BRANCH   3   4
ATOM      4  C   LIG A   1      -4.622  -3.480 123.502  0.00  0.00    -0.023 C 
ATOM      5  C   LIG A   1      -4.169  -4.743 123.513  0.00  0.00    +0.005 C 
ENDBRANCH   3   4
ENDBRANCH   2   3
ENDBRANCH   1   2
BRANCH   1   6
ATOM      6  C   LIG A   1      -8.536  -2.774 126.461  0.00  0.00    +0.107 C 
BRANCH   6   7
ATOM      7  C   LIG A   1      -8.817  -3.739 127.575  0.00  0.00    -0.023 C 
ATOM      8  C   LIG A   1      -8.562  -3.478 128.860  0.00  0.00    +0.005 C 
ENDBRANCH   6   7
ENDBRANCH   1   6
TORSDOF 5
ENDMDL
MODEL 2
REMARK VINA RESULT:      -3.8      0.934      4.700
REMARK  Name = NuBBE_1975
REMARK  5 active torsions:
REMARK  status: ('A' for Active; 'I' for Inactive)
REMARK    1  A    between atoms: S_1  and  S_2
REMARK    2  A    between atoms: S_1  and  C_6
REMARK    3  A    between atoms: S_2  and  C_3
REMARK    4  A    between atoms: C_3  and  C_4
REMARK    5  A    between atoms: C_6  and  C_7
REMARK                            x       y       z     vdW  Elec       q    Type
REMARK                         _______ _______ _______ _____ _____    ______ ____
ROOT
ATOM      1  S   LIG A   1      -6.691  -1.488 123.842  0.00  0.00    -0.089 S 
ENDROOT
BRANCH   1   2
ATOM      2  S   LIG A   1      -8.386  -2.630 123.555  0.00  0.00    -0.089 S 
BRANCH   2   3
ATOM      3  C   LIG A   1      -8.291  -3.821 124.933  0.00  0.00    +0.107 C 
BRANCH   3   4
ATOM      4  C   LIG A   1      -8.975  -3.240 126.134  0.00  0.00    -0.023 C 
ATOM      5  C   LIG A   1      -8.849  -3.712 127.385  0.00  0.00    +0.005 C 
ENDBRANCH   3   4
ENDBRANCH   2   3
ENDBRANCH   1   2
BRANCH   1   6
ATOM      6  C   LIG A   1      -5.535  -2.713 124.522  0.00  0.00    +0.107 C 
BRANCH   6   7
ATOM      7  C   LIG A   1      -4.837  -3.455 123.421  0.00  0.00    -0.023 C 
ATOM      8  C   LIG A   1      -4.279  -4.659 123.579  0.00  0.00    +0.005 C 
ENDBRANCH   6   7
ENDBRANCH   1   6
TORSDOF 5
ENDMDL
MODEL 3
REMARK VINA RESULT:      -3.8      1.911      4.717
REMARK  Name = NuBBE_1975
REMARK  5 active torsions:
REMARK  status: ('A' for Active; 'I' for Inactive)
REMARK    1  A    between atoms: S_1  and  S_2
REMARK    2  A    between atoms: S_1  and  C_6
REMARK    3  A    between atoms: S_2  and  C_3
REMARK    4  A    between atoms: C_3  and  C_4
REMARK    5  A    between atoms: C_6  and  C_7
REMARK                            x       y       z     vdW  Elec       q    Type
REMARK                         _______ _______ _______ _____ _____    ______ ____
ROOT
ATOM      1  S   LIG A   1      -6.014  -2.149 125.259  0.00  0.00    -0.089 S 
ENDROOT
BRANCH   1   2
ATOM      2  S   LIG A   1      -7.800  -1.132 125.072  0.00  0.00    -0.089 S 
BRANCH   2   3
ATOM      3  C   LIG A   1      -9.006  -2.343 125.707  0.00  0.00    +0.107 C 
BRANCH   3   4
ATOM      4  C   LIG A   1      -9.290  -3.360 124.642  0.00  0.00    -0.023 C 
ATOM      5  C   LIG A   1      -9.352  -3.090 123.328  0.00  0.00    +0.005 C 
ENDBRANCH   3   4
ENDBRANCH   2   3
ENDBRANCH   1   2
BRANCH   1   6
ATOM      6  C   LIG A   1      -5.648  -2.568 123.530  0.00  0.00    +0.107 C 
BRANCH   6   7
ATOM      7  C   LIG A   1      -4.429  -3.437 123.439  0.00  0.00    -0.023 C 
ATOM      8  C   LIG A   1      -4.450  -4.761 123.617  0.00  0.00    +0.005 C 
ENDBRANCH   6   7
ENDBRANCH   1   6
TORSDOF 5
ENDMDL
MODEL 4
REMARK VINA RESULT:      -3.8     12.877     13.921
REMARK  Name = NuBBE_1975
REMARK  5 active torsions:
REMARK  status: ('A' for Active; 'I' for Inactive)
REMARK    1  A    between atoms: S_1  and  S_2
REMARK    2  A    between atoms: S_1  and  C_6
REMARK    3  A    between atoms: S_2  and  C_3
REMARK    4  A    between atoms: C_3  and  C_4
REMARK    5  A    between atoms: C_6  and  C_7
REMARK                            x       y       z     vdW  Elec       q    Type
REMARK                         _______ _______ _______ _____ _____    ______ ____
ROOT
ATOM      1  S   LIG A   1     -12.679   8.459 130.181  0.00  0.00    -0.089 S 
ENDROOT
BRANCH   1   2
ATOM      2  S   LIG A   1     -11.051   7.476 129.378  0.00  0.00    -0.089 S 
BRANCH   2   3
ATOM      3  C   LIG A   1     -10.722   8.440 127.866  0.00  0.00    +0.107 C 
BRANCH   3   4
ATOM      4  C   LIG A   1     -10.990   7.582 126.666  0.00  0.00    -0.023 C 
ATOM      5  C   LIG A   1     -12.192   7.077 126.344  0.00  0.00    +0.005 C 
ENDBRANCH   3   4
ENDBRANCH   2   3
ENDBRANCH   1   2
BRANCH   1   6
ATOM      6  C   LIG A   1     -13.210   9.490 128.783  0.00  0.00    +0.107 C 
BRANCH   6   7
ATOM      7  C   LIG A   1     -13.736  10.810 129.265  0.00  0.00    -0.023 C 
ATOM      8  C   LIG A   1     -13.507  11.295 130.488  0.00  0.00    +0.005 C 
ENDBRANCH   6   7
ENDBRANCH   1   6
TORSDOF 5
ENDMDL
MODEL 5
REMARK VINA RESULT:      -3.8      1.238      5.044
REMARK  Name = NuBBE_1975
REMARK  5 active torsions:
REMARK  status: ('A' for Active; 'I' for Inactive)
REMARK    1  A    between atoms: S_1  and  S_2
REMARK    2  A    between atoms: S_1  and  C_6
REMARK    3  A    between atoms: S_2  and  C_3
REMARK    4  A    between atoms: C_3  and  C_4
REMARK    5  A    between atoms: C_6  and  C_7
REMARK                            x       y       z     vdW  Elec       q    Type
REMARK                         _______ _______ _______ _____ _____    ______ ____
ROOT
ATOM      1  S   LIG A   1      -6.070  -2.167 125.798  0.00  0.00    -0.089 S 
ENDROOT
BRANCH   1   2
ATOM      2  S   LIG A   1      -8.035  -1.840 126.339  0.00  0.00    -0.089 S 
BRANCH   2   3
ATOM      3  C   LIG A   1      -8.709  -3.533 126.395  0.00  0.00    +0.107 C 
BRANCH   3   4
ATOM      4  C   LIG A   1      -8.960  -3.917 127.823  0.00  0.00    -0.023 C 
ATOM      5  C   LIG A   1      -8.371  -3.338 128.882  0.00  0.00    +0.005 C 
ENDBRANCH   3   4
ENDBRANCH   2   3
ENDBRANCH   1   2
BRANCH   1   6
ATOM      6  C   LIG A   1      -6.264  -3.240 124.345  0.00  0.00    +0.107 C 
BRANCH   6   7
ATOM      7  C   LIG A   1      -4.946  -3.452 123.660  0.00  0.00    -0.023 C 
ATOM      8  C   LIG A   1      -4.330  -4.635 123.593  0.00  0.00    +0.005 C 
ENDBRANCH   6   7
ENDBRANCH   1   6
TORSDOF 5
ENDMDL
MODEL 6
REMARK VINA RESULT:      -3.6     11.799     12.688
REMARK  Name = NuBBE_1975
REMARK  5 active torsions:
REMARK  status: ('A' for Active; 'I' for Inactive)
REMARK    1  A    between atoms: S_1  and  S_2
REMARK    2  A    between atoms: S_1  and  C_6
REMARK    3  A    between atoms: S_2  and  C_3
REMARK    4  A    between atoms: C_3  and  C_4
REMARK    5  A    between atoms: C_6  and  C_7
REMARK                            x       y       z     vdW  Elec       q    Type
REMARK                         _______ _______ _______ _____ _____    ______ ____
ROOT
ATOM      1  S   LIG A   1     -11.889   6.298 129.649  0.00  0.00    -0.089 S 
ENDROOT
BRANCH   1   2
ATOM      2  S   LIG A   1     -11.690   6.557 131.687  0.00  0.00    -0.089 S 
BRANCH   2   3
ATOM      3  C   LIG A   1      -9.953   6.080 131.972  0.00  0.00    +0.107 C 
BRANCH   3   4
ATOM      4  C   LIG A   1      -9.078   6.792 130.985  0.00  0.00    -0.023 C 
ATOM      5  C   LIG A   1      -7.736   6.818 131.036  0.00  0.00    +0.005 C 
ENDBRANCH   3   4
ENDBRANCH   2   3
ENDBRANCH   1   2
BRANCH   1   6
ATOM      6  C   LIG A   1     -12.801   7.797 129.177  0.00  0.00    +0.107 C 
BRANCH   6   7
ATOM      7  C   LIG A   1     -11.909   8.753 128.442  0.00  0.00    -0.023 C 
ATOM      8  C   LIG A   1     -10.658   8.464 128.074  0.00  0.00    +0.005 C 
ENDBRANCH   6   7
ENDBRANCH   1   6
TORSDOF 5
ENDMDL
MODEL 7
REMARK VINA RESULT:      -3.6     12.324     13.494
REMARK  Name = NuBBE_1975
REMARK  5 active torsions:
REMARK  status: ('A' for Active; 'I' for Inactive)
REMARK    1  A    between atoms: S_1  and  S_2
REMARK    2  A    between atoms: S_1  and  C_6
REMARK    3  A    between atoms: S_2  and  C_3
REMARK    4  A    between atoms: C_3  and  C_4
REMARK    5  A    between atoms: C_6  and  C_7
REMARK                            x       y       z     vdW  Elec       q    Type
REMARK                         _______ _______ _______ _____ _____    ______ ____
ROOT
ATOM      1  S   LIG A   1     -10.299   7.416 129.504  0.00  0.00    -0.089 S 
ENDROOT
BRANCH   1   2
ATOM      2  S   LIG A   1     -11.161   8.223 127.811  0.00  0.00    -0.089 S 
BRANCH   2   3
ATOM      3  C   LIG A   1     -12.918   8.335 128.285  0.00  0.00    +0.107 C 
BRANCH   3   4
ATOM      4  C   LIG A   1     -13.199   9.710 128.815  0.00  0.00    -0.023 C 
ATOM      5  C   LIG A   1     -13.189  10.041 130.116  0.00  0.00    +0.005 C 
ENDBRANCH   3   4
ENDBRANCH   2   3
ENDBRANCH   1   2
BRANCH   1   6
ATOM      6  C   LIG A   1     -11.710   6.559 130.260  0.00  0.00    +0.107 C 
BRANCH   6   7
ATOM      7  C   LIG A   1     -11.558   6.497 131.752  0.00  0.00    -0.023 C 
ATOM      8  C   LIG A   1     -10.428   6.136 132.365  0.00  0.00    +0.005 C 
ENDBRANCH   6   7
ENDBRANCH   1   6
TORSDOF 5
ENDMDL
MODEL 8
REMARK VINA RESULT:      -3.5     11.331     12.299
REMARK  Name = NuBBE_1975
REMARK  5 active torsions:
REMARK  status: ('A' for Active; 'I' for Inactive)
REMARK    1  A    between atoms: S_1  and  S_2
REMARK    2  A    between atoms: S_1  and  C_6
REMARK    3  A    between atoms: S_2  and  C_3
REMARK    4  A    between atoms: C_3  and  C_4
REMARK    5  A    between atoms: C_6  and  C_7
REMARK                            x       y       z     vdW  Elec       q    Type
REMARK                         _______ _______ _______ _____ _____    ______ ____
ROOT
ATOM      1  S   LIG A   1     -11.806   6.476 131.318  0.00  0.00    -0.089 S 
ENDROOT
BRANCH   1   2
ATOM      2  S   LIG A   1     -12.507   6.800 129.404  0.00  0.00    -0.089 S 
BRANCH   2   3
ATOM      3  C   LIG A   1     -11.961   8.508 129.073  0.00  0.00    +0.107 C 
BRANCH   3   4
ATOM      4  C   LIG A   1     -10.854   8.484 128.061  0.00  0.00    -0.023 C 
ATOM      5  C   LIG A   1     -10.872   7.761 126.930  0.00  0.00    +0.005 C 
ENDBRANCH   3   4
ENDBRANCH   2   3
ENDBRANCH   1   2
BRANCH   1   6
ATOM      6  C   LIG A   1     -10.499   5.249 131.027  0.00  0.00    +0.107 C 
BRANCH   6   7
ATOM      7  C   LIG A   1      -9.333   5.871 130.317  0.00  0.00    -0.023 C 
ATOM      8  C   LIG A   1      -8.696   6.960 130.757  0.00  0.00    +0.005 C 
ENDBRANCH   6   7
ENDBRANCH   1   6
TORSDOF 5
ENDMDL
MODEL 9
REMARK VINA RESULT:      -3.5     11.976     13.253
REMARK  Name = NuBBE_1975
REMARK  5 active torsions:
REMARK  status: ('A' for Active; 'I' for Inactive)
REMARK    1  A    between atoms: S_1  and  S_2
REMARK    2  A    between atoms: S_1  and  C_6
REMARK    3  A    between atoms: S_2  and  C_3
REMARK    4  A    between atoms: C_3  and  C_4
REMARK    5  A    between atoms: C_6  and  C_7
REMARK                            x       y       z     vdW  Elec       q    Type
REMARK                         _______ _______ _______ _____ _____    ______ ____
ROOT
ATOM      1  S   LIG A   1     -11.109   8.011 127.515  0.00  0.00    -0.089 S 
ENDROOT
BRANCH   1   2
ATOM      2  S   LIG A   1     -10.205   7.311 129.233  0.00  0.00    -0.089 S 
BRANCH   2   3
ATOM      3  C   LIG A   1     -11.513   6.272 129.965  0.00  0.00    +0.107 C 
BRANCH   3   4
ATOM      4  C   LIG A   1     -11.607   6.560 131.434  0.00  0.00    -0.023 C 
ATOM      5  C   LIG A   1     -10.678   6.212 132.339  0.00  0.00    +0.005 C 
ENDBRANCH   3   4
ENDBRANCH   2   3
ENDBRANCH   1   2
BRANCH   1   6
ATOM      6  C   LIG A   1     -12.868   7.911 127.960  0.00  0.00    +0.107 C 
BRANCH   6   7
ATOM      7  C   LIG A   1     -13.359   9.227 128.487  0.00  0.00    -0.023 C 
ATOM      8  C   LIG A   1     -12.989   9.735 129.666  0.00  0.00    +0.005 C 
ENDBRANCH   6   7
ENDBRANCH   1   6
TORSDOF 5
ENDMDL
