MODEL 1
REMARK VINA RESULT:      -6.5      0.000      0.000
REMARK  Name = NuBBE_1919
REMARK  4 active torsions:
REMARK  status: ('A' for Active; 'I' for Inactive)
REMARK    1  A    between atoms: C_1  and  C_2
REMARK    2  A    between atoms: C_8  and  C_10
REMARK    3  A    between atoms: C_13  and  C_16
REMARK    4  A    between atoms: C_16  and  C_18
REMARK                            x       y       z     vdW  Elec       q    Type
REMARK                         _______ _______ _______ _____ _____    ______ ____
ROOT
ATOM      1  C   LIG A   1      -5.223  -4.030 124.010  0.00  0.00    +0.012 C 
ATOM      2  C   LIG A   1      -5.319  -2.511 123.892  0.00  0.00    +0.012 C 
ATOM      3  C   LIG A   1      -6.162  -1.791 124.933  0.00  0.00    -0.067 C 
ATOM      4  C   LIG A   1      -6.922  -0.832 124.363  0.00  0.00    -0.067 C 
ATOM      5  C   LIG A   1      -6.700  -0.806 122.869  0.00  0.00    +0.031 C 
ATOM      6  C   LIG A   1      -6.002  -2.122 122.583  0.00  0.00    +0.012 C 
ATOM      7  C   LIG A   1      -7.758   0.254 125.008  0.00  0.00    +0.012 C 
ATOM      8  C   LIG A   1      -8.798   0.857 124.045  0.00  0.00    +0.012 C 
ATOM      9  C   LIG A   1      -8.502  -0.145 126.293  0.00  0.00    +0.008 C 
ATOM     10  C   LIG A   1      -7.599  -0.498 127.468  0.00  0.00    +0.009 C 
ATOM     11  C   LIG A   1      -7.022  -1.919 127.442  0.00  0.00    +0.018 C 
ATOM     12  C   LIG A   1      -5.911  -2.090 126.385  0.00  0.00    +0.039 C 
ENDROOT
BRANCH  11  13
ATOM     13  C   LIG A   1      -8.103  -3.005 127.492  0.00  0.00    -0.076 C 
ATOM     14  C   LIG A   1      -8.642  -3.608 126.417  0.00  0.00    +0.007 C 
ATOM     15  C   LIG A   1      -8.545  -3.418 128.875  0.00  0.00    +0.038 C 
ENDBRANCH  11  13
TORSDOF 1
ENDMDL
MODEL 2
REMARK VINA RESULT:      -6.3      1.413      3.590
REMARK  Name = NuBBE_1919
REMARK  4 active torsions:
REMARK  status: ('A' for Active; 'I' for Inactive)
REMARK    1  A    between atoms: C_1  and  C_2
REMARK    2  A    between atoms: C_8  and  C_10
REMARK    3  A    between atoms: C_13  and  C_16
REMARK    4  A    between atoms: C_16  and  C_18
REMARK                            x       y       z     vdW  Elec       q    Type
REMARK                         _______ _______ _______ _____ _____    ______ ____
ROOT
ATOM      1  C   LIG A   1      -8.379   1.732 126.599  0.00  0.00    +0.012 C 
ATOM      2  C   LIG A   1      -8.395   1.271 125.145  0.00  0.00    +0.012 C 
ATOM      3  C   LIG A   1      -8.459  -0.229 124.898  0.00  0.00    -0.067 C 
ATOM      4  C   LIG A   1      -7.618  -0.595 123.908  0.00  0.00    -0.067 C 
ATOM      5  C   LIG A   1      -6.871   0.608 123.384  0.00  0.00    +0.031 C 
ATOM      6  C   LIG A   1      -7.096   1.667 124.447  0.00  0.00    +0.012 C 
ATOM      7  C   LIG A   1      -7.484  -1.923 123.191  0.00  0.00    +0.012 C 
ATOM      8  C   LIG A   1      -6.143  -2.064 122.445  0.00  0.00    +0.012 C 
ATOM      9  C   LIG A   1      -7.656  -3.177 124.063  0.00  0.00    +0.008 C 
ATOM     10  C   LIG A   1      -9.047  -3.353 124.658  0.00  0.00    +0.009 C 
ATOM     11  C   LIG A   1      -9.328  -2.523 125.917  0.00  0.00    +0.018 C 
ATOM     12  C   LIG A   1      -9.521  -1.023 125.608  0.00  0.00    +0.039 C 
ENDROOT
BRANCH  11  13
ATOM     13  C   LIG A   1      -8.399  -2.876 127.085  0.00  0.00    -0.076 C 
ATOM     14  C   LIG A   1      -7.256  -2.233 127.384  0.00  0.00    +0.007 C 
ATOM     15  C   LIG A   1      -8.860  -4.019 127.957  0.00  0.00    +0.038 C 
ENDBRANCH  11  13
TORSDOF 1
ENDMDL
MODEL 3
REMARK VINA RESULT:      -6.2      1.488      4.535
REMARK  Name = NuBBE_1919
REMARK  4 active torsions:
REMARK  status: ('A' for Active; 'I' for Inactive)
REMARK    1  A    between atoms: C_1  and  C_2
REMARK    2  A    between atoms: C_8  and  C_10
REMARK    3  A    between atoms: C_13  and  C_16
REMARK    4  A    between atoms: C_16  and  C_18
REMARK                            x       y       z     vdW  Elec       q    Type
REMARK                         _______ _______ _______ _____ _____    ______ ____
ROOT
ATOM      1  C   LIG A   1      -7.120  -1.230 128.543  0.00  0.00    +0.012 C 
ATOM      2  C   LIG A   1      -7.186  -2.397 127.561  0.00  0.00    +0.012 C 
ATOM      3  C   LIG A   1      -7.155  -2.053 126.079  0.00  0.00    -0.067 C 
ATOM      4  C   LIG A   1      -8.051  -2.790 125.390  0.00  0.00    -0.067 C 
ATOM      5  C   LIG A   1      -8.810  -3.702 126.325  0.00  0.00    +0.031 C 
ATOM      6  C   LIG A   1      -8.515  -3.135 127.702  0.00  0.00    +0.012 C 
ATOM      7  C   LIG A   1      -8.240  -2.936 123.894  0.00  0.00    +0.012 C 
ATOM      8  C   LIG A   1      -9.620  -3.512 123.522  0.00  0.00    +0.012 C 
ATOM      9  C   LIG A   1      -8.039  -1.659 123.063  0.00  0.00    +0.008 C 
ATOM     10  C   LIG A   1      -6.621  -1.103 123.083  0.00  0.00    +0.009 C 
ATOM     11  C   LIG A   1      -6.264  -0.272 124.321  0.00  0.00    +0.018 C 
ATOM     12  C   LIG A   1      -6.068  -1.139 125.583  0.00  0.00    +0.039 C 
ENDROOT
BRANCH  11  13
ATOM     13  C   LIG A   1      -7.134   0.982 124.471  0.00  0.00    -0.076 C 
ATOM     14  C   LIG A   1      -7.896   1.269 125.542  0.00  0.00    +0.007 C 
ATOM     15  C   LIG A   1      -7.076   1.953 123.318  0.00  0.00    +0.038 C 
ENDBRANCH  11  13
TORSDOF 1
ENDMDL
MODEL 4
REMARK VINA RESULT:      -6.2      1.567      4.467
REMARK  Name = NuBBE_1919
REMARK  4 active torsions:
REMARK  status: ('A' for Active; 'I' for Inactive)
REMARK    1  A    between atoms: C_1  and  C_2
REMARK    2  A    between atoms: C_8  and  C_10
REMARK    3  A    between atoms: C_13  and  C_16
REMARK    4  A    between atoms: C_16  and  C_18
REMARK                            x       y       z     vdW  Elec       q    Type
REMARK                         _______ _______ _______ _____ _____    ______ ____
ROOT
ATOM      1  C   LIG A   1      -5.245   0.688 125.938  0.00  0.00    +0.012 C 
ATOM      2  C   LIG A   1      -5.410  -0.801 126.233  0.00  0.00    +0.012 C 
ATOM      3  C   LIG A   1      -6.568  -1.515 125.552  0.00  0.00    -0.067 C 
ATOM      4  C   LIG A   1      -7.196  -2.347 126.409  0.00  0.00    -0.067 C 
ATOM      5  C   LIG A   1      -6.553  -2.279 127.774  0.00  0.00    +0.031 C 
ATOM      6  C   LIG A   1      -5.710  -1.018 127.714  0.00  0.00    +0.012 C 
ATOM      7  C   LIG A   1      -8.258  -3.394 126.140  0.00  0.00    +0.012 C 
ATOM      8  C   LIG A   1      -9.014  -3.816 127.414  0.00  0.00    +0.012 C 
ATOM      9  C   LIG A   1      -9.312  -3.025 125.084  0.00  0.00    +0.008 C 
ATOM     10  C   LIG A   1      -8.766  -2.854 123.672  0.00  0.00    +0.009 C 
ATOM     11  C   LIG A   1      -8.107  -1.498 123.388  0.00  0.00    +0.018 C 
ATOM     12  C   LIG A   1      -6.728  -1.355 124.066  0.00  0.00    +0.039 C 
ENDROOT
BRANCH  11  13
ATOM     13  C   LIG A   1      -9.077  -0.319 123.535  0.00  0.00    -0.076 C 
ATOM     14  C   LIG A   1      -9.085   0.549 124.561  0.00  0.00    +0.007 C 
ATOM     15  C   LIG A   1     -10.059  -0.142 122.402  0.00  0.00    +0.038 C 
ENDBRANCH  11  13
TORSDOF 1
ENDMDL
MODEL 5
REMARK VINA RESULT:      -6.0      1.831      4.107
REMARK  Name = NuBBE_1919
REMARK  4 active torsions:
REMARK  status: ('A' for Active; 'I' for Inactive)
REMARK    1  A    between atoms: C_1  and  C_2
REMARK    2  A    between atoms: C_8  and  C_10
REMARK    3  A    between atoms: C_13  and  C_16
REMARK    4  A    between atoms: C_16  and  C_18
REMARK                            x       y       z     vdW  Elec       q    Type
REMARK                         _______ _______ _______ _____ _____    ______ ____
ROOT
ATOM      1  C   LIG A   1      -9.729   0.891 122.854  0.00  0.00    +0.012 C 
ATOM      2  C   LIG A   1      -8.343   1.246 123.385  0.00  0.00    +0.012 C 
ATOM      3  C   LIG A   1      -7.452   0.090 123.814  0.00  0.00    -0.067 C 
ATOM      4  C   LIG A   1      -6.816   0.370 124.970  0.00  0.00    -0.067 C 
ATOM      5  C   LIG A   1      -7.217   1.737 125.472  0.00  0.00    +0.031 C 
ATOM      6  C   LIG A   1      -8.459   2.069 124.665  0.00  0.00    +0.012 C 
ATOM      7  C   LIG A   1      -5.699  -0.378 125.669  0.00  0.00    +0.012 C 
ATOM      8  C   LIG A   1      -5.554   0.016 127.151  0.00  0.00    +0.012 C 
ATOM      9  C   LIG A   1      -5.779  -1.912 125.609  0.00  0.00    +0.008 C 
ATOM     10  C   LIG A   1      -5.642  -2.504 124.212  0.00  0.00    +0.009 C 
ATOM     11  C   LIG A   1      -6.919  -2.472 123.363  0.00  0.00    +0.018 C 
ATOM     12  C   LIG A   1      -7.261  -1.055 122.858  0.00  0.00    +0.039 C 
ENDROOT
BRANCH  11  13
ATOM     13  C   LIG A   1      -8.065  -3.285 123.977  0.00  0.00    -0.076 C 
ATOM     14  C   LIG A   1      -7.931  -4.181 124.971  0.00  0.00    +0.007 C 
ATOM     15  C   LIG A   1      -9.436  -3.002 123.411  0.00  0.00    +0.038 C 
ENDBRANCH  11  13
TORSDOF 1
ENDMDL
MODEL 6
REMARK VINA RESULT:      -5.8      2.175      3.778
REMARK  Name = NuBBE_1919
REMARK  4 active torsions:
REMARK  status: ('A' for Active; 'I' for Inactive)
REMARK    1  A    between atoms: C_1  and  C_2
REMARK    2  A    between atoms: C_8  and  C_10
REMARK    3  A    between atoms: C_13  and  C_16
REMARK    4  A    between atoms: C_16  and  C_18
REMARK                            x       y       z     vdW  Elec       q    Type
REMARK                         _______ _______ _______ _____ _____    ______ ____
ROOT
ATOM      1  C   LIG A   1      -5.684   1.039 127.731  0.00  0.00    +0.012 C 
ATOM      2  C   LIG A   1      -7.034   0.614 127.159  0.00  0.00    +0.012 C 
ATOM      3  C   LIG A   1      -7.562  -0.750 127.579  0.00  0.00    -0.067 C 
ATOM      4  C   LIG A   1      -8.090  -1.410 126.528  0.00  0.00    -0.067 C 
ATOM      5  C   LIG A   1      -7.963  -0.583 125.270  0.00  0.00    +0.031 C 
ATOM      6  C   LIG A   1      -6.951   0.485 125.640  0.00  0.00    +0.012 C 
ATOM      7  C   LIG A   1      -8.897  -2.692 126.494  0.00  0.00    +0.012 C 
ATOM      8  C   LIG A   1      -8.938  -3.334 125.094  0.00  0.00    +0.012 C 
ATOM      9  C   LIG A   1      -8.464  -3.785 127.485  0.00  0.00    +0.008 C 
ATOM     10  C   LIG A   1      -8.637  -3.418 128.954  0.00  0.00    +0.009 C 
ATOM     11  C   LIG A   1      -7.526  -2.539 129.541  0.00  0.00    +0.018 C 
ATOM     12  C   LIG A   1      -7.598  -1.079 129.046  0.00  0.00    +0.039 C 
ENDROOT
BRANCH  11  13
ATOM     13  C   LIG A   1      -6.149  -3.214 129.509  0.00  0.00    -0.076 C 
ATOM     14  C   LIG A   1      -5.089  -2.772 128.810  0.00  0.00    +0.007 C 
ATOM     15  C   LIG A   1      -6.012  -4.450 130.365  0.00  0.00    +0.038 C 
ENDBRANCH  11  13
TORSDOF 1
ENDMDL
MODEL 7
REMARK VINA RESULT:      -5.8      1.947      3.519
REMARK  Name = NuBBE_1919
REMARK  4 active torsions:
REMARK  status: ('A' for Active; 'I' for Inactive)
REMARK    1  A    between atoms: C_1  and  C_2
REMARK    2  A    between atoms: C_8  and  C_10
REMARK    3  A    between atoms: C_13  and  C_16
REMARK    4  A    between atoms: C_16  and  C_18
REMARK                            x       y       z     vdW  Elec       q    Type
REMARK                         _______ _______ _______ _____ _____    ______ ____
ROOT
ATOM      1  C   LIG A   1      -4.961  -2.571 124.260  0.00  0.00    +0.012 C 
ATOM      2  C   LIG A   1      -6.434  -2.445 124.639  0.00  0.00    +0.012 C 
ATOM      3  C   LIG A   1      -6.750  -2.198 126.106  0.00  0.00    -0.067 C 
ATOM      4  C   LIG A   1      -7.793  -2.952 126.512  0.00  0.00    -0.067 C 
ATOM      5  C   LIG A   1      -8.291  -3.813 125.376  0.00  0.00    +0.031 C 
ATOM      6  C   LIG A   1      -7.168  -3.754 124.356  0.00  0.00    +0.012 C 
ATOM      7  C   LIG A   1      -8.578  -2.904 127.807  0.00  0.00    +0.012 C 
ATOM      8  C   LIG A   1      -9.389  -4.189 128.059  0.00  0.00    +0.012 C 
ATOM      9  C   LIG A   1      -7.761  -2.621 129.077  0.00  0.00    +0.008 C 
ATOM     10  C   LIG A   1      -7.114  -1.243 129.126  0.00  0.00    +0.009 C 
ATOM     11  C   LIG A   1      -5.806  -1.110 128.337  0.00  0.00    +0.018 C 
ATOM     12  C   LIG A   1      -6.032  -1.080 126.811  0.00  0.00    +0.039 C 
ENDROOT
BRANCH  11  13
ATOM     13  C   LIG A   1      -4.698  -2.036 128.855  0.00  0.00    -0.076 C 
ATOM     14  C   LIG A   1      -4.309  -3.179 128.263  0.00  0.00    +0.007 C 
ATOM     15  C   LIG A   1      -4.000  -1.573 130.111  0.00  0.00    +0.038 C 
ENDBRANCH  11  13
TORSDOF 1
ENDMDL
MODEL 8
REMARK VINA RESULT:      -5.6      1.646      4.633
REMARK  Name = NuBBE_1919
REMARK  4 active torsions:
REMARK  status: ('A' for Active; 'I' for Inactive)
REMARK    1  A    between atoms: C_1  and  C_2
REMARK    2  A    between atoms: C_8  and  C_10
REMARK    3  A    between atoms: C_13  and  C_16
REMARK    4  A    between atoms: C_16  and  C_18
REMARK                            x       y       z     vdW  Elec       q    Type
REMARK                         _______ _______ _______ _____ _____    ______ ____
ROOT
ATOM      1  C   LIG A   1      -8.652   2.260 124.712  0.00  0.00    +0.012 C 
ATOM      2  C   LIG A   1      -7.783   1.523 125.726  0.00  0.00    +0.012 C 
ATOM      3  C   LIG A   1      -7.595   0.028 125.515  0.00  0.00    -0.067 C 
ATOM      4  C   LIG A   1      -7.691  -0.643 126.682  0.00  0.00    -0.067 C 
ATOM      5  C   LIG A   1      -7.977   0.314 127.816  0.00  0.00    +0.031 C 
ATOM      6  C   LIG A   1      -8.416   1.586 127.114  0.00  0.00    +0.012 C 
ATOM      7  C   LIG A   1      -7.385  -2.093 126.995  0.00  0.00    +0.012 C 
ATOM      8  C   LIG A   1      -8.027  -2.567 128.313  0.00  0.00    +0.012 C 
ATOM      9  C   LIG A   1      -7.770  -3.110 125.908  0.00  0.00    +0.008 C 
ATOM     10  C   LIG A   1      -6.999  -2.968 124.601  0.00  0.00    +0.009 C 
ATOM     11  C   LIG A   1      -7.511  -1.870 123.660  0.00  0.00    +0.018 C 
ATOM     12  C   LIG A   1      -7.164  -0.451 124.157  0.00  0.00    +0.039 C 
ENDROOT
BRANCH  11  13
ATOM     13  C   LIG A   1      -8.953  -2.107 123.193  0.00  0.00    -0.076 C 
ATOM     14  C   LIG A   1      -9.600  -3.284 123.253  0.00  0.00    +0.007 C 
ATOM     15  C   LIG A   1      -9.671  -0.890 122.662  0.00  0.00    +0.038 C 
ENDBRANCH  11  13
TORSDOF 1
ENDMDL
MODEL 9
REMARK VINA RESULT:      -5.5     17.165     19.436
REMARK  Name = NuBBE_1919
REMARK  4 active torsions:
REMARK  status: ('A' for Active; 'I' for Inactive)
REMARK    1  A    between atoms: C_1  and  C_2
REMARK    2  A    between atoms: C_8  and  C_10
REMARK    3  A    between atoms: C_13  and  C_16
REMARK    4  A    between atoms: C_16  and  C_18
REMARK                            x       y       z     vdW  Elec       q    Type
REMARK                         _______ _______ _______ _____ _____    ______ ____
ROOT
ATOM      1  C   LIG A   1      -4.667  10.769 138.524  0.00  0.00    +0.012 C 
ATOM      2  C   LIG A   1      -5.263  11.725 139.553  0.00  0.00    +0.012 C 
ATOM      3  C   LIG A   1      -6.747  11.575 139.854  0.00  0.00    -0.067 C 
ATOM      4  C   LIG A   1      -7.350  12.779 139.936  0.00  0.00    -0.067 C 
ATOM      5  C   LIG A   1      -6.353  13.884 139.678  0.00  0.00    +0.031 C 
ATOM      6  C   LIG A   1      -5.169  13.166 139.057  0.00  0.00    +0.012 C 
ATOM      7  C   LIG A   1      -8.747  13.134 140.402  0.00  0.00    +0.012 C 
ATOM      8  C   LIG A   1      -9.191  14.535 139.940  0.00  0.00    +0.012 C 
ATOM      9  C   LIG A   1      -9.858  12.149 140.006  0.00  0.00    +0.008 C 
ATOM     10  C   LIG A   1      -9.732  10.763 140.626  0.00  0.00    +0.009 C 
ATOM     11  C   LIG A   1      -8.742   9.824 139.925  0.00  0.00    +0.018 C 
ATOM     12  C   LIG A   1      -7.271  10.206 140.190  0.00  0.00    +0.039 C 
ENDROOT
BRANCH  11  13
ATOM     13  C   LIG A   1      -9.129   9.523 138.472  0.00  0.00    -0.076 C 
ATOM     14  C   LIG A   1     -10.378   9.273 138.042  0.00  0.00    +0.007 C 
ATOM     15  C   LIG A   1      -7.992   9.551 137.479  0.00  0.00    +0.038 C 
ENDBRANCH  11  13
TORSDOF 1
ENDMDL
