MODEL 1
REMARK VINA RESULT:      -7.9      0.000      0.000
REMARK  Name = NuBBE_1991
REMARK  11 active torsions:
REMARK  status: ('A' for Active; 'I' for Inactive)
REMARK    1  A    between atoms: C_1  and  C_2
REMARK    2  A    between atoms: C_11  and  C_12
REMARK    3  A    between atoms: C_17  and  O_21
REMARK    4  A    between atoms: C_24  and  C_26
REMARK    5  A    between atoms: C_26  and  C_28
REMARK    6  A    between atoms: C_26  and  C_34
REMARK    7  A    between atoms: C_28  and  C_29
REMARK    8  A    between atoms: C_29  and  C_30
REMARK    9  A    between atoms: C_30  and  C_31
REMARK   10  A    between atoms: C_31  and  C_32
REMARK   11  A    between atoms: C_31  and  C_33
REMARK                            x       y       z     vdW  Elec       q    Type
REMARK                         _______ _______ _______ _____ _____    ______ ____
ROOT
ATOM      1  C   LIG A   1      -8.080   0.587 128.158  0.00  0.00    +0.012 C 
ATOM      2  C   LIG A   1      -7.378  -0.053 126.918  0.00  0.00    -0.026 C 
ATOM      3  C   LIG A   1      -7.806  -1.512 126.641  0.00  0.00    -0.001 C 
ATOM      4  C   LIG A   1      -7.312  -2.587 127.616  0.00  0.00    +0.000 C 
ATOM      5  C   LIG A   1      -5.771  -2.477 127.830  0.00  0.00    +0.003 C 
ATOM      6  C   LIG A   1      -5.125  -1.284 127.070  0.00  0.00    +0.005 C 
ATOM      7  C   LIG A   1      -5.871   0.041 127.222  0.00  0.00    +0.007 C 
ATOM      8  C   LIG A   1      -5.199  -2.751 129.277  0.00  0.00    -0.008 C 
ATOM      9  C   LIG A   1      -3.874  -3.543 129.061  0.00  0.00    +0.016 C 
ATOM     10  C   LIG A   1      -6.168  -3.543 130.153  0.00  0.00    -0.065 C 
ATOM     11  C   LIG A   1      -7.489  -3.586 129.932  0.00  0.00    -0.027 C 
ATOM     12  C   LIG A   1      -8.170  -2.812 128.853  0.00  0.00    +0.031 C 
ATOM     13  C   LIG A   1      -5.617  -4.011 131.479  0.00  0.00    +0.062 C 
ATOM     14  C   LIG A   1      -5.226  -2.774 132.304  0.00  0.00    +0.119 C 
ATOM     15  C   LIG A   1      -4.366  -1.771 131.523  0.00  0.00    +0.032 C 
ATOM     16  C   LIG A   1      -4.893  -1.474 130.105  0.00  0.00    +0.013 C 
ATOM     17  C   LIG A   1      -9.287  -1.400 126.306  0.00  0.00    +0.004 C 
ATOM     18  C   LIG A   1      -9.395  -0.048 125.569  0.00  0.00    +0.004 C 
ATOM     19  C   LIG A   1      -7.978   0.631 125.619  0.00  0.00    -0.002 C 
ENDROOT
BRANCH  14  20
ATOM     20  O   LIG A   1      -4.533  -3.172 133.485  0.00  0.00    -0.392 OA
ATOM     21  H   LIG A   1      -3.637  -3.446 133.226  0.00  0.00    +0.210 HD
ENDBRANCH  14  20
BRANCH  19  22
ATOM     22  C   LIG A   1      -7.243   0.460 124.231  0.00  0.00    -0.010 C 
ATOM     23  C   LIG A   1      -6.824   1.771 123.558  0.00  0.00    +0.008 C 
BRANCH  22  24
ATOM     24  C   LIG A   1      -8.034  -0.381 123.179  0.00  0.00    +0.003 C 
BRANCH  24  25
ATOM     25  C   LIG A   1      -7.483  -1.784 122.881  0.00  0.00    +0.000 C 
BRANCH  25  26
ATOM     26  C   LIG A   1      -6.019  -1.924 123.343  0.00  0.00    +0.003 C 
BRANCH  26  27
ATOM     27  C   LIG A   1      -5.740  -3.182 124.195  0.00  0.00    -0.017 C 
ATOM     28  C   LIG A   1      -7.010  -4.031 124.343  0.00  0.00    +0.007 C 
ATOM     29  C   LIG A   1      -4.628  -4.045 123.599  0.00  0.00    +0.007 C 
ENDBRANCH  26  27
ENDBRANCH  25  26
ENDBRANCH  24  25
ENDBRANCH  22  24
ENDBRANCH  19  22
TORSDOF 6
ENDMDL
MODEL 2
REMARK VINA RESULT:      -7.4      3.176      7.350
REMARK  Name = NuBBE_1991
REMARK  11 active torsions:
REMARK  status: ('A' for Active; 'I' for Inactive)
REMARK    1  A    between atoms: C_1  and  C_2
REMARK    2  A    between atoms: C_11  and  C_12
REMARK    3  A    between atoms: C_17  and  O_21
REMARK    4  A    between atoms: C_24  and  C_26
REMARK    5  A    between atoms: C_26  and  C_28
REMARK    6  A    between atoms: C_26  and  C_34
REMARK    7  A    between atoms: C_28  and  C_29
REMARK    8  A    between atoms: C_29  and  C_30
REMARK    9  A    between atoms: C_30  and  C_31
REMARK   10  A    between atoms: C_31  and  C_32
REMARK   11  A    between atoms: C_31  and  C_33
REMARK                            x       y       z     vdW  Elec       q    Type
REMARK                         _______ _______ _______ _____ _____    ______ ____
ROOT
ATOM      1  C   LIG A   1      -6.502  -1.770 125.133  0.00  0.00    +0.012 C 
ATOM      2  C   LIG A   1      -7.271  -1.216 126.375  0.00  0.00    -0.026 C 
ATOM      3  C   LIG A   1      -8.788  -1.032 126.140  0.00  0.00    -0.001 C 
ATOM      4  C   LIG A   1      -9.222   0.114 125.219  0.00  0.00    +0.000 C 
ATOM      5  C   LIG A   1      -8.546   1.454 125.642  0.00  0.00    +0.003 C 
ATOM      6  C   LIG A   1      -7.558   1.299 126.832  0.00  0.00    +0.005 C 
ATOM      7  C   LIG A   1      -6.587   0.125 126.700  0.00  0.00    +0.007 C 
ATOM      8  C   LIG A   1      -8.086   2.447 124.502  0.00  0.00    -0.008 C 
ATOM      9  C   LIG A   1      -8.422   3.875 125.031  0.00  0.00    +0.016 C 
ATOM     10  C   LIG A   1      -8.788   2.182 123.172  0.00  0.00    -0.065 C 
ATOM     11  C   LIG A   1      -9.336   1.002 122.855  0.00  0.00    -0.027 C 
ATOM     12  C   LIG A   1      -9.264  -0.204 123.730  0.00  0.00    +0.031 C 
ATOM     13  C   LIG A   1      -8.547   3.209 122.091  0.00  0.00    +0.062 C 
ATOM     14  C   LIG A   1      -7.044   3.233 121.771  0.00  0.00    +0.119 C 
ATOM     15  C   LIG A   1      -6.160   3.339 123.022  0.00  0.00    +0.032 C 
ATOM     16  C   LIG A   1      -6.574   2.381 124.156  0.00  0.00    +0.013 C 
ATOM     17  C   LIG A   1      -9.293  -2.448 125.897  0.00  0.00    +0.004 C 
ATOM     18  C   LIG A   1      -8.405  -3.316 126.813  0.00  0.00    +0.004 C 
ATOM     19  C   LIG A   1      -7.328  -2.372 127.460  0.00  0.00    -0.002 C 
ENDROOT
BRANCH  14  20
ATOM     20  O   LIG A   1      -6.748   4.315 120.890  0.00  0.00    -0.392 OA
ATOM     21  H   LIG A   1      -5.852   4.173 120.538  0.00  0.00    +0.210 HD
ENDBRANCH  14  20
BRANCH  19  22
ATOM     22  C   LIG A   1      -7.729  -2.030 128.950  0.00  0.00    -0.010 C 
ATOM     23  C   LIG A   1      -6.811  -1.021 129.648  0.00  0.00    +0.008 C 
BRANCH  22  24
ATOM     24  C   LIG A   1      -7.865  -3.273 129.885  0.00  0.00    +0.003 C 
BRANCH  24  25
ATOM     25  C   LIG A   1      -6.750  -3.463 130.926  0.00  0.00    +0.000 C 
BRANCH  25  26
ATOM     26  C   LIG A   1      -5.709  -4.496 130.453  0.00  0.00    +0.003 C 
BRANCH  26  27
ATOM     27  C   LIG A   1      -4.270  -3.945 130.347  0.00  0.00    -0.017 C 
ATOM     28  C   LIG A   1      -4.010  -3.370 128.948  0.00  0.00    +0.007 C 
ATOM     29  C   LIG A   1      -3.989  -2.865 131.392  0.00  0.00    +0.007 C 
ENDBRANCH  26  27
ENDBRANCH  25  26
ENDBRANCH  24  25
ENDBRANCH  22  24
ENDBRANCH  19  22
TORSDOF 6
ENDMDL
MODEL 3
REMARK VINA RESULT:      -7.2      3.166      5.623
REMARK  Name = NuBBE_1991
REMARK  11 active torsions:
REMARK  status: ('A' for Active; 'I' for Inactive)
REMARK    1  A    between atoms: C_1  and  C_2
REMARK    2  A    between atoms: C_11  and  C_12
REMARK    3  A    between atoms: C_17  and  O_21
REMARK    4  A    between atoms: C_24  and  C_26
REMARK    5  A    between atoms: C_26  and  C_28
REMARK    6  A    between atoms: C_26  and  C_34
REMARK    7  A    between atoms: C_28  and  C_29
REMARK    8  A    between atoms: C_29  and  C_30
REMARK    9  A    between atoms: C_30  and  C_31
REMARK   10  A    between atoms: C_31  and  C_32
REMARK   11  A    between atoms: C_31  and  C_33
REMARK                            x       y       z     vdW  Elec       q    Type
REMARK                         _______ _______ _______ _____ _____    ______ ____
ROOT
ATOM      1  C   LIG A   1      -7.000   1.081 124.147  0.00  0.00    +0.012 C 
ATOM      2  C   LIG A   1      -7.035  -0.051 125.222  0.00  0.00    -0.026 C 
ATOM      3  C   LIG A   1      -7.914   0.278 126.450  0.00  0.00    -0.001 C 
ATOM      4  C   LIG A   1      -7.392   1.341 127.424  0.00  0.00    +0.000 C 
ATOM      5  C   LIG A   1      -5.921   1.035 127.844  0.00  0.00    +0.003 C 
ATOM      6  C   LIG A   1      -5.323  -0.213 127.135  0.00  0.00    +0.005 C 
ATOM      7  C   LIG A   1      -5.563  -0.260 125.626  0.00  0.00    +0.007 C 
ATOM      8  C   LIG A   1      -4.931   2.252 128.025  0.00  0.00    -0.008 C 
ATOM      9  C   LIG A   1      -4.061   1.902 129.271  0.00  0.00    +0.016 C 
ATOM     10  C   LIG A   1      -5.660   3.579 128.229  0.00  0.00    -0.065 C 
ATOM     11  C   LIG A   1      -6.921   3.791 127.830  0.00  0.00    -0.027 C 
ATOM     12  C   LIG A   1      -7.730   2.785 127.082  0.00  0.00    +0.031 C 
ATOM     13  C   LIG A   1      -4.787   4.753 128.603  0.00  0.00    +0.062 C 
ATOM     14  C   LIG A   1      -3.788   4.998 127.461  0.00  0.00    +0.119 C 
ATOM     15  C   LIG A   1      -3.061   3.724 127.007  0.00  0.00    +0.032 C 
ATOM     16  C   LIG A   1      -3.995   2.513 126.814  0.00  0.00    +0.013 C 
ATOM     17  C   LIG A   1      -9.319   0.389 125.873  0.00  0.00    +0.004 C 
ATOM     18  C   LIG A   1      -9.334  -0.661 124.741  0.00  0.00    +0.004 C 
ATOM     19  C   LIG A   1      -7.882  -1.253 124.627  0.00  0.00    -0.002 C 
ENDROOT
BRANCH  14  20
ATOM     20  O   LIG A   1      -2.828   5.977 127.850  0.00  0.00    -0.392 OA
ATOM     21  H   LIG A   1      -2.682   5.886 128.807  0.00  0.00    +0.210 HD
ENDBRANCH  14  20
BRANCH  19  22
ATOM     22  C   LIG A   1      -7.818  -2.674 125.315  0.00  0.00    -0.010 C 
ATOM     23  C   LIG A   1      -7.368  -3.815 124.396  0.00  0.00    +0.008 C 
BRANCH  22  24
ATOM     24  C   LIG A   1      -9.146  -3.119 126.007  0.00  0.00    +0.003 C 
BRANCH  24  25
ATOM     25  C   LIG A   1      -9.028  -3.576 127.469  0.00  0.00    +0.000 C 
BRANCH  25  26
ATOM     26  C   LIG A   1      -7.777  -2.982 128.145  0.00  0.00    +0.003 C 
BRANCH  26  27
ATOM     27  C   LIG A   1      -7.922  -2.759 129.667  0.00  0.00    -0.017 C 
ATOM     28  C   LIG A   1      -6.833  -3.521 130.434  0.00  0.00    +0.007 C 
ATOM     29  C   LIG A   1      -7.855  -1.278 130.041  0.00  0.00    +0.007 C 
ENDBRANCH  26  27
ENDBRANCH  25  26
ENDBRANCH  24  25
ENDBRANCH  22  24
ENDBRANCH  19  22
TORSDOF 6
ENDMDL
MODEL 4
REMARK VINA RESULT:      -7.2      1.791      3.174
REMARK  Name = NuBBE_1991
REMARK  11 active torsions:
REMARK  status: ('A' for Active; 'I' for Inactive)
REMARK    1  A    between atoms: C_1  and  C_2
REMARK    2  A    between atoms: C_11  and  C_12
REMARK    3  A    between atoms: C_17  and  O_21
REMARK    4  A    between atoms: C_24  and  C_26
REMARK    5  A    between atoms: C_26  and  C_28
REMARK    6  A    between atoms: C_26  and  C_34
REMARK    7  A    between atoms: C_28  and  C_29
REMARK    8  A    between atoms: C_29  and  C_30
REMARK    9  A    between atoms: C_30  and  C_31
REMARK   10  A    between atoms: C_31  and  C_32
REMARK   11  A    between atoms: C_31  and  C_33
REMARK                            x       y       z     vdW  Elec       q    Type
REMARK                         _______ _______ _______ _____ _____    ______ ____
ROOT
ATOM      1  C   LIG A   1      -5.051   0.809 126.918  0.00  0.00    +0.012 C 
ATOM      2  C   LIG A   1      -5.841  -0.434 126.398  0.00  0.00    -0.026 C 
ATOM      3  C   LIG A   1      -7.376  -0.266 126.450  0.00  0.00    -0.001 C 
ATOM      4  C   LIG A   1      -8.039  -0.284 127.832  0.00  0.00    +0.000 C 
ATOM      5  C   LIG A   1      -7.574  -1.525 128.656  0.00  0.00    +0.003 C 
ATOM      6  C   LIG A   1      -6.518  -2.395 127.918  0.00  0.00    +0.005 C 
ATOM      7  C   LIG A   1      -5.374  -1.602 127.286  0.00  0.00    +0.007 C 
ATOM      8  C   LIG A   1      -7.340  -1.343 130.208  0.00  0.00    -0.008 C 
ATOM      9  C   LIG A   1      -7.883  -2.647 130.867  0.00  0.00    +0.016 C 
ATOM     10  C   LIG A   1      -8.052  -0.114 130.770  0.00  0.00    -0.065 C 
ATOM     11  C   LIG A   1      -8.412   0.934 130.016  0.00  0.00    -0.027 C 
ATOM     12  C   LIG A   1      -8.098   1.051 128.562  0.00  0.00    +0.031 C 
ATOM     13  C   LIG A   1      -8.038   0.018 132.274  0.00  0.00    +0.062 C 
ATOM     14  C   LIG A   1      -6.577   0.135 132.736  0.00  0.00    +0.119 C 
ATOM     15  C   LIG A   1      -5.662  -0.943 132.137  0.00  0.00    +0.032 C 
ATOM     16  C   LIG A   1      -5.857  -1.148 130.621  0.00  0.00    +0.013 C 
ATOM     17  C   LIG A   1      -7.651   0.875 125.480  0.00  0.00    +0.004 C 
ATOM     18  C   LIG A   1      -6.588   0.683 124.377  0.00  0.00    +0.004 C 
ATOM     19  C   LIG A   1      -5.653  -0.498 124.824  0.00  0.00    -0.002 C 
ENDROOT
BRANCH  14  20
ATOM     20  O   LIG A   1      -6.506   0.076 134.159  0.00  0.00    -0.392 OA
ATOM     21  H   LIG A   1      -6.736   0.956 134.505  0.00  0.00    +0.210 HD
ENDBRANCH  14  20
BRANCH  19  22
ATOM     22  C   LIG A   1      -6.032  -1.818 124.042  0.00  0.00    -0.010 C 
ATOM     23  C   LIG A   1      -4.852  -2.746 123.735  0.00  0.00    +0.008 C 
BRANCH  22  24
ATOM     24  C   LIG A   1      -6.807  -1.579 122.707  0.00  0.00    +0.003 C 
BRANCH  24  25
ATOM     25  C   LIG A   1      -8.159  -2.298 122.572  0.00  0.00    +0.000 C 
BRANCH  25  26
ATOM     26  C   LIG A   1      -9.042  -2.075 123.815  0.00  0.00    +0.003 C 
BRANCH  26  27
ATOM     27  C   LIG A   1      -9.311  -3.354 124.640  0.00  0.00    -0.017 C 
ATOM     28  C   LIG A   1      -8.067  -4.252 124.671  0.00  0.00    +0.007 C 
ATOM     29  C   LIG A   1      -9.734  -3.035 126.074  0.00  0.00    +0.007 C 
ENDBRANCH  26  27
ENDBRANCH  25  26
ENDBRANCH  24  25
ENDBRANCH  22  24
ENDBRANCH  19  22
TORSDOF 6
ENDMDL
MODEL 5
REMARK VINA RESULT:      -7.1      2.866      7.105
REMARK  Name = NuBBE_1991
REMARK  11 active torsions:
REMARK  status: ('A' for Active; 'I' for Inactive)
REMARK    1  A    between atoms: C_1  and  C_2
REMARK    2  A    between atoms: C_11  and  C_12
REMARK    3  A    between atoms: C_17  and  O_21
REMARK    4  A    between atoms: C_24  and  C_26
REMARK    5  A    between atoms: C_26  and  C_28
REMARK    6  A    between atoms: C_26  and  C_34
REMARK    7  A    between atoms: C_28  and  C_29
REMARK    8  A    between atoms: C_29  and  C_30
REMARK    9  A    between atoms: C_30  and  C_31
REMARK   10  A    between atoms: C_31  and  C_32
REMARK   11  A    between atoms: C_31  and  C_33
REMARK                            x       y       z     vdW  Elec       q    Type
REMARK                         _______ _______ _______ _____ _____    ______ ____
ROOT
ATOM      1  C   LIG A   1      -4.793  -3.641 129.659  0.00  0.00    +0.012 C 
ATOM      2  C   LIG A   1      -5.285  -2.285 130.258  0.00  0.00    -0.026 C 
ATOM      3  C   LIG A   1      -6.771  -2.293 130.685  0.00  0.00    -0.001 C 
ATOM      4  C   LIG A   1      -7.823  -2.311 129.571  0.00  0.00    +0.000 C 
ATOM      5  C   LIG A   1      -7.539  -1.193 128.520  0.00  0.00    +0.003 C 
ATOM      6  C   LIG A   1      -6.243  -0.386 128.812  0.00  0.00    +0.005 C 
ATOM      7  C   LIG A   1      -5.025  -1.245 129.152  0.00  0.00    +0.007 C 
ATOM      8  C   LIG A   1      -7.809  -1.518 126.998  0.00  0.00    -0.008 C 
ATOM      9  C   LIG A   1      -8.426  -0.218 126.397  0.00  0.00    +0.016 C 
ATOM     10  C   LIG A   1      -8.753  -2.704 126.807  0.00  0.00    -0.065 C 
ATOM     11  C   LIG A   1      -8.943  -3.646 127.740  0.00  0.00    -0.027 C 
ATOM     12  C   LIG A   1      -8.207  -3.684 129.037  0.00  0.00    +0.031 C 
ATOM     13  C   LIG A   1      -9.212  -2.952 125.390  0.00  0.00    +0.062 C 
ATOM     14  C   LIG A   1      -7.978  -3.258 124.527  0.00  0.00    +0.119 C 
ATOM     15  C   LIG A   1      -6.842  -2.241 124.708  0.00  0.00    +0.032 C 
ATOM     16  C   LIG A   1      -6.545  -1.900 126.182  0.00  0.00    +0.013 C 
ATOM     17  C   LIG A   1      -6.822  -3.320 131.808  0.00  0.00    +0.004 C 
ATOM     18  C   LIG A   1      -5.459  -3.158 132.516  0.00  0.00    +0.004 C 
ATOM     19  C   LIG A   1      -4.618  -2.120 131.687  0.00  0.00    -0.002 C 
ENDROOT
BRANCH  14  20
ATOM     20  O   LIG A   1      -8.344  -3.317 123.150  0.00  0.00    -0.392 OA
ATOM     21  H   LIG A   1      -7.869  -2.607 122.686  0.00  0.00    +0.210 HD
ENDBRANCH  14  20
BRANCH  19  22
ATOM     22  C   LIG A   1      -4.635  -0.712 132.404  0.00  0.00    -0.010 C 
ATOM     23  C   LIG A   1      -3.287  -0.268 132.983  0.00  0.00    +0.008 C 
BRANCH  22  24
ATOM     24  C   LIG A   1      -5.705  -0.571 133.532  0.00  0.00    +0.003 C 
BRANCH  24  25
ATOM     25  C   LIG A   1      -6.578   0.692 133.484  0.00  0.00    +0.000 C 
BRANCH  25  26
ATOM     26  C   LIG A   1      -6.819   1.154 132.034  0.00  0.00    +0.003 C 
BRANCH  26  27
ATOM     27  C   LIG A   1      -8.296   1.469 131.705  0.00  0.00    -0.017 C 
ATOM     28  C   LIG A   1      -8.425   2.049 130.290  0.00  0.00    +0.007 C 
ATOM     29  C   LIG A   1      -9.188   0.234 131.823  0.00  0.00    +0.007 C 
ENDBRANCH  26  27
ENDBRANCH  25  26
ENDBRANCH  24  25
ENDBRANCH  22  24
ENDBRANCH  19  22
TORSDOF 6
ENDMDL
MODEL 6
REMARK VINA RESULT:      -6.9      1.369      2.954
REMARK  Name = NuBBE_1991
REMARK  11 active torsions:
REMARK  status: ('A' for Active; 'I' for Inactive)
REMARK    1  A    between atoms: C_1  and  C_2
REMARK    2  A    between atoms: C_11  and  C_12
REMARK    3  A    between atoms: C_17  and  O_21
REMARK    4  A    between atoms: C_24  and  C_26
REMARK    5  A    between atoms: C_26  and  C_28
REMARK    6  A    between atoms: C_26  and  C_34
REMARK    7  A    between atoms: C_28  and  C_29
REMARK    8  A    between atoms: C_29  and  C_30
REMARK    9  A    between atoms: C_30  and  C_31
REMARK   10  A    between atoms: C_31  and  C_32
REMARK   11  A    between atoms: C_31  and  C_33
REMARK                            x       y       z     vdW  Elec       q    Type
REMARK                         _______ _______ _______ _____ _____    ______ ____
ROOT
ATOM      1  C   LIG A   1      -7.514  -0.559 128.427  0.00  0.00    +0.012 C 
ATOM      2  C   LIG A   1      -6.809  -1.775 127.743  0.00  0.00    -0.026 C 
ATOM      3  C   LIG A   1      -7.288  -3.149 128.265  0.00  0.00    -0.001 C 
ATOM      4  C   LIG A   1      -6.858  -3.552 129.680  0.00  0.00    +0.000 C 
ATOM      5  C   LIG A   1      -5.319  -3.378 129.864  0.00  0.00    +0.003 C 
ATOM      6  C   LIG A   1      -4.610  -2.785 128.614  0.00  0.00    +0.005 C 
ATOM      7  C   LIG A   1      -5.307  -1.565 128.011  0.00  0.00    +0.007 C 
ATOM      8  C   LIG A   1      -4.791  -2.853 131.258  0.00  0.00    -0.008 C 
ATOM      9  C   LIG A   1      -3.494  -3.668 131.547  0.00  0.00    +0.016 C 
ATOM     10  C   LIG A   1      -5.809  -3.040 132.381  0.00  0.00    -0.065 C 
ATOM     11  C   LIG A   1      -7.125  -3.165 132.164  0.00  0.00    -0.027 C 
ATOM     12  C   LIG A   1      -7.752  -3.068 130.813  0.00  0.00    +0.031 C 
ATOM     13  C   LIG A   1      -5.307  -2.743 133.774  0.00  0.00    +0.062 C 
ATOM     14  C   LIG A   1      -4.887  -1.266 133.833  0.00  0.00    +0.119 C 
ATOM     15  C   LIG A   1      -3.970  -0.849 132.674  0.00  0.00    +0.032 C 
ATOM     16  C   LIG A   1      -4.454  -1.339 131.295  0.00  0.00    +0.013 C 
ATOM     17  C   LIG A   1      -8.756  -3.200 127.863  0.00  0.00    +0.004 C 
ATOM     18  C   LIG A   1      -8.794  -2.444 126.518  0.00  0.00    +0.004 C 
ATOM     19  C   LIG A   1      -7.353  -1.872 126.257  0.00  0.00    -0.002 C 
ENDROOT
BRANCH  14  20
ATOM     20  O   LIG A   1      -4.236  -0.990 135.072  0.00  0.00    -0.392 OA
ATOM     21  H   LIG A   1      -3.277  -1.034 134.920  0.00  0.00    +0.210 HD
ENDBRANCH  14  20
BRANCH  19  22
ATOM     22  C   LIG A   1      -6.595  -2.770 125.201  0.00  0.00    -0.010 C 
ATOM     23  C   LIG A   1      -5.335  -2.135 124.602  0.00  0.00    +0.008 C 
BRANCH  22  24
ATOM     24  C   LIG A   1      -7.483  -3.267 124.016  0.00  0.00    +0.003 C 
BRANCH  24  25
ATOM     25  C   LIG A   1      -7.705  -2.268 122.869  0.00  0.00    +0.000 C 
BRANCH  25  26
ATOM     26  C   LIG A   1      -9.126  -1.674 122.907  0.00  0.00    +0.003 C 
BRANCH  26  27
ATOM     27  C   LIG A   1      -9.193  -0.219 123.421  0.00  0.00    -0.017 C 
ATOM     28  C   LIG A   1      -7.798   0.421 123.424  0.00  0.00    +0.007 C 
ATOM     29  C   LIG A   1     -10.138   0.644 122.584  0.00  0.00    +0.007 C 
ENDBRANCH  26  27
ENDBRANCH  25  26
ENDBRANCH  24  25
ENDBRANCH  22  24
ENDBRANCH  19  22
TORSDOF 6
ENDMDL
MODEL 7
REMARK VINA RESULT:      -6.9      2.312      3.821
REMARK  Name = NuBBE_1991
REMARK  11 active torsions:
REMARK  status: ('A' for Active; 'I' for Inactive)
REMARK    1  A    between atoms: C_1  and  C_2
REMARK    2  A    between atoms: C_11  and  C_12
REMARK    3  A    between atoms: C_17  and  O_21
REMARK    4  A    between atoms: C_24  and  C_26
REMARK    5  A    between atoms: C_26  and  C_28
REMARK    6  A    between atoms: C_26  and  C_34
REMARK    7  A    between atoms: C_28  and  C_29
REMARK    8  A    between atoms: C_29  and  C_30
REMARK    9  A    between atoms: C_30  and  C_31
REMARK   10  A    between atoms: C_31  and  C_32
REMARK   11  A    between atoms: C_31  and  C_33
REMARK                            x       y       z     vdW  Elec       q    Type
REMARK                         _______ _______ _______ _____ _____    ______ ____
ROOT
ATOM      1  C   LIG A   1      -6.453   1.999 124.977  0.00  0.00    +0.012 C 
ATOM      2  C   LIG A   1      -6.676   0.458 125.106  0.00  0.00    -0.026 C 
ATOM      3  C   LIG A   1      -7.976   0.074 125.849  0.00  0.00    -0.001 C 
ATOM      4  C   LIG A   1      -8.020   0.321 127.361  0.00  0.00    +0.000 C 
ATOM      5  C   LIG A   1      -6.765  -0.286 128.061  0.00  0.00    +0.003 C 
ATOM      6  C   LIG A   1      -5.754  -0.926 127.068  0.00  0.00    +0.005 C 
ATOM      7  C   LIG A   1      -5.431  -0.062 125.849  0.00  0.00    +0.007 C 
ATOM      8  C   LIG A   1      -6.125   0.513 129.263  0.00  0.00    -0.008 C 
ATOM      9  C   LIG A   1      -5.709  -0.566 130.308  0.00  0.00    +0.016 C 
ATOM     10  C   LIG A   1      -7.091   1.522 129.882  0.00  0.00    -0.065 C 
ATOM     11  C   LIG A   1      -8.145   2.025 129.225  0.00  0.00    -0.027 C 
ATOM     12  C   LIG A   1      -8.454   1.714 127.799  0.00  0.00    +0.031 C 
ATOM     13  C   LIG A   1      -6.620   2.183 131.155  0.00  0.00    +0.062 C 
ATOM     14  C   LIG A   1      -5.337   2.971 130.845  0.00  0.00    +0.119 C 
ATOM     15  C   LIG A   1      -4.292   2.152 130.074  0.00  0.00    +0.032 C 
ATOM     16  C   LIG A   1      -4.878   1.359 128.889  0.00  0.00    +0.013 C 
ATOM     17  C   LIG A   1      -9.081   0.611 124.949  0.00  0.00    +0.004 C 
ATOM     18  C   LIG A   1      -8.516   0.426 123.524  0.00  0.00    +0.004 C 
ATOM     19  C   LIG A   1      -7.040  -0.097 123.666  0.00  0.00    -0.002 C 
ENDROOT
BRANCH  14  20
ATOM     20  O   LIG A   1      -4.757   3.458 132.054  0.00  0.00    -0.392 OA
ATOM     21  H   LIG A   1      -4.298   4.290 131.848  0.00  0.00    +0.210 HD
ENDBRANCH  14  20
BRANCH  19  22
ATOM     22  C   LIG A   1      -6.987  -1.652 123.388  0.00  0.00    -0.010 C 
ATOM     23  C   LIG A   1      -5.964  -2.082 122.331  0.00  0.00    +0.008 C 
BRANCH  22  24
ATOM     24  C   LIG A   1      -8.360  -2.290 123.006  0.00  0.00    +0.003 C 
BRANCH  24  25
ATOM     25  C   LIG A   1      -8.800  -3.502 123.841  0.00  0.00    +0.000 C 
BRANCH  25  26
ATOM     26  C   LIG A   1      -7.941  -3.651 125.112  0.00  0.00    +0.003 C 
BRANCH  26  27
ATOM     27  C   LIG A   1      -8.624  -3.144 126.403  0.00  0.00    -0.017 C 
ATOM     28  C   LIG A   1     -10.116  -2.880 126.160  0.00  0.00    +0.007 C 
ATOM     29  C   LIG A   1      -8.472  -4.132 127.559  0.00  0.00    +0.007 C 
ENDBRANCH  26  27
ENDBRANCH  25  26
ENDBRANCH  24  25
ENDBRANCH  22  24
ENDBRANCH  19  22
TORSDOF 6
ENDMDL
MODEL 8
REMARK VINA RESULT:      -6.9      1.648      2.980
REMARK  Name = NuBBE_1991
REMARK  11 active torsions:
REMARK  status: ('A' for Active; 'I' for Inactive)
REMARK    1  A    between atoms: C_1  and  C_2
REMARK    2  A    between atoms: C_11  and  C_12
REMARK    3  A    between atoms: C_17  and  O_21
REMARK    4  A    between atoms: C_24  and  C_26
REMARK    5  A    between atoms: C_26  and  C_28
REMARK    6  A    between atoms: C_26  and  C_34
REMARK    7  A    between atoms: C_28  and  C_29
REMARK    8  A    between atoms: C_29  and  C_30
REMARK    9  A    between atoms: C_30  and  C_31
REMARK   10  A    between atoms: C_31  and  C_32
REMARK   11  A    between atoms: C_31  and  C_33
REMARK                            x       y       z     vdW  Elec       q    Type
REMARK                         _______ _______ _______ _____ _____    ______ ____
ROOT
ATOM      1  C   LIG A   1      -5.352   0.167 130.347  0.00  0.00    +0.012 C 
ATOM      2  C   LIG A   1      -5.953  -0.720 129.211  0.00  0.00    -0.026 C 
ATOM      3  C   LIG A   1      -7.341  -1.312 129.548  0.00  0.00    -0.001 C 
ATOM      4  C   LIG A   1      -7.393  -2.426 130.599  0.00  0.00    +0.000 C 
ATOM      5  C   LIG A   1      -6.360  -3.549 130.272  0.00  0.00    +0.003 C 
ATOM      6  C   LIG A   1      -5.493  -3.243 129.018  0.00  0.00    +0.005 C 
ATOM      7  C   LIG A   1      -4.911  -1.830 128.980  0.00  0.00    +0.007 C 
ATOM      8  C   LIG A   1      -5.599  -4.233 131.475  0.00  0.00    -0.008 C 
ATOM      9  C   LIG A   1      -5.510  -5.745 131.108  0.00  0.00    +0.016 C 
ATOM     10  C   LIG A   1      -6.314  -4.040 132.811  0.00  0.00    -0.065 C 
ATOM     11  C   LIG A   1      -7.180  -3.044 133.041  0.00  0.00    -0.027 C 
ATOM     12  C   LIG A   1      -7.489  -1.973 132.049  0.00  0.00    +0.031 C 
ATOM     13  C   LIG A   1      -5.754  -4.826 133.972  0.00  0.00    +0.062 C 
ATOM     14  C   LIG A   1      -4.304  -4.375 134.207  0.00  0.00    +0.119 C 
ATOM     15  C   LIG A   1      -3.459  -4.355 132.926  0.00  0.00    +0.032 C 
ATOM     16  C   LIG A   1      -4.166  -3.691 131.728  0.00  0.00    +0.013 C 
ATOM     17  C   LIG A   1      -8.237  -0.088 129.679  0.00  0.00    +0.004 C 
ATOM     18  C   LIG A   1      -7.669   0.896 128.634  0.00  0.00    +0.004 C 
ATOM     19  C   LIG A   1      -6.377   0.242 128.023  0.00  0.00    -0.002 C 
ENDROOT
BRANCH  14  20
ATOM     20  O   LIG A   1      -3.678  -5.219 135.172  0.00  0.00    -0.392 OA
ATOM     21  H   LIG A   1      -3.147  -4.655 135.760  0.00  0.00    +0.210 HD
ENDBRANCH  14  20
BRANCH  19  22
ATOM     22  C   LIG A   1      -6.695  -0.364 126.599  0.00  0.00    -0.010 C 
ATOM     23  C   LIG A   1      -5.776   0.122 125.473  0.00  0.00    +0.008 C 
BRANCH  22  24
ATOM     24  C   LIG A   1      -8.170  -0.165 126.125  0.00  0.00    +0.003 C 
BRANCH  24  25
ATOM     25  C   LIG A   1      -9.029  -1.436 126.032  0.00  0.00    +0.000 C 
BRANCH  25  26
ATOM     26  C   LIG A   1      -8.179  -2.705 126.239  0.00  0.00    +0.003 C 
BRANCH  26  27
ATOM     27  C   LIG A   1      -8.021  -3.577 124.973  0.00  0.00    -0.017 C 
ATOM     28  C   LIG A   1      -9.151  -3.292 123.973  0.00  0.00    +0.007 C 
ATOM     29  C   LIG A   1      -6.675  -3.352 124.284  0.00  0.00    +0.007 C 
ENDBRANCH  26  27
ENDBRANCH  25  26
ENDBRANCH  24  25
ENDBRANCH  22  24
ENDBRANCH  19  22
TORSDOF 6
ENDMDL
MODEL 9
REMARK VINA RESULT:      -6.7      3.650      6.636
REMARK  Name = NuBBE_1991
REMARK  11 active torsions:
REMARK  status: ('A' for Active; 'I' for Inactive)
REMARK    1  A    between atoms: C_1  and  C_2
REMARK    2  A    between atoms: C_11  and  C_12
REMARK    3  A    between atoms: C_17  and  O_21
REMARK    4  A    between atoms: C_24  and  C_26
REMARK    5  A    between atoms: C_26  and  C_28
REMARK    6  A    between atoms: C_26  and  C_34
REMARK    7  A    between atoms: C_28  and  C_29
REMARK    8  A    between atoms: C_29  and  C_30
REMARK    9  A    between atoms: C_30  and  C_31
REMARK   10  A    between atoms: C_31  and  C_32
REMARK   11  A    between atoms: C_31  and  C_33
REMARK                            x       y       z     vdW  Elec       q    Type
REMARK                         _______ _______ _______ _____ _____    ______ ____
ROOT
ATOM      1  C   LIG A   1      -8.645   1.757 128.828  0.00  0.00    +0.012 C 
ATOM      2  C   LIG A   1      -7.085   1.798 128.751  0.00  0.00    -0.026 C 
ATOM      3  C   LIG A   1      -6.541   2.467 127.468  0.00  0.00    -0.001 C 
ATOM      4  C   LIG A   1      -6.698   1.698 126.152  0.00  0.00    +0.000 C 
ATOM      5  C   LIG A   1      -6.173   0.236 126.297  0.00  0.00    +0.003 C 
ATOM      6  C   LIG A   1      -5.688  -0.107 127.733  0.00  0.00    +0.005 C 
ATOM      7  C   LIG A   1      -6.645   0.325 128.845  0.00  0.00    +0.007 C 
ATOM      8  C   LIG A   1      -6.962  -0.914 125.554  0.00  0.00    -0.008 C 
ATOM      9  C   LIG A   1      -5.870  -1.882 125.005  0.00  0.00    +0.016 C 
ATOM     10  C   LIG A   1      -7.839  -0.388 124.419  0.00  0.00    -0.065 C 
ATOM     11  C   LIG A   1      -8.277   0.876 124.356  0.00  0.00    -0.027 C 
ATOM     12  C   LIG A   1      -8.017   1.893 125.417  0.00  0.00    +0.031 C 
ATOM     13  C   LIG A   1      -8.470  -1.442 123.540  0.00  0.00    +0.062 C 
ATOM     14  C   LIG A   1      -9.391  -2.311 124.410  0.00  0.00    +0.119 C 
ATOM     15  C   LIG A   1      -8.717  -2.810 125.696  0.00  0.00    +0.032 C 
ATOM     16  C   LIG A   1      -7.940  -1.715 126.453  0.00  0.00    +0.013 C 
ATOM     17  C   LIG A   1      -7.020   3.909 127.578  0.00  0.00    +0.004 C 
ATOM     18  C   LIG A   1      -6.969   4.197 129.094  0.00  0.00    +0.004 C 
ATOM     19  C   LIG A   1      -6.579   2.857 129.817  0.00  0.00    -0.002 C 
ENDROOT
BRANCH  14  20
ATOM     20  O   LIG A   1      -9.863  -3.429 123.660  0.00  0.00    -0.392 OA
ATOM     21  H   LIG A   1      -9.497  -3.359 122.761  0.00  0.00    +0.210 HD
ENDBRANCH  14  20
BRANCH  19  22
ATOM     22  C   LIG A   1      -5.054   2.886 130.230  0.00  0.00    -0.010 C 
ATOM     23  C   LIG A   1      -4.772   2.480 131.680  0.00  0.00    +0.008 C 
BRANCH  22  24
ATOM     24  C   LIG A   1      -4.339   4.251 129.973  0.00  0.00    +0.003 C 
BRANCH  24  25
ATOM     25  C   LIG A   1      -3.298   4.268 128.842  0.00  0.00    +0.000 C 
BRANCH  25  26
ATOM     26  C   LIG A   1      -3.092   2.862 128.246  0.00  0.00    +0.003 C 
BRANCH  26  27
ATOM     27  C   LIG A   1      -2.888   2.845 126.715  0.00  0.00    -0.017 C 
ATOM     28  C   LIG A   1      -3.682   3.976 126.048  0.00  0.00    +0.007 C 
ATOM     29  C   LIG A   1      -1.414   2.972 126.330  0.00  0.00    +0.007 C 
ENDBRANCH  26  27
ENDBRANCH  25  26
ENDBRANCH  24  25
ENDBRANCH  22  24
ENDBRANCH  19  22
TORSDOF 6
ENDMDL
