MODEL 1
REMARK VINA RESULT:      -8.0      0.000      0.000
REMARK  Name = NuBBE_1234
REMARK  13 active torsions:
REMARK  status: ('A' for Active; 'I' for Inactive)
REMARK    1  A    between atoms: C_1  and  C_2
REMARK    2  A    between atoms: C_5  and  C_6
REMARK    3  A    between atoms: C_11  and  C_12
REMARK    4  A    between atoms: C_11  and  C_13
REMARK    5  A    between atoms: C_14  and  O_18
REMARK    6  A    between atoms: C_21  and  C_22
REMARK    7  A    between atoms: C_23  and  C_27
REMARK    8  A    between atoms: C_27  and  C_29
REMARK    9  A    between atoms: C_27  and  C_35
REMARK   10  A    between atoms: C_29  and  C_30
REMARK   11  A    between atoms: C_30  and  C_31
REMARK   12  A    between atoms: C_32  and  C_33
REMARK   13  A    between atoms: C_32  and  C_34
REMARK                            x       y       z     vdW  Elec       q    Type
REMARK                         _______ _______ _______ _____ _____    ______ ____
ROOT
ATOM      1  C   LIG A   1      -5.731   0.598 126.083  0.00  0.00    +0.016 C 
ATOM      2  C   LIG A   1      -6.812   0.602 127.203  0.00  0.00    -0.005 C 
ATOM      3  C   LIG A   1      -6.415   1.698 128.225  0.00  0.00    -0.063 C 
ATOM      4  C   LIG A   1      -6.172   1.458 129.539  0.00  0.00    -0.064 C 
ATOM      5  C   LIG A   1      -5.588   2.523 130.522  0.00  0.00    -0.007 C 
ATOM      6  C   LIG A   1      -4.182   1.977 130.901  0.00  0.00    +0.016 C 
ATOM      7  C   LIG A   1      -5.423   3.962 129.882  0.00  0.00    +0.007 C 
ATOM      8  C   LIG A   1      -6.397   4.167 128.711  0.00  0.00    +0.009 C 
ATOM      9  C   LIG A   1      -6.238   3.086 127.659  0.00  0.00    +0.031 C 
ATOM     10  C   LIG A   1      -5.479   5.190 130.897  0.00  0.00    -0.005 C 
ATOM     11  C   LIG A   1      -6.862   5.891 130.951  0.00  0.00    +0.014 C 
ATOM     12  C   LIG A   1      -4.468   6.262 130.417  0.00  0.00    +0.014 C 
ATOM     13  C   LIG A   1      -5.078   4.744 132.321  0.00  0.00    +0.121 C 
ATOM     14  C   LIG A   1      -5.951   3.611 132.852  0.00  0.00    +0.032 C 
ATOM     15  C   LIG A   1      -6.472   2.649 131.786  0.00  0.00    +0.013 C 
ATOM     16  C   LIG A   1      -6.374   0.066 130.105  0.00  0.00    +0.032 C 
ATOM     17  C   LIG A   1      -7.401  -0.731 129.321  0.00  0.00    +0.012 C 
ATOM     18  C   LIG A   1      -7.043  -0.853 127.821  0.00  0.00    -0.020 C 
ATOM     19  C   LIG A   1      -5.779  -1.726 127.709  0.00  0.00    +0.012 C 
ATOM     20  C   LIG A   1      -8.335  -1.415 127.099  0.00  0.00    -0.001 C 
ATOM     21  C   LIG A   1      -8.615  -0.438 125.955  0.00  0.00    +0.005 C 
ATOM     22  C   LIG A   1      -8.175   0.902 126.534  0.00  0.00    +0.012 C 
ENDROOT
BRANCH  13  23
ATOM     23  O   LIG A   1      -5.138   5.834 133.245  0.00  0.00    -0.391 OA
ATOM     24  H   LIG A   1      -5.515   6.597 132.773  0.00  0.00    +0.210 HD
ENDBRANCH  13  23
BRANCH  20  25
ATOM     25  C   LIG A   1      -8.503  -2.910 126.707  0.00  0.00    -0.010 C 
ATOM     26  C   LIG A   1      -8.861  -3.859 127.853  0.00  0.00    +0.008 C 
BRANCH  25  27
ATOM     27  C   LIG A   1      -9.460  -3.066 125.503  0.00  0.00    +0.007 C 
BRANCH  27  28
ATOM     28  C   LIG A   1      -8.790  -3.641 124.249  0.00  0.00    +0.027 C 
BRANCH  28  29
ATOM     29  C   LIG A   1      -7.293  -3.611 124.377  0.00  0.00    -0.028 C 
ATOM     30  C   LIG A   1      -6.449  -2.738 123.787  0.00  0.00    -0.080 C 
ATOM     31  C   LIG A   1      -6.874  -1.603 122.899  0.00  0.00    +0.038 C 
ATOM     32  C   LIG A   1      -4.959  -2.829 124.008  0.00  0.00    +0.038 C 
ENDBRANCH  28  29
ENDBRANCH  27  28
ENDBRANCH  25  27
ENDBRANCH  20  25
TORSDOF 5
ENDMDL
MODEL 2
REMARK VINA RESULT:      -8.0      3.939      5.735
REMARK  Name = NuBBE_1234
REMARK  13 active torsions:
REMARK  status: ('A' for Active; 'I' for Inactive)
REMARK    1  A    between atoms: C_1  and  C_2
REMARK    2  A    between atoms: C_5  and  C_6
REMARK    3  A    between atoms: C_11  and  C_12
REMARK    4  A    between atoms: C_11  and  C_13
REMARK    5  A    between atoms: C_14  and  O_18
REMARK    6  A    between atoms: C_21  and  C_22
REMARK    7  A    between atoms: C_23  and  C_27
REMARK    8  A    between atoms: C_27  and  C_29
REMARK    9  A    between atoms: C_27  and  C_35
REMARK   10  A    between atoms: C_29  and  C_30
REMARK   11  A    between atoms: C_30  and  C_31
REMARK   12  A    between atoms: C_32  and  C_33
REMARK   13  A    between atoms: C_32  and  C_34
REMARK                            x       y       z     vdW  Elec       q    Type
REMARK                         _______ _______ _______ _____ _____    ______ ____
ROOT
ATOM      1  C   LIG A   1      -7.888  -0.421 128.262  0.00  0.00    +0.016 C 
ATOM      2  C   LIG A   1      -7.239  -1.835 128.212  0.00  0.00    -0.005 C 
ATOM      3  C   LIG A   1      -6.738  -2.164 129.641  0.00  0.00    -0.063 C 
ATOM      4  C   LIG A   1      -5.445  -2.436 129.949  0.00  0.00    -0.064 C 
ATOM      5  C   LIG A   1      -4.912  -2.579 131.411  0.00  0.00    -0.007 C 
ATOM      6  C   LIG A   1      -3.952  -1.369 131.597  0.00  0.00    +0.016 C 
ATOM      7  C   LIG A   1      -6.045  -2.508 132.515  0.00  0.00    +0.007 C 
ATOM      8  C   LIG A   1      -7.407  -2.931 131.943  0.00  0.00    +0.009 C 
ATOM      9  C   LIG A   1      -7.783  -2.103 130.730  0.00  0.00    +0.031 C 
ATOM     10  C   LIG A   1      -5.735  -3.265 133.883  0.00  0.00    -0.005 C 
ATOM     11  C   LIG A   1      -6.388  -4.670 133.979  0.00  0.00    +0.014 C 
ATOM     12  C   LIG A   1      -6.333  -2.430 135.045  0.00  0.00    +0.014 C 
ATOM     13  C   LIG A   1      -4.212  -3.395 134.108  0.00  0.00    +0.121 C 
ATOM     14  C   LIG A   1      -3.507  -4.115 132.963  0.00  0.00    +0.032 C 
ATOM     15  C   LIG A   1      -4.138  -3.908 131.588  0.00  0.00    +0.013 C 
ATOM     16  C   LIG A   1      -4.406  -2.520 128.847  0.00  0.00    +0.032 C 
ATOM     17  C   LIG A   1      -5.012  -2.912 127.513  0.00  0.00    +0.012 C 
ATOM     18  C   LIG A   1      -6.137  -1.950 127.061  0.00  0.00    -0.020 C 
ATOM     19  C   LIG A   1      -5.491  -0.585 126.753  0.00  0.00    +0.012 C 
ATOM     20  C   LIG A   1      -6.868  -2.657 125.848  0.00  0.00    -0.001 C 
ATOM     21  C   LIG A   1      -8.352  -2.661 126.221  0.00  0.00    +0.005 C 
ATOM     22  C   LIG A   1      -8.326  -2.829 127.736  0.00  0.00    +0.012 C 
ENDROOT
BRANCH  13  23
ATOM     23  O   LIG A   1      -3.922  -4.086 135.325  0.00  0.00    -0.391 OA
ATOM     24  H   LIG A   1      -3.543  -3.439 135.946  0.00  0.00    +0.210 HD
ENDBRANCH  13  23
BRANCH  20  25
ATOM     25  C   LIG A   1      -6.591  -2.290 124.364  0.00  0.00    -0.010 C 
ATOM     26  C   LIG A   1      -5.354  -2.942 123.740  0.00  0.00    +0.008 C 
BRANCH  25  27
ATOM     27  C   LIG A   1      -7.855  -2.493 123.494  0.00  0.00    +0.007 C 
BRANCH  27  28
ATOM     28  C   LIG A   1      -8.480  -1.185 122.997  0.00  0.00    +0.027 C 
BRANCH  28  29
ATOM     29  C   LIG A   1      -7.781   0.007 123.592  0.00  0.00    -0.028 C 
ATOM     30  C   LIG A   1      -8.266   0.839 124.537  0.00  0.00    -0.080 C 
ATOM     31  C   LIG A   1      -9.611   0.700 125.192  0.00  0.00    +0.038 C 
ATOM     32  C   LIG A   1      -7.446   2.001 125.042  0.00  0.00    +0.038 C 
ENDBRANCH  28  29
ENDBRANCH  27  28
ENDBRANCH  25  27
ENDBRANCH  20  25
TORSDOF 5
ENDMDL
MODEL 3
REMARK VINA RESULT:      -7.9      1.578      1.942
REMARK  Name = NuBBE_1234
REMARK  13 active torsions:
REMARK  status: ('A' for Active; 'I' for Inactive)
REMARK    1  A    between atoms: C_1  and  C_2
REMARK    2  A    between atoms: C_5  and  C_6
REMARK    3  A    between atoms: C_11  and  C_12
REMARK    4  A    between atoms: C_11  and  C_13
REMARK    5  A    between atoms: C_14  and  O_18
REMARK    6  A    between atoms: C_21  and  C_22
REMARK    7  A    between atoms: C_23  and  C_27
REMARK    8  A    between atoms: C_27  and  C_29
REMARK    9  A    between atoms: C_27  and  C_35
REMARK   10  A    between atoms: C_29  and  C_30
REMARK   11  A    between atoms: C_30  and  C_31
REMARK   12  A    between atoms: C_32  and  C_33
REMARK   13  A    between atoms: C_32  and  C_34
REMARK                            x       y       z     vdW  Elec       q    Type
REMARK                         _______ _______ _______ _____ _____    ______ ____
ROOT
ATOM      1  C   LIG A   1      -5.904   0.824 127.559  0.00  0.00    +0.016 C 
ATOM      2  C   LIG A   1      -7.296   0.663 128.238  0.00  0.00    -0.005 C 
ATOM      3  C   LIG A   1      -7.419   1.777 129.309  0.00  0.00    -0.063 C 
ATOM      4  C   LIG A   1      -7.614   1.541 130.632  0.00  0.00    -0.064 C 
ATOM      5  C   LIG A   1      -7.548   2.650 131.730  0.00  0.00    -0.007 C 
ATOM      6  C   LIG A   1      -6.300   2.283 132.582  0.00  0.00    +0.016 C 
ATOM      7  C   LIG A   1      -7.360   4.113 131.152  0.00  0.00    +0.007 C 
ATOM      8  C   LIG A   1      -7.890   4.216 129.714  0.00  0.00    +0.009 C 
ATOM      9  C   LIG A   1      -7.240   3.189 128.806  0.00  0.00    +0.031 C 
ATOM     10  C   LIG A   1      -7.920   5.299 132.058  0.00  0.00    -0.005 C 
ATOM     11  C   LIG A   1      -9.316   5.814 131.616  0.00  0.00    +0.014 C 
ATOM     12  C   LIG A   1      -6.953   6.504 131.930  0.00  0.00    +0.014 C 
ATOM     13  C   LIG A   1      -7.980   4.877 133.543  0.00  0.00    +0.121 C 
ATOM     14  C   LIG A   1      -8.827   3.628 133.767  0.00  0.00    +0.032 C 
ATOM     15  C   LIG A   1      -8.821   2.632 132.610  0.00  0.00    +0.013 C 
ATOM     16  C   LIG A   1      -7.817   0.121 131.126  0.00  0.00    +0.032 C 
ATOM     17  C   LIG A   1      -8.399  -0.783 130.055  0.00  0.00    +0.012 C 
ATOM     18  C   LIG A   1      -7.535  -0.823 128.773  0.00  0.00    -0.020 C 
ATOM     19  C   LIG A   1      -6.207  -1.523 129.123  0.00  0.00    +0.012 C 
ATOM     20  C   LIG A   1      -8.415  -1.532 127.664  0.00  0.00    -0.001 C 
ATOM     21  C   LIG A   1      -8.408  -0.573 126.472  0.00  0.00    +0.005 C 
ATOM     22  C   LIG A   1      -8.372   0.799 127.135  0.00  0.00    +0.012 C 
ENDROOT
BRANCH  13  23
ATOM     23  O   LIG A   1      -8.495   5.928 134.363  0.00  0.00    -0.391 OA
ATOM     24  H   LIG A   1      -8.033   6.748 134.114  0.00  0.00    +0.210 HD
ENDBRANCH  13  23
BRANCH  20  25
ATOM     25  C   LIG A   1      -8.242  -3.026 127.273  0.00  0.00    -0.010 C 
ATOM     26  C   LIG A   1      -8.553  -4.040 128.377  0.00  0.00    +0.008 C 
BRANCH  25  27
ATOM     27  C   LIG A   1      -8.993  -3.349 125.960  0.00  0.00    +0.007 C 
BRANCH  27  28
ATOM     28  C   LIG A   1      -8.138  -4.085 124.923  0.00  0.00    +0.027 C 
BRANCH  28  29
ATOM     29  C   LIG A   1      -7.726  -3.162 123.811  0.00  0.00    -0.028 C 
ATOM     30  C   LIG A   1      -6.609  -2.405 123.761  0.00  0.00    -0.080 C 
ATOM     31  C   LIG A   1      -5.547  -2.374 124.825  0.00  0.00    +0.038 C 
ATOM     32  C   LIG A   1      -6.324  -1.520 122.573  0.00  0.00    +0.038 C 
ENDBRANCH  28  29
ENDBRANCH  27  28
ENDBRANCH  25  27
ENDBRANCH  20  25
TORSDOF 5
ENDMDL
MODEL 4
REMARK VINA RESULT:      -7.8      4.314      8.342
REMARK  Name = NuBBE_1234
REMARK  13 active torsions:
REMARK  status: ('A' for Active; 'I' for Inactive)
REMARK    1  A    between atoms: C_1  and  C_2
REMARK    2  A    between atoms: C_5  and  C_6
REMARK    3  A    between atoms: C_11  and  C_12
REMARK    4  A    between atoms: C_11  and  C_13
REMARK    5  A    between atoms: C_14  and  O_18
REMARK    6  A    between atoms: C_21  and  C_22
REMARK    7  A    between atoms: C_23  and  C_27
REMARK    8  A    between atoms: C_27  and  C_29
REMARK    9  A    between atoms: C_27  and  C_35
REMARK   10  A    between atoms: C_29  and  C_30
REMARK   11  A    between atoms: C_30  and  C_31
REMARK   12  A    between atoms: C_32  and  C_33
REMARK   13  A    between atoms: C_32  and  C_34
REMARK                            x       y       z     vdW  Elec       q    Type
REMARK                         _______ _______ _______ _____ _____    ______ ____
ROOT
ATOM      1  C   LIG A   1      -9.957   1.441 131.873  0.00  0.00    +0.016 C 
ATOM      2  C   LIG A   1      -8.562   1.850 131.316  0.00  0.00    -0.005 C 
ATOM      3  C   LIG A   1      -7.632   0.617 131.449  0.00  0.00    -0.063 C 
ATOM      4  C   LIG A   1      -6.478   0.609 132.164  0.00  0.00    -0.064 C 
ATOM      5  C   LIG A   1      -5.645  -0.680 132.453  0.00  0.00    -0.007 C 
ATOM      6  C   LIG A   1      -5.757  -0.882 133.991  0.00  0.00    +0.016 C 
ATOM      7  C   LIG A   1      -6.194  -1.974 131.725  0.00  0.00    +0.007 C 
ATOM      8  C   LIG A   1      -6.990  -1.608 130.463  0.00  0.00    +0.009 C 
ATOM      9  C   LIG A   1      -8.119  -0.644 130.776  0.00  0.00    +0.031 C 
ATOM     10  C   LIG A   1      -5.121  -3.112 131.418  0.00  0.00    -0.005 C 
ATOM     11  C   LIG A   1      -4.592  -3.092 129.959  0.00  0.00    +0.014 C 
ATOM     12  C   LIG A   1      -5.806  -4.489 131.611  0.00  0.00    +0.014 C 
ATOM     13  C   LIG A   1      -3.926  -3.019 132.393  0.00  0.00    +0.121 C 
ATOM     14  C   LIG A   1      -3.241  -1.657 132.358  0.00  0.00    +0.032 C 
ATOM     15  C   LIG A   1      -4.164  -0.481 132.047  0.00  0.00    +0.013 C 
ATOM     16  C   LIG A   1      -5.984   1.887 132.816  0.00  0.00    +0.032 C 
ATOM     17  C   LIG A   1      -6.473   3.128 132.095  0.00  0.00    +0.012 C 
ATOM     18  C   LIG A   1      -8.015   3.190 131.990  0.00  0.00    -0.020 C 
ATOM     19  C   LIG A   1      -8.575   3.382 133.413  0.00  0.00    +0.012 C 
ATOM     20  C   LIG A   1      -8.346   4.345 130.958  0.00  0.00    -0.001 C 
ATOM     21  C   LIG A   1      -9.271   3.704 129.921  0.00  0.00    +0.005 C 
ATOM     22  C   LIG A   1      -8.756   2.272 129.839  0.00  0.00    +0.012 C 
ENDROOT
BRANCH  13  23
ATOM     23  O   LIG A   1      -2.950  -4.027 132.118  0.00  0.00    -0.391 OA
ATOM     24  H   LIG A   1      -2.899  -4.129 131.151  0.00  0.00    +0.210 HD
ENDBRANCH  13  23
BRANCH  20  25
ATOM     25  C   LIG A   1      -8.779   5.772 131.395  0.00  0.00    -0.010 C 
ATOM     26  C   LIG A   1      -7.747   6.878 131.161  0.00  0.00    +0.008 C 
BRANCH  25  27
ATOM     27  C   LIG A   1     -10.163   6.137 130.810  0.00  0.00    +0.007 C 
BRANCH  27  28
ATOM     28  C   LIG A   1     -10.120   7.271 129.779  0.00  0.00    +0.027 C 
BRANCH  28  29
ATOM     29  C   LIG A   1     -11.263   7.161 128.809  0.00  0.00    -0.028 C 
ATOM     30  C   LIG A   1     -12.406   7.879 128.820  0.00  0.00    -0.080 C 
ATOM     31  C   LIG A   1     -12.728   8.958 129.816  0.00  0.00    +0.038 C 
ATOM     32  C   LIG A   1     -13.472   7.659 127.775  0.00  0.00    +0.038 C 
ENDBRANCH  28  29
ENDBRANCH  27  28
ENDBRANCH  25  27
ENDBRANCH  20  25
TORSDOF 5
ENDMDL
MODEL 5
REMARK VINA RESULT:      -7.7      1.702      2.906
REMARK  Name = NuBBE_1234
REMARK  13 active torsions:
REMARK  status: ('A' for Active; 'I' for Inactive)
REMARK    1  A    between atoms: C_1  and  C_2
REMARK    2  A    between atoms: C_5  and  C_6
REMARK    3  A    between atoms: C_11  and  C_12
REMARK    4  A    between atoms: C_11  and  C_13
REMARK    5  A    between atoms: C_14  and  O_18
REMARK    6  A    between atoms: C_21  and  C_22
REMARK    7  A    between atoms: C_23  and  C_27
REMARK    8  A    between atoms: C_27  and  C_29
REMARK    9  A    between atoms: C_27  and  C_35
REMARK   10  A    between atoms: C_29  and  C_30
REMARK   11  A    between atoms: C_30  and  C_31
REMARK   12  A    between atoms: C_32  and  C_33
REMARK   13  A    between atoms: C_32  and  C_34
REMARK                            x       y       z     vdW  Elec       q    Type
REMARK                         _______ _______ _______ _____ _____    ______ ____
ROOT
ATOM      1  C   LIG A   1      -7.870   1.215 128.203  0.00  0.00    +0.016 C 
ATOM      2  C   LIG A   1      -7.056   0.927 129.499  0.00  0.00    -0.005 C 
ATOM      3  C   LIG A   1      -6.318   2.235 129.881  0.00  0.00    -0.063 C 
ATOM      4  C   LIG A   1      -4.969   2.342 129.990  0.00  0.00    -0.064 C 
ATOM      5  C   LIG A   1      -4.220   3.698 130.187  0.00  0.00    -0.007 C 
ATOM      6  C   LIG A   1      -3.409   3.892 128.874  0.00  0.00    +0.016 C 
ATOM      7  C   LIG A   1      -5.183   4.940 130.381  0.00  0.00    +0.007 C 
ATOM      8  C   LIG A   1      -6.546   4.505 130.943  0.00  0.00    +0.009 C 
ATOM      9  C   LIG A   1      -7.196   3.449 130.070  0.00  0.00    +0.031 C 
ATOM     10  C   LIG A   1      -4.586   6.166 131.207  0.00  0.00    -0.005 C 
ATOM     11  C   LIG A   1      -5.029   6.190 132.695  0.00  0.00    +0.014 C 
ATOM     12  C   LIG A   1      -5.115   7.479 130.577  0.00  0.00    +0.014 C 
ATOM     13  C   LIG A   1      -3.042   6.177 131.136  0.00  0.00    +0.121 C 
ATOM     14  C   LIG A   1      -2.419   4.879 131.639  0.00  0.00    +0.032 C 
ATOM     15  C   LIG A   1      -3.262   3.627 131.401  0.00  0.00    +0.013 C 
ATOM     16  C   LIG A   1      -4.096   1.113 129.823  0.00  0.00    +0.032 C 
ATOM     17  C   LIG A   1      -4.830  -0.167 130.175  0.00  0.00    +0.012 C 
ATOM     18  C   LIG A   1      -6.124  -0.362 129.348  0.00  0.00    -0.020 C 
ATOM     19  C   LIG A   1      -5.712  -0.599 127.882  0.00  0.00    +0.012 C 
ATOM     20  C   LIG A   1      -6.922  -1.541 130.040  0.00  0.00    -0.001 C 
ATOM     21  C   LIG A   1      -8.324  -0.983 130.292  0.00  0.00    +0.005 C 
ATOM     22  C   LIG A   1      -8.060   0.488 130.592  0.00  0.00    +0.012 C 
ENDROOT
BRANCH  13  23
ATOM     23  O   LIG A   1      -2.494   7.264 131.886  0.00  0.00    -0.391 OA
ATOM     24  H   LIG A   1      -1.534   7.119 131.953  0.00  0.00    +0.210 HD
ENDBRANCH  13  23
BRANCH  20  25
ATOM     25  C   LIG A   1      -6.910  -3.000 129.504  0.00  0.00    -0.010 C 
ATOM     26  C   LIG A   1      -6.111  -4.005 130.337  0.00  0.00    +0.008 C 
BRANCH  25  27
ATOM     27  C   LIG A   1      -8.344  -3.498 129.211  0.00  0.00    +0.007 C 
BRANCH  27  28
ATOM     28  C   LIG A   1      -8.605  -3.799 127.731  0.00  0.00    +0.027 C 
BRANCH  28  29
ATOM     29  C   LIG A   1      -8.590  -2.537 126.913  0.00  0.00    -0.028 C 
ATOM     30  C   LIG A   1      -8.587  -2.447 125.566  0.00  0.00    -0.080 C 
ATOM     31  C   LIG A   1      -8.626  -3.621 124.630  0.00  0.00    +0.038 C 
ATOM     32  C   LIG A   1      -8.572  -1.104 124.879  0.00  0.00    +0.038 C 
ENDBRANCH  28  29
ENDBRANCH  27  28
ENDBRANCH  25  27
ENDBRANCH  20  25
TORSDOF 5
ENDMDL
MODEL 6
REMARK VINA RESULT:      -7.7      3.403      9.248
REMARK  Name = NuBBE_1234
REMARK  13 active torsions:
REMARK  status: ('A' for Active; 'I' for Inactive)
REMARK    1  A    between atoms: C_1  and  C_2
REMARK    2  A    between atoms: C_5  and  C_6
REMARK    3  A    between atoms: C_11  and  C_12
REMARK    4  A    between atoms: C_11  and  C_13
REMARK    5  A    between atoms: C_14  and  O_18
REMARK    6  A    between atoms: C_21  and  C_22
REMARK    7  A    between atoms: C_23  and  C_27
REMARK    8  A    between atoms: C_27  and  C_29
REMARK    9  A    between atoms: C_27  and  C_35
REMARK   10  A    between atoms: C_29  and  C_30
REMARK   11  A    between atoms: C_30  and  C_31
REMARK   12  A    between atoms: C_32  and  C_33
REMARK   13  A    between atoms: C_32  and  C_34
REMARK                            x       y       z     vdW  Elec       q    Type
REMARK                         _______ _______ _______ _____ _____    ______ ____
ROOT
ATOM      1  C   LIG A   1      -3.157   2.719 126.873  0.00  0.00    +0.016 C 
ATOM      2  C   LIG A   1      -4.579   2.680 127.503  0.00  0.00    -0.005 C 
ATOM      3  C   LIG A   1      -5.501   1.918 126.517  0.00  0.00    -0.063 C 
ATOM      4  C   LIG A   1      -6.615   2.451 125.953  0.00  0.00    -0.064 C 
ATOM      5  C   LIG A   1      -7.432   1.753 124.819  0.00  0.00    -0.007 C 
ATOM      6  C   LIG A   1      -7.237   2.668 123.576  0.00  0.00    +0.016 C 
ATOM      7  C   LIG A   1      -6.922   0.296 124.466  0.00  0.00    +0.007 C 
ATOM      8  C   LIG A   1      -6.195  -0.344 125.659  0.00  0.00    +0.009 C 
ATOM      9  C   LIG A   1      -5.051   0.526 126.145  0.00  0.00    +0.031 C 
ATOM     10  C   LIG A   1      -8.010  -0.697 123.856  0.00  0.00    -0.005 C 
ATOM     11  C   LIG A   1      -8.616  -1.673 124.900  0.00  0.00    +0.014 C 
ATOM     12  C   LIG A   1      -7.315  -1.581 122.789  0.00  0.00    +0.014 C 
ATOM     13  C   LIG A   1      -9.151   0.090 123.173  0.00  0.00    +0.121 C 
ATOM     14  C   LIG A   1      -9.837   1.072 124.116  0.00  0.00    +0.032 C 
ATOM     15  C   LIG A   1      -8.932   1.670 125.191  0.00  0.00    +0.013 C 
ATOM     16  C   LIG A   1      -7.074   3.841 126.350  0.00  0.00    +0.032 C 
ATOM     17  C   LIG A   1      -6.624   4.218 127.749  0.00  0.00    +0.012 C 
ATOM     18  C   LIG A   1      -5.090   4.133 127.927  0.00  0.00    -0.020 C 
ATOM     19  C   LIG A   1      -4.454   5.236 127.058  0.00  0.00    +0.012 C 
ATOM     20  C   LIG A   1      -4.815   4.238 129.482  0.00  0.00    -0.001 C 
ATOM     21  C   LIG A   1      -3.946   3.024 129.820  0.00  0.00    +0.005 C 
ATOM     22  C   LIG A   1      -4.465   1.955 128.866  0.00  0.00    +0.012 C 
ENDROOT
BRANCH  13  23
ATOM     23  O   LIG A   1     -10.141  -0.790 122.635  0.00  0.00    -0.391 OA
ATOM     24  H   LIG A   1      -9.937  -1.688 122.951  0.00  0.00    +0.210 HD
ENDBRANCH  13  23
BRANCH  20  25
ATOM     25  C   LIG A   1      -4.359   5.552 130.174  0.00  0.00    -0.010 C 
ATOM     26  C   LIG A   1      -5.415   6.247 131.038  0.00  0.00    +0.008 C 
BRANCH  25  27
ATOM     27  C   LIG A   1      -3.028   5.349 130.937  0.00  0.00    +0.007 C 
BRANCH  27  28
ATOM     28  C   LIG A   1      -1.912   6.304 130.499  0.00  0.00    +0.027 C 
BRANCH  28  29
ATOM     29  C   LIG A   1      -0.933   6.536 131.616  0.00  0.00    -0.028 C 
ATOM     30  C   LIG A   1      -1.022   7.469 132.588  0.00  0.00    -0.080 C 
ATOM     31  C   LIG A   1      -2.157   8.443 132.738  0.00  0.00    +0.038 C 
ATOM     32  C   LIG A   1       0.042   7.586 133.651  0.00  0.00    +0.038 C 
ENDBRANCH  28  29
ENDBRANCH  27  28
ENDBRANCH  25  27
ENDBRANCH  20  25
TORSDOF 5
ENDMDL
MODEL 7
REMARK VINA RESULT:      -7.7      3.018      8.465
REMARK  Name = NuBBE_1234
REMARK  13 active torsions:
REMARK  status: ('A' for Active; 'I' for Inactive)
REMARK    1  A    between atoms: C_1  and  C_2
REMARK    2  A    between atoms: C_5  and  C_6
REMARK    3  A    between atoms: C_11  and  C_12
REMARK    4  A    between atoms: C_11  and  C_13
REMARK    5  A    between atoms: C_14  and  O_18
REMARK    6  A    between atoms: C_21  and  C_22
REMARK    7  A    between atoms: C_23  and  C_27
REMARK    8  A    between atoms: C_27  and  C_29
REMARK    9  A    between atoms: C_27  and  C_35
REMARK   10  A    between atoms: C_29  and  C_30
REMARK   11  A    between atoms: C_30  and  C_31
REMARK   12  A    between atoms: C_32  and  C_33
REMARK   13  A    between atoms: C_32  and  C_34
REMARK                            x       y       z     vdW  Elec       q    Type
REMARK                         _______ _______ _______ _____ _____    ______ ____
ROOT
ATOM      1  C   LIG A   1      -6.212   0.158 130.738  0.00  0.00    +0.016 C 
ATOM      2  C   LIG A   1      -7.635   0.365 130.141  0.00  0.00    -0.005 C 
ATOM      3  C   LIG A   1      -7.621  -0.217 128.704  0.00  0.00    -0.063 C 
ATOM      4  C   LIG A   1      -7.897   0.506 127.589  0.00  0.00    -0.064 C 
ATOM      5  C   LIG A   1      -7.697  -0.029 126.136  0.00  0.00    -0.007 C 
ATOM      6  C   LIG A   1      -6.553   0.845 125.549  0.00  0.00    +0.016 C 
ATOM      7  C   LIG A   1      -7.264  -1.551 126.068  0.00  0.00    +0.007 C 
ATOM      8  C   LIG A   1      -7.722  -2.316 127.320  0.00  0.00    +0.009 C 
ATOM      9  C   LIG A   1      -7.208  -1.664 128.589  0.00  0.00    +0.031 C 
ATOM     10  C   LIG A   1      -7.665  -2.334 124.738  0.00  0.00    -0.005 C 
ATOM     11  C   LIG A   1      -8.948  -3.195 124.885  0.00  0.00    +0.014 C 
ATOM     12  C   LIG A   1      -6.519  -3.319 124.392  0.00  0.00    +0.014 C 
ATOM     13  C   LIG A   1      -7.842  -1.355 123.556  0.00  0.00    +0.121 C 
ATOM     14  C   LIG A   1      -8.880  -0.273 123.837  0.00  0.00    +0.032 C 
ATOM     15  C   LIG A   1      -8.989   0.149 125.300  0.00  0.00    +0.013 C 
ATOM     16  C   LIG A   1      -8.335   1.953 127.715  0.00  0.00    +0.032 C 
ATOM     17  C   LIG A   1      -9.012   2.237 129.042  0.00  0.00    +0.012 C 
ATOM     18  C   LIG A   1      -8.120   1.882 130.256  0.00  0.00    -0.020 C 
ATOM     19  C   LIG A   1      -6.931   2.862 130.266  0.00  0.00    +0.012 C 
ATOM     20  C   LIG A   1      -9.060   1.927 131.529  0.00  0.00    -0.001 C 
ATOM     21  C   LIG A   1      -8.863   0.578 132.222  0.00  0.00    +0.005 C 
ATOM     22  C   LIG A   1      -8.638  -0.378 131.057  0.00  0.00    +0.012 C 
ENDROOT
BRANCH  13  23
ATOM     23  O   LIG A   1      -8.216  -2.044 122.361  0.00  0.00    -0.391 OA
ATOM     24  H   LIG A   1      -8.368  -1.374 121.671  0.00  0.00    +0.210 HD
ENDBRANCH  13  23
BRANCH  20  25
ATOM     25  C   LIG A   1      -9.108   3.137 132.503  0.00  0.00    -0.010 C 
ATOM     26  C   LIG A   1      -7.973   3.208 133.528  0.00  0.00    +0.008 C 
BRANCH  25  27
ATOM     27  C   LIG A   1      -9.278   4.467 131.732  0.00  0.00    +0.007 C 
BRANCH  27  28
ATOM     28  C   LIG A   1      -8.646   5.674 132.434  0.00  0.00    +0.027 C 
BRANCH  28  29
ATOM     29  C   LIG A   1      -7.661   6.366 131.534  0.00  0.00    -0.028 C 
ATOM     30  C   LIG A   1      -6.327   6.462 131.717  0.00  0.00    -0.080 C 
ATOM     31  C   LIG A   1      -5.575   5.857 132.869  0.00  0.00    +0.038 C 
ATOM     32  C   LIG A   1      -5.458   7.192 130.722  0.00  0.00    +0.038 C 
ENDBRANCH  28  29
ENDBRANCH  27  28
ENDBRANCH  25  27
ENDBRANCH  20  25
TORSDOF 5
ENDMDL
MODEL 8
REMARK VINA RESULT:      -7.7      4.171      8.407
REMARK  Name = NuBBE_1234
REMARK  13 active torsions:
REMARK  status: ('A' for Active; 'I' for Inactive)
REMARK    1  A    between atoms: C_1  and  C_2
REMARK    2  A    between atoms: C_5  and  C_6
REMARK    3  A    between atoms: C_11  and  C_12
REMARK    4  A    between atoms: C_11  and  C_13
REMARK    5  A    between atoms: C_14  and  O_18
REMARK    6  A    between atoms: C_21  and  C_22
REMARK    7  A    between atoms: C_23  and  C_27
REMARK    8  A    between atoms: C_27  and  C_29
REMARK    9  A    between atoms: C_27  and  C_35
REMARK   10  A    between atoms: C_29  and  C_30
REMARK   11  A    between atoms: C_30  and  C_31
REMARK   12  A    between atoms: C_32  and  C_33
REMARK   13  A    between atoms: C_32  and  C_34
REMARK                            x       y       z     vdW  Elec       q    Type
REMARK                         _______ _______ _______ _____ _____    ______ ____
ROOT
ATOM      1  C   LIG A   1      -4.110  -1.218 130.400  0.00  0.00    +0.016 C 
ATOM      2  C   LIG A   1      -5.042  -2.455 130.241  0.00  0.00    -0.005 C 
ATOM      3  C   LIG A   1      -5.735  -2.337 128.859  0.00  0.00    -0.063 C 
ATOM      4  C   LIG A   1      -7.080  -2.277 128.686  0.00  0.00    -0.064 C 
ATOM      5  C   LIG A   1      -7.766  -1.967 127.318  0.00  0.00    -0.007 C 
ATOM      6  C   LIG A   1      -8.454  -0.588 127.528  0.00  0.00    +0.016 C 
ATOM      7  C   LIG A   1      -6.754  -1.855 126.105  0.00  0.00    +0.007 C 
ATOM      8  C   LIG A   1      -5.468  -2.652 126.376  0.00  0.00    +0.009 C 
ATOM      9  C   LIG A   1      -4.809  -2.220 127.672  0.00  0.00    +0.031 C 
ATOM     10  C   LIG A   1      -7.348  -2.195 124.665  0.00  0.00    -0.005 C 
ATOM     11  C   LIG A   1      -7.027  -3.635 124.184  0.00  0.00    +0.014 C 
ATOM     12  C   LIG A   1      -6.695  -1.239 123.634  0.00  0.00    +0.014 C 
ATOM     13  C   LIG A   1      -8.877  -1.977 124.635  0.00  0.00    +0.121 C 
ATOM     14  C   LIG A   1      -9.611  -2.799 125.690  0.00  0.00    +0.032 C 
ATOM     15  C   LIG A   1      -8.822  -3.045 126.975  0.00  0.00    +0.013 C 
ATOM     16  C   LIG A   1      -8.004  -2.420 129.881  0.00  0.00    +0.032 C 
ATOM     17  C   LIG A   1      -7.374  -3.223 131.003  0.00  0.00    +0.012 C 
ATOM     18  C   LIG A   1      -6.030  -2.626 131.484  0.00  0.00    -0.020 C 
ATOM     19  C   LIG A   1      -6.332  -1.276 132.162  0.00  0.00    +0.012 C 
ATOM     20  C   LIG A   1      -5.358  -3.725 132.406  0.00  0.00    -0.001 C 
ATOM     21  C   LIG A   1      -3.952  -3.923 131.835  0.00  0.00    +0.005 C 
ATOM     22  C   LIG A   1      -4.157  -3.721 130.338  0.00  0.00    +0.012 C 
ENDROOT
BRANCH  13  23
ATOM     23  O   LIG A   1      -9.423  -2.293 123.352  0.00  0.00    -0.391 OA
ATOM     24  H   LIG A   1      -9.523  -1.457 122.863  0.00  0.00    +0.210 HD
ENDBRANCH  13  23
BRANCH  20  25
ATOM     25  C   LIG A   1      -5.408  -3.673 133.958  0.00  0.00    -0.010 C 
ATOM     26  C   LIG A   1      -6.449  -4.581 134.618  0.00  0.00    +0.008 C 
BRANCH  25  27
ATOM     27  C   LIG A   1      -4.000  -3.865 134.568  0.00  0.00    +0.007 C 
BRANCH  27  28
ATOM     28  C   LIG A   1      -3.581  -2.743 135.525  0.00  0.00    +0.027 C 
BRANCH  28  29
ATOM     29  C   LIG A   1      -3.808  -1.393 134.904  0.00  0.00    -0.028 C 
ATOM     30  C   LIG A   1      -2.966  -0.728 134.085  0.00  0.00    -0.080 C 
ATOM     31  C   LIG A   1      -1.635  -1.248 133.621  0.00  0.00    +0.038 C 
ATOM     32  C   LIG A   1      -3.331   0.629 133.534  0.00  0.00    +0.038 C 
ENDBRANCH  28  29
ENDBRANCH  27  28
ENDBRANCH  25  27
ENDBRANCH  20  25
TORSDOF 5
ENDMDL
MODEL 9
REMARK VINA RESULT:      -7.7      2.824      8.488
REMARK  Name = NuBBE_1234
REMARK  13 active torsions:
REMARK  status: ('A' for Active; 'I' for Inactive)
REMARK    1  A    between atoms: C_1  and  C_2
REMARK    2  A    between atoms: C_5  and  C_6
REMARK    3  A    between atoms: C_11  and  C_12
REMARK    4  A    between atoms: C_11  and  C_13
REMARK    5  A    between atoms: C_14  and  O_18
REMARK    6  A    between atoms: C_21  and  C_22
REMARK    7  A    between atoms: C_23  and  C_27
REMARK    8  A    between atoms: C_27  and  C_29
REMARK    9  A    between atoms: C_27  and  C_35
REMARK   10  A    between atoms: C_29  and  C_30
REMARK   11  A    between atoms: C_30  and  C_31
REMARK   12  A    between atoms: C_32  and  C_33
REMARK   13  A    between atoms: C_32  and  C_34
REMARK                            x       y       z     vdW  Elec       q    Type
REMARK                         _______ _______ _______ _____ _____    ______ ____
ROOT
ATOM      1  C   LIG A   1      -5.458   3.844 127.516  0.00  0.00    +0.016 C 
ATOM      2  C   LIG A   1      -5.602   2.550 128.370  0.00  0.00    -0.005 C 
ATOM      3  C   LIG A   1      -6.027   1.408 127.412  0.00  0.00    -0.063 C 
ATOM      4  C   LIG A   1      -7.170   0.690 127.546  0.00  0.00    -0.064 C 
ATOM      5  C   LIG A   1      -7.688  -0.325 126.477  0.00  0.00    -0.007 C 
ATOM      6  C   LIG A   1      -9.000   0.312 125.935  0.00  0.00    +0.016 C 
ATOM      7  C   LIG A   1      -6.690  -0.546 125.268  0.00  0.00    +0.007 C 
ATOM      8  C   LIG A   1      -5.241  -0.238 125.678  0.00  0.00    +0.009 C 
ATOM      9  C   LIG A   1      -5.108   1.165 126.239  0.00  0.00    +0.031 C 
ATOM     10  C   LIG A   1      -6.790  -1.954 124.527  0.00  0.00    -0.005 C 
ATOM     11  C   LIG A   1      -5.716  -2.977 124.985  0.00  0.00    +0.014 C 
ATOM     12  C   LIG A   1      -6.551  -1.724 123.013  0.00  0.00    +0.014 C 
ATOM     13  C   LIG A   1      -8.194  -2.574 124.712  0.00  0.00    +0.121 C 
ATOM     14  C   LIG A   1      -8.574  -2.748 126.179  0.00  0.00    +0.032 C 
ATOM     15  C   LIG A   1      -7.988  -1.699 127.122  0.00  0.00    +0.013 C 
ATOM     16  C   LIG A   1      -8.076   0.924 128.740  0.00  0.00    +0.032 C 
ATOM     17  C   LIG A   1      -7.318   1.457 129.941  0.00  0.00    +0.012 C 
ATOM     18  C   LIG A   1      -6.555   2.768 129.634  0.00  0.00    -0.020 C 
ATOM     19  C   LIG A   1      -7.600   3.870 129.376  0.00  0.00    +0.012 C 
ATOM     20  C   LIG A   1      -5.580   3.014 130.857  0.00  0.00    -0.001 C 
ATOM     21  C   LIG A   1      -4.195   3.204 130.236  0.00  0.00    +0.005 C 
ATOM     22  C   LIG A   1      -4.229   2.272 129.029  0.00  0.00    +0.012 C 
ENDROOT
BRANCH  13  23
ATOM     23  O   LIG A   1      -8.292  -3.844 124.064  0.00  0.00    -0.391 OA
ATOM     24  H   LIG A   1      -9.090  -3.829 123.507  0.00  0.00    +0.210 HD
ENDBRANCH  13  23
BRANCH  20  25
ATOM     25  C   LIG A   1      -5.899   4.012 132.005  0.00  0.00    -0.010 C 
ATOM     26  C   LIG A   1      -5.613   3.507 133.421  0.00  0.00    +0.008 C 
BRANCH  25  27
ATOM     27  C   LIG A   1      -5.253   5.392 131.739  0.00  0.00    +0.007 C 
BRANCH  27  28
ATOM     28  C   LIG A   1      -6.261   6.544 131.668  0.00  0.00    +0.027 C 
BRANCH  28  29
ATOM     29  C   LIG A   1      -7.588   6.136 132.245  0.00  0.00    -0.028 C 
ATOM     30  C   LIG A   1      -8.808   6.389 131.724  0.00  0.00    -0.080 C 
ATOM     31  C   LIG A   1      -9.053   7.119 130.434  0.00  0.00    +0.038 C 
ATOM     32  C   LIG A   1     -10.061   5.914 132.418  0.00  0.00    +0.038 C 
ENDBRANCH  28  29
ENDBRANCH  27  28
ENDBRANCH  25  27
ENDBRANCH  20  25
TORSDOF 5
ENDMDL
