MODEL 1
REMARK VINA RESULT:      -5.6      0.000      0.000
REMARK  Name = NuBBE_1153
REMARK  12 active torsions:
REMARK  status: ('A' for Active; 'I' for Inactive)
REMARK    1  A    between atoms: C_2  and  O_3
REMARK    2  A    between atoms: C_2  and  C_5
REMARK    3  A    between atoms: O_3  and  C_4
REMARK    4  A    between atoms: C_5  and  C_6
REMARK    5  A    between atoms: C_6  and  C_7
REMARK    6  A    between atoms: C_7  and  C_8
REMARK    7  A    between atoms: C_8  and  C_9
REMARK    8  A    between atoms: C_9  and  C_10
REMARK    9  A    between atoms: C_10  and  C_11
REMARK   10  A    between atoms: C_11  and  C_12
REMARK   11  A    between atoms: C_12  and  C_13
REMARK   12  A    between atoms: C_13  and  C_14
REMARK                            x       y       z     vdW  Elec       q    Type
REMARK                         _______ _______ _______ _____ _____    ______ ____
ROOT
ATOM      1  C   LIG A   1      -7.930  -2.608 127.842  0.00  0.00    +0.000 C 
ENDROOT
BRANCH   1   2
ATOM      2  C   LIG A   1      -7.677  -1.278 127.128  0.00  0.00    -0.000 C 
BRANCH   2   3
ATOM      3  C   LIG A   1      -6.203  -1.116 126.737  0.00  0.00    +0.000 C 
BRANCH   3   4
ATOM      4  C   LIG A   1      -6.005   0.078 125.797  0.00  0.00    +0.000 C 
BRANCH   4   5
ATOM      5  C   LIG A   1      -7.327   0.767 125.450  0.00  0.00    +0.011 C 
BRANCH   5   6
ATOM      6  C   LIG A   1      -7.144   1.841 124.372  0.00  0.00    +0.120 C 
BRANCH   6   8
ATOM      7  O   LIG A   1      -8.928   3.386 124.922  0.00  0.00    -0.251 OA
ATOM      8  C   LIG A   1      -8.428   2.598 124.128  0.00  0.00    +0.307 C 
BRANCH   8   9
ATOM      9  O   LIG A   1      -8.951   2.263 122.920  0.00  0.00    -0.468 OA
ATOM     10  C   LIG A   1      -8.670   3.150 121.832  0.00  0.00    +0.280 C 
ENDBRANCH   8   9
ENDBRANCH   6   8
ENDBRANCH   5   6
ENDBRANCH   4   5
ENDBRANCH   3   4
ENDBRANCH   2   3
ENDBRANCH   1   2
BRANCH   1  11
ATOM     11  C   LIG A   1      -8.930  -3.482 127.076  0.00  0.00    +0.000 C 
BRANCH  11  12
ATOM     12  C   LIG A   1      -9.536  -2.793 125.845  0.00  0.00    +0.005 C 
BRANCH  12  13
ATOM     13  C   LIG A   1      -9.213  -3.512 124.530  0.00  0.00    +0.035 C 
BRANCH  13  14
ATOM     14  C   LIG A   1      -7.851  -3.156 123.985  0.00  0.00    -0.047 A 
ATOM     15  C   LIG A   1      -7.703  -2.088 123.087  0.00  0.00    +0.003 A 
ATOM     16  C   LIG A   1      -6.441  -1.747 122.593  0.00  0.00    +0.000 A 
ATOM     17  C   LIG A   1      -5.319  -2.471 122.988  0.00  0.00    +0.000 A 
ATOM     18  C   LIG A   1      -5.456  -3.536 123.878  0.00  0.00    +0.000 A 
ATOM     19  C   LIG A   1      -6.717  -3.879 124.372  0.00  0.00    +0.003 A 
ENDBRANCH  13  14
ENDBRANCH  12  13
ENDBRANCH  11  12
ENDBRANCH   1  11
TORSDOF 11
ENDMDL
MODEL 2
REMARK VINA RESULT:      -5.0      2.093      4.357
REMARK  Name = NuBBE_1153
REMARK  12 active torsions:
REMARK  status: ('A' for Active; 'I' for Inactive)
REMARK    1  A    between atoms: C_2  and  O_3
REMARK    2  A    between atoms: C_2  and  C_5
REMARK    3  A    between atoms: O_3  and  C_4
REMARK    4  A    between atoms: C_5  and  C_6
REMARK    5  A    between atoms: C_6  and  C_7
REMARK    6  A    between atoms: C_7  and  C_8
REMARK    7  A    between atoms: C_8  and  C_9
REMARK    8  A    between atoms: C_9  and  C_10
REMARK    9  A    between atoms: C_10  and  C_11
REMARK   10  A    between atoms: C_11  and  C_12
REMARK   11  A    between atoms: C_12  and  C_13
REMARK   12  A    between atoms: C_13  and  C_14
REMARK                            x       y       z     vdW  Elec       q    Type
REMARK                         _______ _______ _______ _____ _____    ______ ____
ROOT
ATOM      1  C   LIG A   1      -8.485  -3.661 125.235  0.00  0.00    +0.000 C 
ENDROOT
BRANCH   1   2
ATOM      2  C   LIG A   1      -9.325  -3.296 124.008  0.00  0.00    -0.000 C 
BRANCH   2   3
ATOM      3  C   LIG A   1      -8.504  -2.518 122.972  0.00  0.00    +0.000 C 
BRANCH   3   4
ATOM      4  C   LIG A   1      -7.054  -2.337 123.434  0.00  0.00    +0.000 C 
BRANCH   4   5
ATOM      5  C   LIG A   1      -6.652  -0.863 123.520  0.00  0.00    +0.011 C 
BRANCH   5   6
ATOM      6  C   LIG A   1      -6.893  -0.287 124.920  0.00  0.00    +0.120 C 
BRANCH   6   8
ATOM      7  O   LIG A   1      -9.158   0.301 125.547  0.00  0.00    -0.251 OA
ATOM      8  C   LIG A   1      -8.126   0.583 124.950  0.00  0.00    +0.307 C 
BRANCH   8   9
ATOM      9  O   LIG A   1      -7.931   1.704 124.206  0.00  0.00    -0.468 OA
ATOM     10  C   LIG A   1      -8.770   2.825 124.504  0.00  0.00    +0.280 C 
ENDBRANCH   8   9
ENDBRANCH   6   8
ENDBRANCH   5   6
ENDBRANCH   4   5
ENDBRANCH   3   4
ENDBRANCH   2   3
ENDBRANCH   1   2
BRANCH   1  11
ATOM     11  C   LIG A   1      -9.043  -3.026 126.514  0.00  0.00    +0.000 C 
BRANCH  11  12
ATOM     12  C   LIG A   1      -8.894  -3.914 127.759  0.00  0.00    +0.005 C 
BRANCH  12  13
ATOM     13  C   LIG A   1      -8.399  -3.147 128.991  0.00  0.00    +0.035 C 
BRANCH  13  14
ATOM     14  C   LIG A   1      -6.905  -3.244 129.182  0.00  0.00    -0.047 A 
ATOM     15  C   LIG A   1      -6.366  -4.117 130.139  0.00  0.00    +0.003 A 
ATOM     16  C   LIG A   1      -4.983  -4.219 130.307  0.00  0.00    +0.000 A 
ATOM     17  C   LIG A   1      -4.127  -3.448 129.523  0.00  0.00    +0.000 A 
ATOM     18  C   LIG A   1      -4.652  -2.576 128.571  0.00  0.00    +0.000 A 
ATOM     19  C   LIG A   1      -6.035  -2.471 128.403  0.00  0.00    +0.003 A 
ENDBRANCH  13  14
ENDBRANCH  12  13
ENDBRANCH  11  12
ENDBRANCH   1  11
TORSDOF 11
ENDMDL
MODEL 3
REMARK VINA RESULT:      -5.0      2.516      4.805
REMARK  Name = NuBBE_1153
REMARK  12 active torsions:
REMARK  status: ('A' for Active; 'I' for Inactive)
REMARK    1  A    between atoms: C_2  and  O_3
REMARK    2  A    between atoms: C_2  and  C_5
REMARK    3  A    between atoms: O_3  and  C_4
REMARK    4  A    between atoms: C_5  and  C_6
REMARK    5  A    between atoms: C_6  and  C_7
REMARK    6  A    between atoms: C_7  and  C_8
REMARK    7  A    between atoms: C_8  and  C_9
REMARK    8  A    between atoms: C_9  and  C_10
REMARK    9  A    between atoms: C_10  and  C_11
REMARK   10  A    between atoms: C_11  and  C_12
REMARK   11  A    between atoms: C_12  and  C_13
REMARK   12  A    between atoms: C_13  and  C_14
REMARK                            x       y       z     vdW  Elec       q    Type
REMARK                         _______ _______ _______ _____ _____    ______ ____
ROOT
ATOM      1  C   LIG A   1      -9.168  -3.192 126.569  0.00  0.00    +0.000 C 
ENDROOT
BRANCH   1   2
ATOM      2  C   LIG A   1      -7.949  -3.300 125.648  0.00  0.00    -0.000 C 
BRANCH   2   3
ATOM      3  C   LIG A   1      -8.333  -3.836 124.263  0.00  0.00    +0.000 C 
BRANCH   3   4
ATOM      4  C   LIG A   1      -9.290  -2.880 123.543  0.00  0.00    +0.000 C 
BRANCH   4   5
ATOM      5  C   LIG A   1      -8.551  -1.894 122.636  0.00  0.00    +0.011 C 
BRANCH   5   6
ATOM      6  C   LIG A   1      -8.490  -0.491 123.249  0.00  0.00    +0.120 C 
BRANCH   6   8
ATOM      7  O   LIG A   1     -10.597   0.320 122.369  0.00  0.00    -0.251 OA
ATOM      8  C   LIG A   1      -9.863   0.132 123.332  0.00  0.00    +0.307 C 
BRANCH   8   9
ATOM      9  O   LIG A   1     -10.151   0.468 124.617  0.00  0.00    -0.468 OA
ATOM     10  C   LIG A   1      -9.044   0.551 125.521  0.00  0.00    +0.280 C 
ENDBRANCH   8   9
ENDBRANCH   6   8
ENDBRANCH   5   6
ENDBRANCH   4   5
ENDBRANCH   3   4
ENDBRANCH   2   3
ENDBRANCH   1   2
BRANCH   1  11
ATOM     11  C   LIG A   1      -9.048  -4.124 127.780  0.00  0.00    +0.000 C 
BRANCH  11  12
ATOM     12  C   LIG A   1      -8.802  -3.386 129.105  0.00  0.00    +0.005 C 
BRANCH  12  13
ATOM     13  C   LIG A   1      -7.694  -2.331 129.010  0.00  0.00    +0.035 C 
BRANCH  13  14
ATOM     14  C   LIG A   1      -6.331  -2.877 129.358  0.00  0.00    -0.047 A 
ATOM     15  C   LIG A   1      -6.200  -3.922 130.285  0.00  0.00    +0.003 A 
ATOM     16  C   LIG A   1      -4.940  -4.439 130.598  0.00  0.00    +0.000 A 
ATOM     17  C   LIG A   1      -3.801  -3.915 129.990  0.00  0.00    +0.000 A 
ATOM     18  C   LIG A   1      -3.920  -2.876 129.069  0.00  0.00    +0.000 A 
ATOM     19  C   LIG A   1      -5.179  -2.356 128.757  0.00  0.00    +0.003 A 
ENDBRANCH  13  14
ENDBRANCH  12  13
ENDBRANCH  11  12
ENDBRANCH   1  11
TORSDOF 11
ENDMDL
MODEL 4
REMARK VINA RESULT:      -5.0      1.550      3.162
REMARK  Name = NuBBE_1153
REMARK  12 active torsions:
REMARK  status: ('A' for Active; 'I' for Inactive)
REMARK    1  A    between atoms: C_2  and  O_3
REMARK    2  A    between atoms: C_2  and  C_5
REMARK    3  A    between atoms: O_3  and  C_4
REMARK    4  A    between atoms: C_5  and  C_6
REMARK    5  A    between atoms: C_6  and  C_7
REMARK    6  A    between atoms: C_7  and  C_8
REMARK    7  A    between atoms: C_8  and  C_9
REMARK    8  A    between atoms: C_9  and  C_10
REMARK    9  A    between atoms: C_10  and  C_11
REMARK   10  A    between atoms: C_11  and  C_12
REMARK   11  A    between atoms: C_12  and  C_13
REMARK   12  A    between atoms: C_13  and  C_14
REMARK                            x       y       z     vdW  Elec       q    Type
REMARK                         _______ _______ _______ _____ _____    ______ ____
ROOT
ATOM      1  C   LIG A   1      -6.194   1.040 127.170  0.00  0.00    +0.000 C 
ENDROOT
BRANCH   1   2
ATOM      2  C   LIG A   1      -7.484   0.276 127.480  0.00  0.00    -0.000 C 
BRANCH   2   3
ATOM      3  C   LIG A   1      -8.725   1.048 127.013  0.00  0.00    +0.000 C 
BRANCH   3   4
ATOM      4  C   LIG A   1      -9.404   0.344 125.833  0.00  0.00    +0.000 C 
BRANCH   4   5
ATOM      5  C   LIG A   1      -8.795   0.748 124.488  0.00  0.00    +0.011 C 
BRANCH   5   6
ATOM      6  C   LIG A   1      -9.391   2.058 123.963  0.00  0.00    +0.120 C 
BRANCH   6   8
ATOM      7  O   LIG A   1      -7.426   3.354 123.387  0.00  0.00    -0.251 OA
ATOM      8  C   LIG A   1      -8.411   3.199 124.099  0.00  0.00    +0.307 C 
BRANCH   8   9
ATOM      9  O   LIG A   1      -8.770   4.009 125.130  0.00  0.00    -0.468 OA
ATOM     10  C   LIG A   1      -7.712   4.709 125.793  0.00  0.00    +0.280 C 
ENDBRANCH   8   9
ENDBRANCH   6   8
ENDBRANCH   5   6
ENDBRANCH   4   5
ENDBRANCH   3   4
ENDBRANCH   2   3
ENDBRANCH   1   2
BRANCH   1  11
ATOM     11  C   LIG A   1      -5.424   0.405 126.006  0.00  0.00    +0.000 C 
BRANCH  11  12
ATOM     12  C   LIG A   1      -5.377  -1.129 126.061  0.00  0.00    +0.005 C 
BRANCH  12  13
ATOM     13  C   LIG A   1      -5.478  -1.786 124.680  0.00  0.00    +0.035 C 
BRANCH  13  14
ATOM     14  C   LIG A   1      -6.864  -2.299 124.373  0.00  0.00    -0.047 A 
ATOM     15  C   LIG A   1      -7.409  -2.147 123.089  0.00  0.00    +0.003 A 
ATOM     16  C   LIG A   1      -8.685  -2.634 122.799  0.00  0.00    +0.000 A 
ATOM     17  C   LIG A   1      -9.430  -3.273 123.788  0.00  0.00    +0.000 A 
ATOM     18  C   LIG A   1      -8.898  -3.427 125.067  0.00  0.00    +0.000 A 
ATOM     19  C   LIG A   1      -7.622  -2.939 125.360  0.00  0.00    +0.003 A 
ENDBRANCH  13  14
ENDBRANCH  12  13
ENDBRANCH  11  12
ENDBRANCH   1  11
TORSDOF 11
ENDMDL
MODEL 5
REMARK VINA RESULT:      -4.9      1.674      2.791
REMARK  Name = NuBBE_1153
REMARK  12 active torsions:
REMARK  status: ('A' for Active; 'I' for Inactive)
REMARK    1  A    between atoms: C_2  and  O_3
REMARK    2  A    between atoms: C_2  and  C_5
REMARK    3  A    between atoms: O_3  and  C_4
REMARK    4  A    between atoms: C_5  and  C_6
REMARK    5  A    between atoms: C_6  and  C_7
REMARK    6  A    between atoms: C_7  and  C_8
REMARK    7  A    between atoms: C_8  and  C_9
REMARK    8  A    between atoms: C_9  and  C_10
REMARK    9  A    between atoms: C_10  and  C_11
REMARK   10  A    between atoms: C_11  and  C_12
REMARK   11  A    between atoms: C_12  and  C_13
REMARK   12  A    between atoms: C_13  and  C_14
REMARK                            x       y       z     vdW  Elec       q    Type
REMARK                         _______ _______ _______ _____ _____    ______ ____
ROOT
ATOM      1  C   LIG A   1      -7.764  -1.658 127.604  0.00  0.00    +0.000 C 
ENDROOT
BRANCH   1   2
ATOM      2  C   LIG A   1      -7.929  -0.351 126.824  0.00  0.00    -0.000 C 
BRANCH   2   3
ATOM      3  C   LIG A   1      -9.152  -0.395 125.899  0.00  0.00    +0.000 C 
BRANCH   3   4
ATOM      4  C   LIG A   1      -9.071   0.691 124.820  0.00  0.00    +0.000 C 
BRANCH   4   5
ATOM      5  C   LIG A   1      -7.651   1.238 124.654  0.00  0.00    +0.011 C 
BRANCH   5   6
ATOM      6  C   LIG A   1      -7.344   1.592 123.195  0.00  0.00    +0.120 C 
BRANCH   6   8
ATOM      7  O   LIG A   1      -6.926   3.859 123.942  0.00  0.00    -0.251 OA
ATOM      8  C   LIG A   1      -6.820   3.003 123.072  0.00  0.00    +0.307 C 
BRANCH   8   9
ATOM      9  O   LIG A   1      -6.239   3.186 121.857  0.00  0.00    -0.468 OA
ATOM     10  C   LIG A   1      -5.248   4.215 121.770  0.00  0.00    +0.280 C 
ENDBRANCH   8   9
ENDBRANCH   6   8
ENDBRANCH   5   6
ENDBRANCH   4   5
ENDBRANCH   3   4
ENDBRANCH   2   3
ENDBRANCH   1   2
BRANCH   1  11
ATOM     11  C   LIG A   1      -6.345  -2.224 127.470  0.00  0.00    +0.000 C 
BRANCH  11  12
ATOM     12  C   LIG A   1      -5.637  -1.812 126.170  0.00  0.00    +0.005 C 
BRANCH  12  13
ATOM     13  C   LIG A   1      -5.688  -2.895 125.086  0.00  0.00    +0.035 C 
BRANCH  13  14
ATOM     14  C   LIG A   1      -6.980  -2.885 124.307  0.00  0.00    -0.047 A 
ATOM     15  C   LIG A   1      -8.062  -3.680 124.714  0.00  0.00    +0.003 A 
ATOM     16  C   LIG A   1      -9.264  -3.660 124.002  0.00  0.00    +0.000 A 
ATOM     17  C   LIG A   1      -9.395  -2.850 122.877  0.00  0.00    +0.000 A 
ATOM     18  C   LIG A   1      -8.326  -2.057 122.463  0.00  0.00    +0.000 A 
ATOM     19  C   LIG A   1      -7.123  -2.077 123.172  0.00  0.00    +0.003 A 
ENDBRANCH  13  14
ENDBRANCH  12  13
ENDBRANCH  11  12
ENDBRANCH   1  11
TORSDOF 11
ENDMDL
MODEL 6
REMARK VINA RESULT:      -4.9      1.469      4.352
REMARK  Name = NuBBE_1153
REMARK  12 active torsions:
REMARK  status: ('A' for Active; 'I' for Inactive)
REMARK    1  A    between atoms: C_2  and  O_3
REMARK    2  A    between atoms: C_2  and  C_5
REMARK    3  A    between atoms: O_3  and  C_4
REMARK    4  A    between atoms: C_5  and  C_6
REMARK    5  A    between atoms: C_6  and  C_7
REMARK    6  A    between atoms: C_7  and  C_8
REMARK    7  A    between atoms: C_8  and  C_9
REMARK    8  A    between atoms: C_9  and  C_10
REMARK    9  A    between atoms: C_10  and  C_11
REMARK   10  A    between atoms: C_11  and  C_12
REMARK   11  A    between atoms: C_12  and  C_13
REMARK   12  A    between atoms: C_13  and  C_14
REMARK                            x       y       z     vdW  Elec       q    Type
REMARK                         _______ _______ _______ _____ _____    ______ ____
ROOT
ATOM      1  C   LIG A   1      -5.177  -2.183 124.489  0.00  0.00    +0.000 C 
ENDROOT
BRANCH   1   2
ATOM      2  C   LIG A   1      -5.490  -2.450 123.014  0.00  0.00    -0.000 C 
BRANCH   2   3
ATOM      3  C   LIG A   1      -6.764  -1.724 122.566  0.00  0.00    +0.000 C 
BRANCH   3   4
ATOM      4  C   LIG A   1      -8.020  -2.484 123.008  0.00  0.00    +0.000 C 
BRANCH   4   5
ATOM      5  C   LIG A   1      -9.144  -1.542 123.445  0.00  0.00    +0.011 C 
BRANCH   5   6
ATOM      6  C   LIG A   1      -8.762  -0.071 123.253  0.00  0.00    +0.120 C 
BRANCH   6   8
ATOM      7  O   LIG A   1     -11.051   0.364 122.589  0.00  0.00    -0.251 OA
ATOM      8  C   LIG A   1      -9.981   0.786 123.012  0.00  0.00    +0.307 C 
BRANCH   8   9
ATOM      9  O   LIG A   1      -9.712   2.084 123.312  0.00  0.00    -0.468 OA
ATOM     10  C   LIG A   1      -8.343   2.492 123.223  0.00  0.00    +0.280 C 
ENDBRANCH   8   9
ENDBRANCH   6   8
ENDBRANCH   5   6
ENDBRANCH   4   5
ENDBRANCH   3   4
ENDBRANCH   2   3
ENDBRANCH   1   2
BRANCH   1  11
ATOM     11  C   LIG A   1      -5.570  -0.760 124.904  0.00  0.00    +0.000 C 
BRANCH  11  12
ATOM     12  C   LIG A   1      -5.770  -0.592 126.418  0.00  0.00    +0.005 C 
BRANCH  12  13
ATOM     13  C   LIG A   1      -5.521  -1.883 127.207  0.00  0.00    +0.035 C 
BRANCH  13  14
ATOM     14  C   LIG A   1      -6.797  -2.555 127.651  0.00  0.00    -0.047 A 
ATOM     15  C   LIG A   1      -7.801  -2.860 126.719  0.00  0.00    +0.003 A 
ATOM     16  C   LIG A   1      -8.977  -3.496 127.126  0.00  0.00    +0.000 A 
ATOM     17  C   LIG A   1      -9.162  -3.828 128.466  0.00  0.00    +0.000 A 
ATOM     18  C   LIG A   1      -8.171  -3.528 129.400  0.00  0.00    +0.000 A 
ATOM     19  C   LIG A   1      -6.996  -2.891 128.995  0.00  0.00    +0.003 A 
ENDBRANCH  13  14
ENDBRANCH  12  13
ENDBRANCH  11  12
ENDBRANCH   1  11
TORSDOF 11
ENDMDL
MODEL 7
REMARK VINA RESULT:      -4.9      3.505      5.763
REMARK  Name = NuBBE_1153
REMARK  12 active torsions:
REMARK  status: ('A' for Active; 'I' for Inactive)
REMARK    1  A    between atoms: C_2  and  O_3
REMARK    2  A    between atoms: C_2  and  C_5
REMARK    3  A    between atoms: O_3  and  C_4
REMARK    4  A    between atoms: C_5  and  C_6
REMARK    5  A    between atoms: C_6  and  C_7
REMARK    6  A    between atoms: C_7  and  C_8
REMARK    7  A    between atoms: C_8  and  C_9
REMARK    8  A    between atoms: C_9  and  C_10
REMARK    9  A    between atoms: C_10  and  C_11
REMARK   10  A    between atoms: C_11  and  C_12
REMARK   11  A    between atoms: C_12  and  C_13
REMARK   12  A    between atoms: C_13  and  C_14
REMARK                            x       y       z     vdW  Elec       q    Type
REMARK                         _______ _______ _______ _____ _____    ______ ____
ROOT
ATOM      1  C   LIG A   1      -8.567  -3.707 124.776  0.00  0.00    +0.000 C 
ENDROOT
BRANCH   1   2
ATOM      2  C   LIG A   1      -9.129  -3.137 126.081  0.00  0.00    -0.000 C 
BRANCH   2   3
ATOM      3  C   LIG A   1      -8.031  -2.488 126.933  0.00  0.00    +0.000 C 
BRANCH   3   4
ATOM      4  C   LIG A   1      -6.690  -2.468 126.190  0.00  0.00    +0.000 C 
BRANCH   4   5
ATOM      5  C   LIG A   1      -5.606  -1.721 126.970  0.00  0.00    +0.011 C 
BRANCH   5   6
ATOM      6  C   LIG A   1      -5.830  -1.808 128.483  0.00  0.00    +0.120 C 
BRANCH   6   8
ATOM      7  O   LIG A   1      -3.980  -3.317 128.901  0.00  0.00    -0.251 OA
ATOM      8  C   LIG A   1      -5.160  -3.029 129.067  0.00  0.00    +0.307 C 
BRANCH   8   9
ATOM      9  O   LIG A   1      -6.054  -3.763 129.779  0.00  0.00    -0.468 OA
ATOM     10  C   LIG A   1      -5.514  -4.753 130.660  0.00  0.00    +0.280 C 
ENDBRANCH   8   9
ENDBRANCH   6   8
ENDBRANCH   5   6
ENDBRANCH   4   5
ENDBRANCH   3   4
ENDBRANCH   2   3
ENDBRANCH   1   2
BRANCH   1  11
ATOM     11  C   LIG A   1      -9.337  -3.193 123.554  0.00  0.00    +0.000 C 
BRANCH  11  12
ATOM     12  C   LIG A   1      -8.631  -2.046 122.817  0.00  0.00    +0.005 C 
BRANCH  12  13
ATOM     13  C   LIG A   1      -9.291  -0.682 123.050  0.00  0.00    +0.035 C 
BRANCH  13  14
ATOM     14  C   LIG A   1      -8.644   0.101 124.167  0.00  0.00    -0.047 A 
ATOM     15  C   LIG A   1      -9.369   0.415 125.327  0.00  0.00    +0.003 A 
ATOM     16  C   LIG A   1      -8.767   1.126 126.368  0.00  0.00    +0.000 A 
ATOM     17  C   LIG A   1      -7.439   1.532 126.258  0.00  0.00    +0.000 A 
ATOM     18  C   LIG A   1      -6.711   1.226 125.110  0.00  0.00    +0.000 A 
ATOM     19  C   LIG A   1      -7.311   0.517 124.067  0.00  0.00    +0.003 A 
ENDBRANCH  13  14
ENDBRANCH  12  13
ENDBRANCH  11  12
ENDBRANCH   1  11
TORSDOF 11
ENDMDL
MODEL 8
REMARK VINA RESULT:      -4.9      2.183      4.071
REMARK  Name = NuBBE_1153
REMARK  12 active torsions:
REMARK  status: ('A' for Active; 'I' for Inactive)
REMARK    1  A    between atoms: C_2  and  O_3
REMARK    2  A    between atoms: C_2  and  C_5
REMARK    3  A    between atoms: O_3  and  C_4
REMARK    4  A    between atoms: C_5  and  C_6
REMARK    5  A    between atoms: C_6  and  C_7
REMARK    6  A    between atoms: C_7  and  C_8
REMARK    7  A    between atoms: C_8  and  C_9
REMARK    8  A    between atoms: C_9  and  C_10
REMARK    9  A    between atoms: C_10  and  C_11
REMARK   10  A    between atoms: C_11  and  C_12
REMARK   11  A    between atoms: C_12  and  C_13
REMARK   12  A    between atoms: C_13  and  C_14
REMARK                            x       y       z     vdW  Elec       q    Type
REMARK                         _______ _______ _______ _____ _____    ______ ____
ROOT
ATOM      1  C   LIG A   1      -6.306  -2.326 123.380  0.00  0.00    +0.000 C 
ENDROOT
BRANCH   1   2
ATOM      2  C   LIG A   1      -7.289  -1.211 123.015  0.00  0.00    -0.000 C 
BRANCH   2   3
ATOM      3  C   LIG A   1      -6.964   0.093 123.754  0.00  0.00    +0.000 C 
BRANCH   3   4
ATOM      4  C   LIG A   1      -7.884   1.233 123.299  0.00  0.00    +0.000 C 
BRANCH   4   5
ATOM      5  C   LIG A   1      -7.234   2.607 123.473  0.00  0.00    +0.011 C 
BRANCH   5   6
ATOM      6  C   LIG A   1      -6.403   3.004 122.249  0.00  0.00    +0.120 C 
BRANCH   6   8
ATOM      7  O   LIG A   1      -5.633   4.896 123.553  0.00  0.00    -0.251 OA
ATOM      8  C   LIG A   1      -5.559   4.224 122.530  0.00  0.00    +0.307 C 
BRANCH   8   9
ATOM      9  O   LIG A   1      -4.729   4.475 121.485  0.00  0.00    -0.468 OA
ATOM     10  C   LIG A   1      -5.350   4.825 120.243  0.00  0.00    +0.280 C 
ENDBRANCH   8   9
ENDBRANCH   6   8
ENDBRANCH   5   6
ENDBRANCH   4   5
ENDBRANCH   3   4
ENDBRANCH   2   3
ENDBRANCH   1   2
BRANCH   1  11
ATOM     11  C   LIG A   1      -6.861  -3.233 124.485  0.00  0.00    +0.000 C 
BRANCH  11  12
ATOM     12  C   LIG A   1      -8.352  -3.565 124.320  0.00  0.00    +0.005 C 
BRANCH  12  13
ATOM     13  C   LIG A   1      -9.258  -2.744 125.244  0.00  0.00    +0.035 C 
BRANCH  13  14
ATOM     14  C   LIG A   1      -8.727  -2.646 126.654  0.00  0.00    -0.047 A 
ATOM     15  C   LIG A   1      -8.120  -1.463 127.104  0.00  0.00    +0.003 A 
ATOM     16  C   LIG A   1      -7.641  -1.366 128.412  0.00  0.00    +0.000 A 
ATOM     17  C   LIG A   1      -7.760  -2.448 129.281  0.00  0.00    +0.000 A 
ATOM     18  C   LIG A   1      -8.359  -3.628 128.843  0.00  0.00    +0.000 A 
ATOM     19  C   LIG A   1      -8.837  -3.728 127.534  0.00  0.00    +0.003 A 
ENDBRANCH  13  14
ENDBRANCH  12  13
ENDBRANCH  11  12
ENDBRANCH   1  11
TORSDOF 11
ENDMDL
MODEL 9
REMARK VINA RESULT:      -4.8      4.026      6.053
REMARK  Name = NuBBE_1153
REMARK  12 active torsions:
REMARK  status: ('A' for Active; 'I' for Inactive)
REMARK    1  A    between atoms: C_2  and  O_3
REMARK    2  A    between atoms: C_2  and  C_5
REMARK    3  A    between atoms: O_3  and  C_4
REMARK    4  A    between atoms: C_5  and  C_6
REMARK    5  A    between atoms: C_6  and  C_7
REMARK    6  A    between atoms: C_7  and  C_8
REMARK    7  A    between atoms: C_8  and  C_9
REMARK    8  A    between atoms: C_9  and  C_10
REMARK    9  A    between atoms: C_10  and  C_11
REMARK   10  A    between atoms: C_11  and  C_12
REMARK   11  A    between atoms: C_12  and  C_13
REMARK   12  A    between atoms: C_13  and  C_14
REMARK                            x       y       z     vdW  Elec       q    Type
REMARK                         _______ _______ _______ _____ _____    ______ ____
ROOT
ATOM      1  C   LIG A   1      -8.032  -0.759 126.777  0.00  0.00    +0.000 C 
ENDROOT
BRANCH   1   2
ATOM      2  C   LIG A   1      -7.386  -1.975 127.447  0.00  0.00    -0.000 C 
BRANCH   2   3
ATOM      3  C   LIG A   1      -7.467  -1.889 128.976  0.00  0.00    +0.000 C 
BRANCH   3   4
ATOM      4  C   LIG A   1      -7.826  -3.246 129.590  0.00  0.00    +0.000 C 
BRANCH   4   5
ATOM      5  C   LIG A   1      -6.586  -4.051 129.985  0.00  0.00    +0.011 C 
BRANCH   5   6
ATOM      6  C   LIG A   1      -5.550  -3.183 130.708  0.00  0.00    +0.120 C 
BRANCH   6   8
ATOM      7  O   LIG A   1      -3.852  -3.726 129.066  0.00  0.00    -0.251 OA
ATOM      8  C   LIG A   1      -4.151  -3.488 130.231  0.00  0.00    +0.307 C 
BRANCH   8   9
ATOM      9  O   LIG A   1      -3.284  -3.481 131.277  0.00  0.00    -0.468 OA
ATOM     10  C   LIG A   1      -3.708  -4.158 132.466  0.00  0.00    +0.280 C 
ENDBRANCH   8   9
ENDBRANCH   6   8
ENDBRANCH   5   6
ENDBRANCH   4   5
ENDBRANCH   3   4
ENDBRANCH   2   3
ENDBRANCH   1   2
BRANCH   1  11
ATOM     11  C   LIG A   1      -9.196  -1.163 125.866  0.00  0.00    +0.000 C 
BRANCH  11  12
ATOM     12  C   LIG A   1      -9.416  -2.681 125.782  0.00  0.00    +0.005 C 
BRANCH  12  13
ATOM     13  C   LIG A   1      -9.173  -3.249 124.379  0.00  0.00    +0.035 C 
BRANCH  13  14
ATOM     14  C   LIG A   1      -7.750  -3.066 123.909  0.00  0.00    -0.047 A 
ATOM     15  C   LIG A   1      -6.720  -3.857 124.439  0.00  0.00    +0.003 A 
ATOM     16  C   LIG A   1      -5.405  -3.699 123.995  0.00  0.00    +0.000 A 
ATOM     17  C   LIG A   1      -5.107  -2.749 123.021  0.00  0.00    +0.000 A 
ATOM     18  C   LIG A   1      -6.124  -1.957 122.489  0.00  0.00    +0.000 A 
ATOM     19  C   LIG A   1      -7.439  -2.112 122.934  0.00  0.00    +0.003 A 
ENDBRANCH  13  14
ENDBRANCH  12  13
ENDBRANCH  11  12
ENDBRANCH   1  11
TORSDOF 11
ENDMDL
