MODEL 1
REMARK VINA RESULT:      -8.6      0.000      0.000
REMARK  Name = NuBBE_1194
REMARK  16 active torsions:
REMARK  status: ('A' for Active; 'I' for Inactive)
REMARK    1  A    between atoms: C_1  and  C_2
REMARK    2  A    between atoms: C_2  and  C_12
REMARK    3  A    between atoms: C_4  and  C_5
REMARK    4  A    between atoms: C_5  and  C_6
REMARK    5  A    between atoms: C_5  and  O_7
REMARK    6  A    between atoms: C_5  and  C_8
REMARK    7  A    between atoms: C_16  and  C_17
REMARK    8  A    between atoms: C_18  and  C_23
REMARK    9  A    between atoms: C_24  and  O_26
REMARK   10  A    between atoms: C_28  and  C_36
REMARK   11  A    between atoms: C_29  and  C_30
REMARK   12  A    between atoms: C_29  and  C_31
REMARK   13  A    between atoms: C_31  and  C_32
REMARK   14  A    between atoms: C_32  and  C_33
REMARK   15  A    between atoms: C_33  and  O_34
REMARK   16  A    between atoms: C_36  and  C_37
REMARK                            x       y       z     vdW  Elec       q    Type
REMARK                         _______ _______ _______ _____ _____    ______ ____
ROOT
ATOM      1  C   LIG A   1     -10.117   4.435 131.158  0.00  0.00    +0.024 C 
ATOM      2  C   LIG A   1      -9.871   3.394 130.040  0.00  0.00    +0.007 C 
ATOM      3  C   LIG A   1      -8.847   2.378 130.555  0.00  0.00    +0.008 C 
ATOM      4  C   LIG A   1      -7.972   3.093 131.612  0.00  0.00    -0.021 C 
ATOM      5  C   LIG A   1      -7.571   2.044 132.690  0.00  0.00    +0.012 C 
ATOM      6  C   LIG A   1      -6.638   3.851 131.053  0.00  0.00    +0.003 C 
ATOM      7  C   LIG A   1      -6.166   4.948 132.092  0.00  0.00    +0.004 C 
ATOM      8  C   LIG A   1      -7.355   5.863 132.462  0.00  0.00    +0.005 C 
ATOM      9  C   LIG A   1      -8.457   5.092 133.150  0.00  0.00    +0.005 C 
ATOM     10  C   LIG A   1      -9.053   4.046 132.242  0.00  0.00    +0.001 C 
ATOM     11  C   LIG A   1      -6.912   4.444 129.656  0.00  0.00    +0.014 C 
ATOM     12  C   LIG A   1      -5.409   2.908 130.884  0.00  0.00    +0.122 C 
ATOM     13  C   LIG A   1      -4.247   3.620 130.193  0.00  0.00    +0.040 C 
ATOM     14  C   LIG A   1      -3.766   4.917 130.881  0.00  0.00    +0.023 C 
ATOM     15  C   LIG A   1      -4.828   5.758 131.762  0.00  0.00    -0.022 C 
ATOM     16  C   LIG A   1      -5.163   7.143 131.159  0.00  0.00    +0.012 C 
ENDROOT
BRANCH   1  18
ATOM     17  C   LIG A   1      -9.173   6.814 130.625  0.00  0.00    +0.042 C 
ATOM     18  C   LIG A   1     -10.409   5.899 130.636  0.00  0.00    +0.070 C 
ATOM     19  O   LIG A   1     -10.906   5.933 129.287  0.00  0.00    -0.367 OA
ATOM     20  C   LIG A   1     -12.174   6.620 129.228  0.00  0.00    +0.150 C 
ATOM     21  C   LIG A   1     -12.241   7.458 130.488  0.00  0.00    +0.037 C 
ATOM     22  C   LIG A   1     -11.511   6.578 131.481  0.00  0.00    +0.037 C 
BRANCH  20  23
ATOM     23  C   LIG A   1     -12.298   7.366 127.878  0.00  0.00    +0.086 C 
ATOM     24  C   LIG A   1     -11.124   8.309 127.596  0.00  0.00    +0.043 C 
ATOM     25  C   LIG A   1     -13.625   8.115 127.772  0.00  0.00    +0.043 C 
BRANCH  23  26
ATOM     26  O   LIG A   1     -12.292   6.382 126.827  0.00  0.00    -0.387 OA
ATOM     27  H   LIG A   1     -13.039   5.788 127.035  0.00  0.00    +0.210 HD
ENDBRANCH  23  26
ENDBRANCH  20  23
ENDBRANCH   1  18
BRANCH  14  28
ATOM     28  C   LIG A   1      -2.825   5.649 129.894  0.00  0.00    -0.076 C 
ATOM     29  C   LIG A   1      -2.996   5.530 128.399  0.00  0.00    +0.038 C 
ATOM     30  C   LIG A   1      -1.738   6.307 130.341  0.00  0.00    +0.007 C 
ENDBRANCH  14  28
BRANCH  12  31
ATOM     31  O   LIG A   1      -5.750   1.760 130.109  0.00  0.00    -0.391 OA
ATOM     32  H   LIG A   1      -6.000   2.067 129.221  0.00  0.00    +0.210 HD
ENDBRANCH  12  31
BRANCH  15  33
ATOM     33  C   LIG A   1      -4.066   6.063 133.130  0.00  0.00    +0.018 C 
BRANCH  33  34
ATOM     34  C   LIG A   1      -2.976   5.085 133.585  0.00  0.00    +0.121 C 
BRANCH  34  35
ATOM     35  C   LIG A   1      -3.508   4.009 134.492  0.00  0.00    +0.305 C 
ATOM     36  O   LIG A   1      -4.065   2.981 134.178  0.00  0.00    -0.251 OA
BRANCH  35  37
ATOM     37  O   LIG A   1      -3.333   4.333 135.792  0.00  0.00    -0.481 OA
ATOM     38  H   LIG A   1      -2.683   3.673 136.116  0.00  0.00    +0.295 HD
ENDBRANCH  35  37
ENDBRANCH  34  35
ENDBRANCH  33  34
ENDBRANCH  15  33
TORSDOF 9
ENDMDL
MODEL 2
REMARK VINA RESULT:      -8.5      5.421      8.579
REMARK  Name = NuBBE_1194
REMARK  16 active torsions:
REMARK  status: ('A' for Active; 'I' for Inactive)
REMARK    1  A    between atoms: C_1  and  C_2
REMARK    2  A    between atoms: C_2  and  C_12
REMARK    3  A    between atoms: C_4  and  C_5
REMARK    4  A    between atoms: C_5  and  C_6
REMARK    5  A    between atoms: C_5  and  O_7
REMARK    6  A    between atoms: C_5  and  C_8
REMARK    7  A    between atoms: C_16  and  C_17
REMARK    8  A    between atoms: C_18  and  C_23
REMARK    9  A    between atoms: C_24  and  O_26
REMARK   10  A    between atoms: C_28  and  C_36
REMARK   11  A    between atoms: C_29  and  C_30
REMARK   12  A    between atoms: C_29  and  C_31
REMARK   13  A    between atoms: C_31  and  C_32
REMARK   14  A    between atoms: C_32  and  C_33
REMARK   15  A    between atoms: C_33  and  O_34
REMARK   16  A    between atoms: C_36  and  C_37
REMARK                            x       y       z     vdW  Elec       q    Type
REMARK                         _______ _______ _______ _____ _____    ______ ____
ROOT
ATOM      1  C   LIG A   1      -7.891  -1.312 123.985  0.00  0.00    +0.024 C 
ATOM      2  C   LIG A   1      -9.244  -0.569 123.865  0.00  0.00    +0.007 C 
ATOM      3  C   LIG A   1      -8.950   0.901 123.548  0.00  0.00    +0.008 C 
ATOM      4  C   LIG A   1      -7.554   1.233 124.126  0.00  0.00    -0.021 C 
ATOM      5  C   LIG A   1      -6.885   2.279 123.188  0.00  0.00    +0.012 C 
ATOM      6  C   LIG A   1      -7.518   1.767 125.668  0.00  0.00    +0.003 C 
ATOM      7  C   LIG A   1      -6.076   1.547 126.282  0.00  0.00    +0.004 C 
ATOM      8  C   LIG A   1      -5.636   0.082 126.068  0.00  0.00    +0.005 C 
ATOM      9  C   LIG A   1      -5.513  -0.253 124.600  0.00  0.00    +0.005 C 
ATOM     10  C   LIG A   1      -6.842  -0.151 123.894  0.00  0.00    +0.001 C 
ATOM     11  C   LIG A   1      -8.621   1.076 126.495  0.00  0.00    +0.014 C 
ATOM     12  C   LIG A   1      -7.779   3.298 125.804  0.00  0.00    +0.122 C 
ATOM     13  C   LIG A   1      -7.914   3.715 127.268  0.00  0.00    +0.040 C 
ATOM     14  C   LIG A   1      -6.715   3.351 128.170  0.00  0.00    +0.023 C 
ATOM     15  C   LIG A   1      -5.813   2.072 127.769  0.00  0.00    -0.022 C 
ATOM     16  C   LIG A   1      -5.913   0.909 128.784  0.00  0.00    +0.012 C 
ENDROOT
BRANCH   1  18
ATOM     17  C   LIG A   1      -7.054  -3.707 124.617  0.00  0.00    +0.042 C 
ATOM     18  C   LIG A   1      -7.881  -2.484 125.048  0.00  0.00    +0.070 C 
ATOM     19  O   LIG A   1      -7.332  -2.095 126.318  0.00  0.00    -0.367 OA
ATOM     20  C   LIG A   1      -8.279  -2.342 127.380  0.00  0.00    +0.150 C 
ATOM     21  C   LIG A   1      -9.257  -3.356 126.823  0.00  0.00    +0.037 C 
ATOM     22  C   LIG A   1      -9.319  -2.955 125.365  0.00  0.00    +0.037 C 
BRANCH  20  23
ATOM     23  C   LIG A   1      -7.521  -2.729 128.672  0.00  0.00    +0.086 C 
ATOM     24  C   LIG A   1      -7.928  -1.890 129.888  0.00  0.00    +0.043 C 
ATOM     25  C   LIG A   1      -6.008  -2.680 128.470  0.00  0.00    +0.043 C 
BRANCH  23  26
ATOM     26  O   LIG A   1      -7.854  -4.093 128.988  0.00  0.00    -0.387 OA
ATOM     27  H   LIG A   1      -7.412  -4.626 128.299  0.00  0.00    +0.210 HD
ENDBRANCH  23  26
ENDBRANCH  20  23
ENDBRANCH   1  18
BRANCH  14  28
ATOM     28  C   LIG A   1      -7.155   3.559 129.640  0.00  0.00    -0.076 C 
ATOM     29  C   LIG A   1      -6.187   4.039 130.696  0.00  0.00    +0.038 C 
ATOM     30  C   LIG A   1      -8.382   3.187 130.050  0.00  0.00    +0.007 C 
ENDBRANCH  14  28
BRANCH  12  31
ATOM     31  O   LIG A   1      -8.975   3.674 125.123  0.00  0.00    -0.391 OA
ATOM     32  H   LIG A   1      -8.835   4.563 124.752  0.00  0.00    +0.210 HD
ENDBRANCH  12  31
BRANCH  15  33
ATOM     33  C   LIG A   1      -4.308   2.593 127.866  0.00  0.00    +0.018 C 
BRANCH  33  34
ATOM     34  C   LIG A   1      -3.578   2.948 126.565  0.00  0.00    +0.121 C 
BRANCH  34  35
ATOM     35  C   LIG A   1      -2.135   3.308 126.792  0.00  0.00    +0.305 C 
ATOM     36  O   LIG A   1      -1.156   2.632 126.568  0.00  0.00    -0.251 OA
BRANCH  35  37
ATOM     37  O   LIG A   1      -2.018   4.533 127.351  0.00  0.00    -0.481 OA
ATOM     38  H   LIG A   1      -1.053   4.641 127.487  0.00  0.00    +0.295 HD
ENDBRANCH  35  37
ENDBRANCH  34  35
ENDBRANCH  33  34
ENDBRANCH  15  33
TORSDOF 9
ENDMDL
MODEL 3
REMARK VINA RESULT:      -8.5      2.236      6.509
REMARK  Name = NuBBE_1194
REMARK  16 active torsions:
REMARK  status: ('A' for Active; 'I' for Inactive)
REMARK    1  A    between atoms: C_1  and  C_2
REMARK    2  A    between atoms: C_2  and  C_12
REMARK    3  A    between atoms: C_4  and  C_5
REMARK    4  A    between atoms: C_5  and  C_6
REMARK    5  A    between atoms: C_5  and  O_7
REMARK    6  A    between atoms: C_5  and  C_8
REMARK    7  A    between atoms: C_16  and  C_17
REMARK    8  A    between atoms: C_18  and  C_23
REMARK    9  A    between atoms: C_24  and  O_26
REMARK   10  A    between atoms: C_28  and  C_36
REMARK   11  A    between atoms: C_29  and  C_30
REMARK   12  A    between atoms: C_29  and  C_31
REMARK   13  A    between atoms: C_31  and  C_32
REMARK   14  A    between atoms: C_32  and  C_33
REMARK   15  A    between atoms: C_33  and  O_34
REMARK   16  A    between atoms: C_36  and  C_37
REMARK                            x       y       z     vdW  Elec       q    Type
REMARK                         _______ _______ _______ _____ _____    ______ ____
ROOT
ATOM      1  C   LIG A   1      -6.014   1.931 128.590  0.00  0.00    +0.024 C 
ATOM      2  C   LIG A   1      -5.229   1.002 129.547  0.00  0.00    +0.007 C 
ATOM      3  C   LIG A   1      -6.214   0.447 130.581  0.00  0.00    +0.008 C 
ATOM      4  C   LIG A   1      -7.361   1.474 130.731  0.00  0.00    -0.021 C 
ATOM      5  C   LIG A   1      -8.671   0.686 131.025  0.00  0.00    +0.012 C 
ATOM      6  C   LIG A   1      -7.148   2.637 131.856  0.00  0.00    +0.003 C 
ATOM      7  C   LIG A   1      -8.084   3.874 131.537  0.00  0.00    +0.004 C 
ATOM      8  C   LIG A   1      -7.886   4.313 130.070  0.00  0.00    +0.005 C 
ATOM      9  C   LIG A   1      -8.296   3.227 129.104  0.00  0.00    +0.005 C 
ATOM     10  C   LIG A   1      -7.434   1.999 129.250  0.00  0.00    +0.001 C 
ATOM     11  C   LIG A   1      -5.660   3.031 131.936  0.00  0.00    +0.014 C 
ATOM     12  C   LIG A   1      -7.551   2.195 133.295  0.00  0.00    +0.122 C 
ATOM     13  C   LIG A   1      -7.166   3.247 134.333  0.00  0.00    +0.040 C 
ATOM     14  C   LIG A   1      -7.744   4.658 134.086  0.00  0.00    +0.023 C 
ATOM     15  C   LIG A   1      -8.076   5.096 132.566  0.00  0.00    -0.022 C 
ATOM     16  C   LIG A   1      -7.173   6.240 132.048  0.00  0.00    +0.012 C 
ENDROOT
BRANCH   1  18
ATOM     17  C   LIG A   1      -5.841   3.887 126.863  0.00  0.00    +0.042 C 
ATOM     18  C   LIG A   1      -5.185   3.168 128.054  0.00  0.00    +0.070 C 
ATOM     19  O   LIG A   1      -4.991   4.193 129.043  0.00  0.00    -0.367 OA
ATOM     20  C   LIG A   1      -3.585   4.468 129.222  0.00  0.00    +0.150 C 
ATOM     21  C   LIG A   1      -2.907   3.947 127.972  0.00  0.00    +0.037 C 
ATOM     22  C   LIG A   1      -3.759   2.740 127.641  0.00  0.00    +0.037 C 
BRANCH  20  23
ATOM     23  C   LIG A   1      -3.387   5.965 129.560  0.00  0.00    +0.086 C 
ATOM     24  C   LIG A   1      -2.035   6.518 129.097  0.00  0.00    +0.043 C 
ATOM     25  C   LIG A   1      -3.595   6.235 131.049  0.00  0.00    +0.043 C 
BRANCH  23  26
ATOM     26  O   LIG A   1      -4.395   6.713 128.857  0.00  0.00    -0.387 OA
ATOM     27  H   LIG A   1      -3.905   7.220 128.180  0.00  0.00    +0.210 HD
ENDBRANCH  23  26
ENDBRANCH  20  23
ENDBRANCH   1  18
BRANCH  14  28
ATOM     28  C   LIG A   1      -7.010   5.638 135.033  0.00  0.00    -0.076 C 
ATOM     29  C   LIG A   1      -5.504   5.749 135.046  0.00  0.00    +0.038 C 
ATOM     30  C   LIG A   1      -7.688   6.324 135.972  0.00  0.00    +0.007 C 
ENDBRANCH  14  28
BRANCH  12  31
ATOM     31  O   LIG A   1      -6.912   0.969 133.649  0.00  0.00    -0.391 OA
ATOM     32  H   LIG A   1      -6.430   1.117 134.481  0.00  0.00    +0.210 HD
ENDBRANCH  12  31
BRANCH  15  33
ATOM     33  C   LIG A   1      -9.546   5.714 132.636  0.00  0.00    +0.018 C 
BRANCH  33  34
ATOM     34  C   LIG A   1     -10.075   6.464 131.408  0.00  0.00    +0.121 C 
BRANCH  34  35
ATOM     35  C   LIG A   1     -11.366   5.889 130.892  0.00  0.00    +0.305 C 
ATOM     36  O   LIG A   1     -11.542   5.238 129.887  0.00  0.00    -0.251 OA
BRANCH  35  37
ATOM     37  O   LIG A   1     -12.404   6.224 131.691  0.00  0.00    -0.481 OA
ATOM     38  H   LIG A   1     -12.271   7.180 131.866  0.00  0.00    +0.295 HD
ENDBRANCH  35  37
ENDBRANCH  34  35
ENDBRANCH  33  34
ENDBRANCH  15  33
TORSDOF 9
ENDMDL
MODEL 4
REMARK VINA RESULT:      -8.3      2.779      7.130
REMARK  Name = NuBBE_1194
REMARK  16 active torsions:
REMARK  status: ('A' for Active; 'I' for Inactive)
REMARK    1  A    between atoms: C_1  and  C_2
REMARK    2  A    between atoms: C_2  and  C_12
REMARK    3  A    between atoms: C_4  and  C_5
REMARK    4  A    between atoms: C_5  and  C_6
REMARK    5  A    between atoms: C_5  and  O_7
REMARK    6  A    between atoms: C_5  and  C_8
REMARK    7  A    between atoms: C_16  and  C_17
REMARK    8  A    between atoms: C_18  and  C_23
REMARK    9  A    between atoms: C_24  and  O_26
REMARK   10  A    between atoms: C_28  and  C_36
REMARK   11  A    between atoms: C_29  and  C_30
REMARK   12  A    between atoms: C_29  and  C_31
REMARK   13  A    between atoms: C_31  and  C_32
REMARK   14  A    between atoms: C_32  and  C_33
REMARK   15  A    between atoms: C_33  and  O_34
REMARK   16  A    between atoms: C_36  and  C_37
REMARK                            x       y       z     vdW  Elec       q    Type
REMARK                         _______ _______ _______ _____ _____    ______ ____
ROOT
ATOM      1  C   LIG A   1      -5.443   2.350 126.254  0.00  0.00    +0.024 C 
ATOM      2  C   LIG A   1      -4.900   1.036 126.864  0.00  0.00    +0.007 C 
ATOM      3  C   LIG A   1      -6.098   0.151 127.225  0.00  0.00    +0.008 C 
ATOM      4  C   LIG A   1      -7.300   1.085 127.502  0.00  0.00    -0.021 C 
ATOM      5  C   LIG A   1      -8.592   0.349 127.042  0.00  0.00    +0.012 C 
ATOM      6  C   LIG A   1      -7.475   1.602 129.041  0.00  0.00    +0.003 C 
ATOM      7  C   LIG A   1      -8.357   2.916 129.071  0.00  0.00    +0.004 C 
ATOM      8  C   LIG A   1      -7.788   3.950 128.074  0.00  0.00    +0.005 C 
ATOM      9  C   LIG A   1      -7.851   3.445 126.653  0.00  0.00    +0.005 C 
ATOM     10  C   LIG A   1      -6.992   2.221 126.459  0.00  0.00    +0.001 C 
ATOM     11  C   LIG A   1      -6.092   1.807 129.691  0.00  0.00    +0.014 C 
ATOM     12  C   LIG A   1      -8.233   0.594 129.956  0.00  0.00    +0.122 C 
ATOM     13  C   LIG A   1      -8.212   1.038 131.417  0.00  0.00    +0.040 C 
ATOM     14  C   LIG A   1      -8.782   2.449 131.684  0.00  0.00    +0.023 C 
ATOM     15  C   LIG A   1      -8.706   3.544 130.499  0.00  0.00    -0.022 C 
ATOM     16  C   LIG A   1      -7.763   4.729 130.819  0.00  0.00    +0.012 C 
ENDROOT
BRANCH   1  18
ATOM     17  C   LIG A   1      -5.003   4.889 125.808  0.00  0.00    +0.042 C 
ATOM     18  C   LIG A   1      -4.573   3.631 126.581  0.00  0.00    +0.070 C 
ATOM     19  O   LIG A   1      -4.622   4.014 127.966  0.00  0.00    -0.367 OA
ATOM     20  C   LIG A   1      -3.293   4.067 128.527  0.00  0.00    +0.150 C 
ATOM     21  C   LIG A   1      -2.357   4.191 127.343  0.00  0.00    +0.037 C 
ATOM     22  C   LIG A   1      -3.076   3.370 126.295  0.00  0.00    +0.037 C 
BRANCH  20  23
ATOM     23  C   LIG A   1      -3.226   5.181 129.599  0.00  0.00    +0.086 C 
ATOM     24  C   LIG A   1      -2.912   4.654 131.003  0.00  0.00    +0.043 C 
ATOM     25  C   LIG A   1      -4.502   6.020 129.615  0.00  0.00    +0.043 C 
BRANCH  23  26
ATOM     26  O   LIG A   1      -2.150   6.069 129.247  0.00  0.00    -0.387 OA
ATOM     27  H   LIG A   1      -2.211   6.804 129.888  0.00  0.00    +0.210 HD
ENDBRANCH  23  26
ENDBRANCH  20  23
ENDBRANCH   1  18
BRANCH  14  28
ATOM     28  C   LIG A   1      -8.396   2.844 133.131  0.00  0.00    -0.076 C 
ATOM     29  C   LIG A   1      -7.123   2.351 133.774  0.00  0.00    +0.038 C 
ATOM     30  C   LIG A   1      -9.256   3.530 133.908  0.00  0.00    +0.007 C 
ENDBRANCH  14  28
BRANCH  12  31
ATOM     31  O   LIG A   1      -7.646  -0.705 129.879  0.00  0.00    -0.391 OA
ATOM     32  H   LIG A   1      -7.015  -0.787 130.615  0.00  0.00    +0.210 HD
ENDBRANCH  12  31
BRANCH  15  33
ATOM     33  C   LIG A   1     -10.171   4.173 130.435  0.00  0.00    +0.018 C 
BRANCH  33  34
ATOM     34  C   LIG A   1     -10.307   5.699 130.484  0.00  0.00    +0.121 C 
BRANCH  34  35
ATOM     35  C   LIG A   1     -10.835   6.190 131.804  0.00  0.00    +0.305 C 
ATOM     36  O   LIG A   1     -10.202   6.568 132.764  0.00  0.00    -0.251 OA
BRANCH  35  37
ATOM     37  O   LIG A   1     -12.184   6.130 131.845  0.00  0.00    -0.481 OA
ATOM     38  H   LIG A   1     -12.466   7.069 131.818  0.00  0.00    +0.295 HD
ENDBRANCH  35  37
ENDBRANCH  34  35
ENDBRANCH  33  34
ENDBRANCH  15  33
TORSDOF 9
ENDMDL
MODEL 5
REMARK VINA RESULT:      -8.3      4.076      6.553
REMARK  Name = NuBBE_1194
REMARK  16 active torsions:
REMARK  status: ('A' for Active; 'I' for Inactive)
REMARK    1  A    between atoms: C_1  and  C_2
REMARK    2  A    between atoms: C_2  and  C_12
REMARK    3  A    between atoms: C_4  and  C_5
REMARK    4  A    between atoms: C_5  and  C_6
REMARK    5  A    between atoms: C_5  and  O_7
REMARK    6  A    between atoms: C_5  and  C_8
REMARK    7  A    between atoms: C_16  and  C_17
REMARK    8  A    between atoms: C_18  and  C_23
REMARK    9  A    between atoms: C_24  and  O_26
REMARK   10  A    between atoms: C_28  and  C_36
REMARK   11  A    between atoms: C_29  and  C_30
REMARK   12  A    between atoms: C_29  and  C_31
REMARK   13  A    between atoms: C_31  and  C_32
REMARK   14  A    between atoms: C_32  and  C_33
REMARK   15  A    between atoms: C_33  and  O_34
REMARK   16  A    between atoms: C_36  and  C_37
REMARK                            x       y       z     vdW  Elec       q    Type
REMARK                         _______ _______ _______ _____ _____    ______ ____
ROOT
ATOM      1  C   LIG A   1      -7.002  -0.963 130.966  0.00  0.00    +0.024 C 
ATOM      2  C   LIG A   1      -8.050  -1.808 130.204  0.00  0.00    +0.007 C 
ATOM      3  C   LIG A   1      -7.354  -2.453 129.000  0.00  0.00    +0.008 C 
ATOM      4  C   LIG A   1      -6.168  -1.541 128.605  0.00  0.00    -0.021 C 
ATOM      5  C   LIG A   1      -5.027  -2.451 128.063  0.00  0.00    +0.012 C 
ATOM      6  C   LIG A   1      -6.494  -0.359 127.527  0.00  0.00    +0.003 C 
ATOM      7  C   LIG A   1      -5.399   0.780 127.630  0.00  0.00    +0.004 C 
ATOM      8  C   LIG A   1      -5.251   1.232 129.099  0.00  0.00    +0.005 C 
ATOM      9  C   LIG A   1      -4.759   0.108 129.980  0.00  0.00    +0.005 C 
ATOM     10  C   LIG A   1      -5.746  -1.031 130.031  0.00  0.00    +0.001 C 
ATOM     11  C   LIG A   1      -7.923   0.178 127.744  0.00  0.00    +0.014 C 
ATOM     12  C   LIG A   1      -6.436  -0.833 126.044  0.00  0.00    +0.122 C 
ATOM     13  C   LIG A   1      -6.922   0.256 125.088  0.00  0.00    +0.040 C 
ATOM     14  C   LIG A   1      -6.173   1.603 125.190  0.00  0.00    +0.023 C 
ATOM     15  C   LIG A   1      -5.499   2.002 126.603  0.00  0.00    -0.022 C 
ATOM     16  C   LIG A   1      -6.165   3.226 127.275  0.00  0.00    +0.012 C 
ENDROOT
BRANCH   1  18
ATOM     17  C   LIG A   1      -6.805   0.802 132.885  0.00  0.00    +0.042 C 
ATOM     18  C   LIG A   1      -7.583   0.346 131.639  0.00  0.00    +0.070 C 
ATOM     19  O   LIG A   1      -7.577   1.486 130.762  0.00  0.00    -0.367 OA
ATOM     20  C   LIG A   1      -8.905   2.037 130.636  0.00  0.00    +0.150 C 
ATOM     21  C   LIG A   1      -9.672   1.529 131.838  0.00  0.00    +0.037 C 
ATOM     22  C   LIG A   1      -9.065   0.155 132.031  0.00  0.00    +0.037 C 
BRANCH  20  23
ATOM     23  C   LIG A   1      -8.815   3.572 130.455  0.00  0.00    +0.086 C 
ATOM     24  C   LIG A   1      -7.402   4.125 130.665  0.00  0.00    +0.043 C 
ATOM     25  C   LIG A   1      -9.815   4.301 131.350  0.00  0.00    +0.043 C 
BRANCH  23  26
ATOM     26  O   LIG A   1      -9.174   3.878 129.095  0.00  0.00    -0.387 OA
ATOM     27  H   LIG A   1      -8.322   3.957 128.623  0.00  0.00    +0.210 HD
ENDBRANCH  23  26
ENDBRANCH  20  23
ENDBRANCH   1  18
BRANCH  14  28
ATOM     28  C   LIG A   1      -6.988   2.653 124.396  0.00  0.00    -0.076 C 
ATOM     29  C   LIG A   1      -8.495   2.701 124.462  0.00  0.00    +0.038 C 
ATOM     30  C   LIG A   1      -6.381   3.469 123.513  0.00  0.00    +0.007 C 
ENDBRANCH  14  28
BRANCH  12  31
ATOM     31  O   LIG A   1      -7.247  -1.990 125.846  0.00  0.00    -0.391 OA
ATOM     32  H   LIG A   1      -7.558  -2.285 126.719  0.00  0.00    +0.210 HD
ENDBRANCH  12  31
BRANCH  15  33
ATOM     33  C   LIG A   1      -4.022   2.474 126.228  0.00  0.00    +0.018 C 
BRANCH  33  34
ATOM     34  C   LIG A   1      -3.688   3.966 126.342  0.00  0.00    +0.121 C 
BRANCH  34  35
ATOM     35  C   LIG A   1      -2.473   4.222 127.193  0.00  0.00    +0.305 C 
ATOM     36  O   LIG A   1      -2.347   5.032 128.084  0.00  0.00    -0.251 OA
BRANCH  35  37
ATOM     37  O   LIG A   1      -1.440   3.435 126.820  0.00  0.00    -0.481 OA
ATOM     38  H   LIG A   1      -1.862   2.721 126.295  0.00  0.00    +0.295 HD
ENDBRANCH  35  37
ENDBRANCH  34  35
ENDBRANCH  33  34
ENDBRANCH  15  33
TORSDOF 9
ENDMDL
MODEL 6
REMARK VINA RESULT:      -8.2      6.352      9.042
REMARK  Name = NuBBE_1194
REMARK  16 active torsions:
REMARK  status: ('A' for Active; 'I' for Inactive)
REMARK    1  A    between atoms: C_1  and  C_2
REMARK    2  A    between atoms: C_2  and  C_12
REMARK    3  A    between atoms: C_4  and  C_5
REMARK    4  A    between atoms: C_5  and  C_6
REMARK    5  A    between atoms: C_5  and  O_7
REMARK    6  A    between atoms: C_5  and  C_8
REMARK    7  A    between atoms: C_16  and  C_17
REMARK    8  A    between atoms: C_18  and  C_23
REMARK    9  A    between atoms: C_24  and  O_26
REMARK   10  A    between atoms: C_28  and  C_36
REMARK   11  A    between atoms: C_29  and  C_30
REMARK   12  A    between atoms: C_29  and  C_31
REMARK   13  A    between atoms: C_31  and  C_32
REMARK   14  A    between atoms: C_32  and  C_33
REMARK   15  A    between atoms: C_33  and  O_34
REMARK   16  A    between atoms: C_36  and  C_37
REMARK                            x       y       z     vdW  Elec       q    Type
REMARK                         _______ _______ _______ _____ _____    ______ ____
ROOT
ATOM      1  C   LIG A   1      -6.780   0.097 130.245  0.00  0.00    +0.024 C 
ATOM      2  C   LIG A   1      -8.229  -0.389 130.487  0.00  0.00    +0.007 C 
ATOM      3  C   LIG A   1      -8.264  -1.903 130.259  0.00  0.00    +0.008 C 
ATOM      4  C   LIG A   1      -7.133  -2.251 129.262  0.00  0.00    -0.021 C 
ATOM      5  C   LIG A   1      -6.588  -3.662 129.632  0.00  0.00    +0.012 C 
ATOM      6  C   LIG A   1      -7.526  -2.206 127.678  0.00  0.00    +0.003 C 
ATOM      7  C   LIG A   1      -6.217  -2.042 126.803  0.00  0.00    +0.004 C 
ATOM      8  C   LIG A   1      -5.387  -0.849 127.324  0.00  0.00    +0.005 C 
ATOM      9  C   LIG A   1      -4.909  -1.079 128.738  0.00  0.00    +0.005 C 
ATOM     10  C   LIG A   1      -6.063  -1.187 129.703  0.00  0.00    +0.001 C 
ATOM     11  C   LIG A   1      -8.552  -1.085 127.418  0.00  0.00    +0.014 C 
ATOM     12  C   LIG A   1      -8.188  -3.520 127.162  0.00  0.00    +0.122 C 
ATOM     13  C   LIG A   1      -8.698  -3.365 125.730  0.00  0.00    +0.040 C 
ATOM     14  C   LIG A   1      -7.638  -2.924 124.698  0.00  0.00    +0.023 C 
ATOM     15  C   LIG A   1      -6.382  -2.048 125.213  0.00  0.00    -0.022 C 
ATOM     16  C   LIG A   1      -6.372  -0.604 124.658  0.00  0.00    +0.012 C 
ENDROOT
BRANCH   1  18
ATOM     17  C   LIG A   1      -5.355   2.269 129.947  0.00  0.00    +0.042 C 
ATOM     18  C   LIG A   1      -6.673   1.547 129.620  0.00  0.00    +0.070 C 
ATOM     19  O   LIG A   1      -6.753   1.555 128.185  0.00  0.00    -0.367 OA
ATOM     20  C   LIG A   1      -7.825   2.413 127.739  0.00  0.00    +0.150 C 
ATOM     21  C   LIG A   1      -8.112   3.341 128.902  0.00  0.00    +0.037 C 
ATOM     22  C   LIG A   1      -7.846   2.439 130.088  0.00  0.00    +0.037 C 
BRANCH  20  23
ATOM     23  C   LIG A   1      -7.438   3.070 126.392  0.00  0.00    +0.086 C 
ATOM     24  C   LIG A   1      -8.405   2.731 125.253  0.00  0.00    +0.043 C 
ATOM     25  C   LIG A   1      -6.003   2.731 125.996  0.00  0.00    +0.043 C 
BRANCH  23  26
ATOM     26  O   LIG A   1      -7.496   4.497 126.564  0.00  0.00    -0.387 OA
ATOM     27  H   LIG A   1      -7.702   4.849 125.676  0.00  0.00    +0.210 HD
ENDBRANCH  23  26
ENDBRANCH  20  23
ENDBRANCH   1  18
BRANCH  14  28
ATOM     28  C   LIG A   1      -8.385  -2.521 123.402  0.00  0.00    -0.076 C 
ATOM     29  C   LIG A   1      -7.641  -2.142 122.145  0.00  0.00    +0.038 C 
ATOM     30  C   LIG A   1      -9.722  -2.364 123.401  0.00  0.00    +0.007 C 
ENDBRANCH  14  28
BRANCH  12  31
ATOM     31  O   LIG A   1      -9.290  -3.895 127.988  0.00  0.00    -0.391 OA
ATOM     32  H   LIG A   1      -9.187  -3.440 128.841  0.00  0.00    +0.210 HD
ENDBRANCH  12  31
BRANCH  15  33
ATOM     33  C   LIG A   1      -5.104  -2.758 124.571  0.00  0.00    +0.018 C 
BRANCH  33  34
ATOM     34  C   LIG A   1      -5.196  -4.252 124.241  0.00  0.00    +0.121 C 
BRANCH  34  35
ATOM     35  C   LIG A   1      -3.997  -4.750 123.480  0.00  0.00    +0.305 C 
ATOM     36  O   LIG A   1      -2.903  -4.239 123.401  0.00  0.00    -0.251 OA
BRANCH  35  37
ATOM     37  O   LIG A   1      -4.282  -5.886 122.806  0.00  0.00    -0.481 OA
ATOM     38  H   LIG A   1      -3.905  -5.734 121.913  0.00  0.00    +0.295 HD
ENDBRANCH  35  37
ENDBRANCH  34  35
ENDBRANCH  33  34
ENDBRANCH  15  33
TORSDOF 9
ENDMDL
MODEL 7
REMARK VINA RESULT:      -8.1      2.756      6.036
REMARK  Name = NuBBE_1194
REMARK  16 active torsions:
REMARK  status: ('A' for Active; 'I' for Inactive)
REMARK    1  A    between atoms: C_1  and  C_2
REMARK    2  A    between atoms: C_2  and  C_12
REMARK    3  A    between atoms: C_4  and  C_5
REMARK    4  A    between atoms: C_5  and  C_6
REMARK    5  A    between atoms: C_5  and  O_7
REMARK    6  A    between atoms: C_5  and  C_8
REMARK    7  A    between atoms: C_16  and  C_17
REMARK    8  A    between atoms: C_18  and  C_23
REMARK    9  A    between atoms: C_24  and  O_26
REMARK   10  A    between atoms: C_28  and  C_36
REMARK   11  A    between atoms: C_29  and  C_30
REMARK   12  A    between atoms: C_29  and  C_31
REMARK   13  A    between atoms: C_31  and  C_32
REMARK   14  A    between atoms: C_32  and  C_33
REMARK   15  A    between atoms: C_33  and  O_34
REMARK   16  A    between atoms: C_36  and  C_37
REMARK                            x       y       z     vdW  Elec       q    Type
REMARK                         _______ _______ _______ _____ _____    ______ ____
ROOT
ATOM      1  C   LIG A   1      -7.929   1.131 128.454  0.00  0.00    +0.024 C 
ATOM      2  C   LIG A   1      -7.326  -0.092 129.186  0.00  0.00    +0.007 C 
ATOM      3  C   LIG A   1      -7.929  -0.146 130.594  0.00  0.00    +0.008 C 
ATOM      4  C   LIG A   1      -8.319   1.298 130.990  0.00  0.00    -0.021 C 
ATOM      5  C   LIG A   1      -9.589   1.221 131.887  0.00  0.00    +0.012 C 
ATOM      6  C   LIG A   1      -7.165   2.180 131.736  0.00  0.00    +0.003 C 
ATOM      7  C   LIG A   1      -7.487   3.723 131.589  0.00  0.00    +0.004 C 
ATOM      8  C   LIG A   1      -7.740   4.065 130.105  0.00  0.00    +0.005 C 
ATOM      9  C   LIG A   1      -8.949   3.340 129.565  0.00  0.00    +0.005 C 
ATOM     10  C   LIG A   1      -8.753   1.845 129.580  0.00  0.00    +0.001 C 
ATOM     11  C   LIG A   1      -5.775   1.814 131.179  0.00  0.00    +0.014 C 
ATOM     12  C   LIG A   1      -7.088   1.934 133.273  0.00  0.00    +0.122 C 
ATOM     13  C   LIG A   1      -5.884   2.640 133.894  0.00  0.00    +0.040 C 
ATOM     14  C   LIG A   1      -5.815   4.163 133.648  0.00  0.00    +0.023 C 
ATOM     15  C   LIG A   1      -6.509   4.758 132.316  0.00  0.00    -0.022 C 
ATOM     16  C   LIG A   1      -5.496   5.350 131.309  0.00  0.00    +0.012 C 
ENDROOT
BRANCH   1  18
ATOM     17  C   LIG A   1      -7.596   2.956 126.612  0.00  0.00    +0.042 C 
ATOM     18  C   LIG A   1      -6.940   1.841 127.444  0.00  0.00    +0.070 C 
ATOM     19  O   LIG A   1      -5.822   2.471 128.091  0.00  0.00    -0.367 OA
ATOM     20  C   LIG A   1      -4.576   1.967 127.562  0.00  0.00    +0.150 C 
ATOM     21  C   LIG A   1      -4.922   1.362 126.217  0.00  0.00    +0.037 C 
ATOM     22  C   LIG A   1      -6.310   0.815 126.474  0.00  0.00    +0.037 C 
BRANCH  20  23
ATOM     23  C   LIG A   1      -3.513   3.091 127.577  0.00  0.00    +0.086 C 
ATOM     24  C   LIG A   1      -3.351   3.755 128.948  0.00  0.00    +0.043 C 
ATOM     25  C   LIG A   1      -3.792   4.140 126.503  0.00  0.00    +0.043 C 
BRANCH  23  26
ATOM     26  O   LIG A   1      -2.240   2.500 127.258  0.00  0.00    -0.387 OA
ATOM     27  H   LIG A   1      -2.074   2.747 126.328  0.00  0.00    +0.210 HD
ENDBRANCH  23  26
ENDBRANCH  20  23
ENDBRANCH   1  18
BRANCH  14  28
ATOM     28  C   LIG A   1      -4.403   4.641 134.066  0.00  0.00    -0.076 C 
ATOM     29  C   LIG A   1      -4.164   6.032 134.602  0.00  0.00    +0.038 C 
ATOM     30  C   LIG A   1      -3.321   3.874 133.835  0.00  0.00    +0.007 C 
ENDBRANCH  14  28
BRANCH  12  31
ATOM     31  O   LIG A   1      -6.983   0.540 133.562  0.00  0.00    -0.391 OA
ATOM     32  H   LIG A   1      -6.047   0.291 133.473  0.00  0.00    +0.210 HD
ENDBRANCH  12  31
BRANCH  15  33
ATOM     33  C   LIG A   1      -7.372   5.999 132.830  0.00  0.00    +0.018 C 
BRANCH  33  34
ATOM     34  C   LIG A   1      -8.805   5.736 133.306  0.00  0.00    +0.121 C 
BRANCH  34  35
ATOM     35  C   LIG A   1      -9.837   6.206 132.316  0.00  0.00    +0.305 C 
ATOM     36  O   LIG A   1      -9.666   6.895 131.335  0.00  0.00    -0.251 OA
BRANCH  35  37
ATOM     37  O   LIG A   1     -11.075   5.794 132.667  0.00  0.00    -0.481 OA
ATOM     38  H   LIG A   1     -11.085   4.842 132.431  0.00  0.00    +0.295 HD
ENDBRANCH  35  37
ENDBRANCH  34  35
ENDBRANCH  33  34
ENDBRANCH  15  33
TORSDOF 9
ENDMDL
MODEL 8
REMARK VINA RESULT:      -8.0      4.438      7.833
REMARK  Name = NuBBE_1194
REMARK  16 active torsions:
REMARK  status: ('A' for Active; 'I' for Inactive)
REMARK    1  A    between atoms: C_1  and  C_2
REMARK    2  A    between atoms: C_2  and  C_12
REMARK    3  A    between atoms: C_4  and  C_5
REMARK    4  A    between atoms: C_5  and  C_6
REMARK    5  A    between atoms: C_5  and  O_7
REMARK    6  A    between atoms: C_5  and  C_8
REMARK    7  A    between atoms: C_16  and  C_17
REMARK    8  A    between atoms: C_18  and  C_23
REMARK    9  A    between atoms: C_24  and  O_26
REMARK   10  A    between atoms: C_28  and  C_36
REMARK   11  A    between atoms: C_29  and  C_30
REMARK   12  A    between atoms: C_29  and  C_31
REMARK   13  A    between atoms: C_31  and  C_32
REMARK   14  A    between atoms: C_32  and  C_33
REMARK   15  A    between atoms: C_33  and  O_34
REMARK   16  A    between atoms: C_36  and  C_37
REMARK                            x       y       z     vdW  Elec       q    Type
REMARK                         _______ _______ _______ _____ _____    ______ ____
ROOT
ATOM      1  C   LIG A   1      -7.838  -0.453 125.379  0.00  0.00    +0.024 C 
ATOM      2  C   LIG A   1      -9.175   0.174 125.843  0.00  0.00    +0.007 C 
ATOM      3  C   LIG A   1      -9.056   1.696 125.710  0.00  0.00    +0.008 C 
ATOM      4  C   LIG A   1      -7.558   2.060 125.844  0.00  0.00    -0.021 C 
ATOM      5  C   LIG A   1      -7.284   3.294 124.936  0.00  0.00    +0.012 C 
ATOM      6  C   LIG A   1      -7.018   2.352 127.356  0.00  0.00    +0.003 C 
ATOM      7  C   LIG A   1      -5.446   2.172 127.412  0.00  0.00    +0.004 C 
ATOM      8  C   LIG A   1      -5.056   0.803 126.811  0.00  0.00    +0.005 C 
ATOM      9  C   LIG A   1      -5.430   0.709 125.351  0.00  0.00    +0.005 C 
ATOM     10  C   LIG A   1      -6.922   0.798 125.152  0.00  0.00    +0.001 C 
ATOM     11  C   LIG A   1      -7.750   1.445 128.366  0.00  0.00    +0.014 C 
ATOM     12  C   LIG A   1      -7.267   3.814 127.836  0.00  0.00    +0.122 C 
ATOM     13  C   LIG A   1      -6.910   3.988 129.312  0.00  0.00    +0.040 C 
ATOM     14  C   LIG A   1      -5.464   3.599 129.690  0.00  0.00    +0.023 C 
ATOM     15  C   LIG A   1      -4.710   2.484 128.796  0.00  0.00    -0.022 C 
ATOM     16  C   LIG A   1      -4.420   1.175 129.567  0.00  0.00    +0.012 C 
ENDROOT
BRANCH   1  18
ATOM     17  C   LIG A   1      -6.540  -2.722 125.340  0.00  0.00    +0.042 C 
ATOM     18  C   LIG A   1      -7.428  -1.768 126.156  0.00  0.00    +0.070 C 
ATOM     19  O   LIG A   1      -6.685  -1.510 127.359  0.00  0.00    -0.367 OA
ATOM     20  C   LIG A   1      -7.336  -2.109 128.500  0.00  0.00    +0.150 C 
ATOM     21  C   LIG A   1      -8.249  -3.176 127.932  0.00  0.00    +0.037 C 
ATOM     22  C   LIG A   1      -8.679  -2.547 126.624  0.00  0.00    +0.037 C 
BRANCH  20  23
ATOM     23  C   LIG A   1      -6.271  -2.565 129.526  0.00  0.00    +0.086 C 
ATOM     24  C   LIG A   1      -4.840  -2.503 128.982  0.00  0.00    +0.043 C 
ATOM     25  C   LIG A   1      -6.578  -3.959 130.069  0.00  0.00    +0.043 C 
BRANCH  23  26
ATOM     26  O   LIG A   1      -6.321  -1.663 130.645  0.00  0.00    -0.387 OA
ATOM     27  H   LIG A   1      -5.822  -0.875 130.355  0.00  0.00    +0.210 HD
ENDBRANCH  23  26
ENDBRANCH  20  23
ENDBRANCH   1  18
BRANCH  14  28
ATOM     28  C   LIG A   1      -5.384   3.539 131.235  0.00  0.00    -0.076 C 
ATOM     29  C   LIG A   1      -4.118   3.895 131.977  0.00  0.00    +0.038 C 
ATOM     30  C   LIG A   1      -6.402   3.034 131.957  0.00  0.00    +0.007 C 
ENDBRANCH  14  28
BRANCH  12  31
ATOM     31  O   LIG A   1      -8.635   4.181 127.665  0.00  0.00    -0.391 OA
ATOM     32  H   LIG A   1      -9.176   3.542 128.160  0.00  0.00    +0.210 HD
ENDBRANCH  12  31
BRANCH  15  33
ATOM     33  C   LIG A   1      -3.280   3.117 128.482  0.00  0.00    +0.018 C 
BRANCH  33  34
ATOM     34  C   LIG A   1      -3.154   4.059 127.278  0.00  0.00    +0.121 C 
BRANCH  34  35
ATOM     35  C   LIG A   1      -3.264   5.508 127.666  0.00  0.00    +0.305 C 
ATOM     36  O   LIG A   1      -4.244   6.218 127.620  0.00  0.00    -0.251 OA
BRANCH  35  37
ATOM     37  O   LIG A   1      -2.070   6.001 128.063  0.00  0.00    -0.481 OA
ATOM     38  H   LIG A   1      -1.774   5.376 128.759  0.00  0.00    +0.295 HD
ENDBRANCH  35  37
ENDBRANCH  34  35
ENDBRANCH  33  34
ENDBRANCH  15  33
TORSDOF 9
ENDMDL
MODEL 9
REMARK VINA RESULT:      -8.0      4.828      7.577
REMARK  Name = NuBBE_1194
REMARK  16 active torsions:
REMARK  status: ('A' for Active; 'I' for Inactive)
REMARK    1  A    between atoms: C_1  and  C_2
REMARK    2  A    between atoms: C_2  and  C_12
REMARK    3  A    between atoms: C_4  and  C_5
REMARK    4  A    between atoms: C_5  and  C_6
REMARK    5  A    between atoms: C_5  and  O_7
REMARK    6  A    between atoms: C_5  and  C_8
REMARK    7  A    between atoms: C_16  and  C_17
REMARK    8  A    between atoms: C_18  and  C_23
REMARK    9  A    between atoms: C_24  and  O_26
REMARK   10  A    between atoms: C_28  and  C_36
REMARK   11  A    between atoms: C_29  and  C_30
REMARK   12  A    between atoms: C_29  and  C_31
REMARK   13  A    between atoms: C_31  and  C_32
REMARK   14  A    between atoms: C_32  and  C_33
REMARK   15  A    between atoms: C_33  and  O_34
REMARK   16  A    between atoms: C_36  and  C_37
REMARK                            x       y       z     vdW  Elec       q    Type
REMARK                         _______ _______ _______ _____ _____    ______ ____
ROOT
ATOM      1  C   LIG A   1      -6.577   1.726 124.534  0.00  0.00    +0.024 C 
ATOM      2  C   LIG A   1      -6.752   3.263 124.576  0.00  0.00    +0.007 C 
ATOM      3  C   LIG A   1      -5.641   3.842 125.458  0.00  0.00    +0.008 C 
ATOM      4  C   LIG A   1      -5.232   2.747 126.472  0.00  0.00    -0.021 C 
ATOM      5  C   LIG A   1      -3.709   2.903 126.755  0.00  0.00    +0.012 C 
ATOM      6  C   LIG A   1      -6.058   2.720 127.879  0.00  0.00    +0.003 C 
ATOM      7  C   LIG A   1      -5.932   1.292 128.551  0.00  0.00    +0.004 C 
ATOM      8  C   LIG A   1      -6.311   0.199 127.528  0.00  0.00    +0.005 C 
ATOM      9  C   LIG A   1      -5.363   0.185 126.352  0.00  0.00    +0.005 C 
ATOM     10  C   LIG A   1      -5.429   1.473 125.571  0.00  0.00    +0.001 C 
ATOM     11  C   LIG A   1      -7.525   3.130 127.641  0.00  0.00    +0.014 C 
ATOM     12  C   LIG A   1      -5.505   3.711 128.947  0.00  0.00    +0.122 C 
ATOM     13  C   LIG A   1      -6.414   3.780 130.173  0.00  0.00    +0.040 C 
ATOM     14  C   LIG A   1      -6.684   2.428 130.869  0.00  0.00    +0.023 C 
ATOM     15  C   LIG A   1      -6.616   1.080 129.980  0.00  0.00    -0.022 C 
ATOM     16  C   LIG A   1      -7.985   0.375 129.831  0.00  0.00    +0.012 C 
ENDROOT
BRANCH   1  18
ATOM     17  C   LIG A   1      -8.851   1.369 123.295  0.00  0.00    +0.042 C 
ATOM     18  C   LIG A   1      -7.933   0.915 124.442  0.00  0.00    +0.070 C 
ATOM     19  O   LIG A   1      -7.740  -0.493 124.226  0.00  0.00    -0.367 OA
ATOM     20  C   LIG A   1      -8.390  -1.260 125.262  0.00  0.00    +0.150 C 
ATOM     21  C   LIG A   1      -9.420  -0.331 125.870  0.00  0.00    +0.037 C 
ATOM     22  C   LIG A   1      -8.723   1.009 125.766  0.00  0.00    +0.037 C 
BRANCH  20  23
ATOM     23  C   LIG A   1      -8.905  -2.596 124.672  0.00  0.00    +0.086 C 
ATOM     24  C   LIG A   1      -7.917  -3.755 124.843  0.00  0.00    +0.043 C 
ATOM     25  C   LIG A   1      -9.305  -2.443 123.206  0.00  0.00    +0.043 C 
BRANCH  23  26
ATOM     26  O   LIG A   1     -10.095  -2.966 125.391  0.00  0.00    -0.387 OA
ATOM     27  H   LIG A   1      -9.874  -2.825 126.333  0.00  0.00    +0.210 HD
ENDBRANCH  23  26
ENDBRANCH  20  23
ENDBRANCH   1  18
BRANCH  14  28
ATOM     28  C   LIG A   1      -7.848   2.639 131.869  0.00  0.00    -0.076 C 
ATOM     29  C   LIG A   1      -9.053   3.477 131.516  0.00  0.00    +0.038 C 
ATOM     30  C   LIG A   1      -7.754   2.194 133.136  0.00  0.00    +0.007 C 
ENDBRANCH  14  28
BRANCH  12  31
ATOM     31  O   LIG A   1      -5.387   5.027 128.409  0.00  0.00    -0.391 OA
ATOM     32  H   LIG A   1      -5.587   5.657 129.122  0.00  0.00    +0.210 HD
ENDBRANCH  12  31
BRANCH  15  33
ATOM     33  C   LIG A   1      -5.713   0.078 130.834  0.00  0.00    +0.018 C 
BRANCH  33  34
ATOM     34  C   LIG A   1      -4.234  -0.065 130.455  0.00  0.00    +0.121 C 
BRANCH  34  35
ATOM     35  C   LIG A   1      -3.828  -1.498 130.245  0.00  0.00    +0.305 C 
ATOM     36  O   LIG A   1      -2.773  -2.021 130.524  0.00  0.00    -0.251 OA
BRANCH  35  37
ATOM     37  O   LIG A   1      -4.807  -2.199 129.631  0.00  0.00    -0.481 OA
ATOM     38  H   LIG A   1      -5.062  -2.879 130.290  0.00  0.00    +0.295 HD
ENDBRANCH  35  37
ENDBRANCH  34  35
ENDBRANCH  33  34
ENDBRANCH  15  33
TORSDOF 9
ENDMDL
