MODEL 1
REMARK VINA RESULT:      -8.6      0.000      0.000
REMARK  Name = NuBBE_371
REMARK  12 active torsions:
REMARK  status: ('A' for Active; 'I' for Inactive)
REMARK    1  A    between atoms: O_1  and  C_2
REMARK    2  A    between atoms: C_8  and  O_36
REMARK    3  A    between atoms: C_9  and  C_10
REMARK    4  A    between atoms: C_13  and  C_32
REMARK    5  A    between atoms: C_15  and  O_31
REMARK    6  A    between atoms: C_17  and  O_30
REMARK    7  A    between atoms: C_19  and  O_21
REMARK    8  A    between atoms: O_21  and  C_22
REMARK    9  A    between atoms: C_22  and  C_23
REMARK   10  A    between atoms: C_32  and  O_33
REMARK   11  A    between atoms: C_34  and  O_35
REMARK   12  A    between atoms: C_42  and  O_43
REMARK                            x       y       z     vdW  Elec       q    Type
REMARK                         _______ _______ _______ _____ _____    ______ ____
ROOT
ATOM      1  C   LIG A   1      -5.672   4.704 120.455  0.00  0.00    +0.162 A 
ATOM      2  C   LIG A   1      -6.652   3.796 120.859  0.00  0.00    +0.096 A 
ATOM      3  C   LIG A   1      -6.719   3.407 122.198  0.00  0.00    +0.143 A 
ATOM      4  O   LIG A   1      -7.704   2.507 122.525  0.00  0.00    -0.454 OA
ATOM      5  C   LIG A   1      -7.801   2.089 123.831  0.00  0.00    +0.146 A 
ATOM      6  C   LIG A   1      -8.804   1.159 124.109  0.00  0.00    +0.093 A 
ATOM      7  C   LIG A   1      -8.975   0.678 125.412  0.00  0.00    +0.130 A 
ATOM      8  C   LIG A   1      -8.142   1.091 126.461  0.00  0.00    +0.068 A 
ATOM      9  C   LIG A   1      -7.146   2.048 126.161  0.00  0.00    +0.141 A 
ATOM     10  C   LIG A   1      -6.975   2.536 124.855  0.00  0.00    +0.106 A 
ATOM     11  C   LIG A   1      -5.921   3.508 124.519  0.00  0.00    +0.204 A 
ATOM     12  O   LIG A   1      -5.164   3.939 125.382  0.00  0.00    -0.286 OA
ATOM     13  C   LIG A   1      -5.813   3.932 123.118  0.00  0.00    +0.068 A 
ATOM     14  C   LIG A   1      -4.825   4.840 122.719  0.00  0.00    +0.064 A 
ATOM     15  C   LIG A   1      -4.760   5.220 121.381  0.00  0.00    +0.159 A 
ENDROOT
BRANCH   8  16
ATOM     16  C   LIG A   1      -8.283   0.533 127.874  0.00  0.00    +0.199 C 
ATOM     17  O   LIG A   1      -8.199   1.593 128.845  0.00  0.00    -0.360 OA
ATOM     18  C   LIG A   1      -8.500   1.109 130.161  0.00  0.00    +0.175 C 
ATOM     19  C   LIG A   1      -7.372   0.176 130.613  0.00  0.00    +0.177 C 
ATOM     20  C   LIG A   1      -7.298  -1.033 129.681  0.00  0.00    +0.189 C 
ATOM     21  C   LIG A   1      -7.285  -0.621 128.191  0.00  0.00    +0.241 C 
BRANCH  20  22
ATOM     22  O   LIG A   1      -6.124  -1.797 130.021  0.00  0.00    -0.385 OA
ATOM     23  H   LIG A   1      -5.454  -1.594 129.336  0.00  0.00    +0.210 HD
ENDBRANCH  20  22
BRANCH  19  24
ATOM     24  O   LIG A   1      -7.543  -0.289 131.965  0.00  0.00    -0.387 OA
ATOM     25  H   LIG A   1      -7.731  -1.248 131.933  0.00  0.00    +0.210 HD
ENDBRANCH  19  24
BRANCH  21  26
ATOM     26  O   LIG A   1      -7.521  -1.776 127.346  0.00  0.00    -0.452 OA
BRANCH  26  27
ATOM     27  C   LIG A   1      -6.487  -2.189 126.563  0.00  0.00    +0.340 C 
ATOM     28  O   LIG A   1      -5.363  -2.458 126.922  0.00  0.00    -0.245 OA
BRANCH  27  29
ATOM     29  C   LIG A   1      -6.902  -2.244 125.151  0.00  0.00    +0.059 A 
ATOM     30  C   LIG A   1      -6.160  -1.509 124.219  0.00  0.00    +0.015 A 
ATOM     31  C   LIG A   1      -6.592  -1.440 122.896  0.00  0.00    +0.001 A 
ATOM     32  C   LIG A   1      -7.755  -2.107 122.512  0.00  0.00    +0.000 A 
ATOM     33  C   LIG A   1      -8.481  -2.858 123.439  0.00  0.00    +0.001 A 
ATOM     34  C   LIG A   1      -8.051  -2.934 124.760  0.00  0.00    +0.015 A 
ENDBRANCH  27  29
ENDBRANCH  26  27
ENDBRANCH  21  26
BRANCH  18  35
ATOM     35  C   LIG A   1      -8.657   2.304 131.102  0.00  0.00    +0.190 C 
BRANCH  35  36
ATOM     36  O   LIG A   1      -9.465   1.995 132.233  0.00  0.00    -0.392 OA
ATOM     37  H   LIG A   1     -10.208   2.635 132.235  0.00  0.00    +0.209 HD
ENDBRANCH  35  36
ENDBRANCH  18  35
ENDBRANCH   8  16
BRANCH   1  38
ATOM     38  O   LIG A   1      -5.591   5.096 119.149  0.00  0.00    -0.503 OA
ATOM     39  H   LIG A   1      -5.721   4.331 118.569  0.00  0.00    +0.292 HD
ENDBRANCH   1  38
BRANCH   9  40
ATOM     40  O   LIG A   1      -6.339   2.493 127.179  0.00  0.00    -0.505 OA
ATOM     41  H   LIG A   1      -6.822   3.177 127.696  0.00  0.00    +0.292 HD
ENDBRANCH   9  40
BRANCH   7  42
ATOM     42  O   LIG A   1      -9.981  -0.209 125.672  0.00  0.00    -0.506 OA
ATOM     43  H   LIG A   1     -10.839   0.220 125.527  0.00  0.00    +0.292 HD
ENDBRANCH   7  42
BRANCH  15  44
ATOM     44  O   LIG A   1      -3.808   6.103 120.958  0.00  0.00    -0.503 OA
ATOM     45  H   LIG A   1      -2.926   5.721 121.094  0.00  0.00    +0.292 HD
ENDBRANCH  15  44
TORSDOF 12
ENDMDL
MODEL 2
REMARK VINA RESULT:      -8.4      1.295      2.407
REMARK  Name = NuBBE_371
REMARK  12 active torsions:
REMARK  status: ('A' for Active; 'I' for Inactive)
REMARK    1  A    between atoms: O_1  and  C_2
REMARK    2  A    between atoms: C_8  and  O_36
REMARK    3  A    between atoms: C_9  and  C_10
REMARK    4  A    between atoms: C_13  and  C_32
REMARK    5  A    between atoms: C_15  and  O_31
REMARK    6  A    between atoms: C_17  and  O_30
REMARK    7  A    between atoms: C_19  and  O_21
REMARK    8  A    between atoms: O_21  and  C_22
REMARK    9  A    between atoms: C_22  and  C_23
REMARK   10  A    between atoms: C_32  and  O_33
REMARK   11  A    between atoms: C_34  and  O_35
REMARK   12  A    between atoms: C_42  and  O_43
REMARK                            x       y       z     vdW  Elec       q    Type
REMARK                         _______ _______ _______ _____ _____    ______ ____
ROOT
ATOM      1  C   LIG A   1      -7.114   4.173 120.242  0.00  0.00    +0.162 A 
ATOM      2  C   LIG A   1      -6.310   3.895 121.348  0.00  0.00    +0.096 A 
ATOM      3  C   LIG A   1      -6.871   3.278 122.467  0.00  0.00    +0.143 A 
ATOM      4  O   LIG A   1      -6.025   3.039 123.524  0.00  0.00    -0.454 OA
ATOM      5  C   LIG A   1      -6.537   2.442 124.650  0.00  0.00    +0.146 A 
ATOM      6  C   LIG A   1      -5.642   2.239 125.702  0.00  0.00    +0.093 A 
ATOM      7  C   LIG A   1      -6.077   1.636 126.888  0.00  0.00    +0.130 A 
ATOM      8  C   LIG A   1      -7.411   1.244 127.065  0.00  0.00    +0.068 A 
ATOM      9  C   LIG A   1      -8.295   1.442 125.980  0.00  0.00    +0.141 A 
ATOM     10  C   LIG A   1      -7.861   2.041 124.786  0.00  0.00    +0.106 A 
ATOM     11  C   LIG A   1      -8.775   2.284 123.658  0.00  0.00    +0.204 A 
ATOM     12  O   LIG A   1      -9.954   1.950 123.722  0.00  0.00    -0.286 OA
ATOM     13  C   LIG A   1      -8.223   2.941 122.468  0.00  0.00    +0.068 A 
ATOM     14  C   LIG A   1      -9.036   3.221 121.363  0.00  0.00    +0.064 A 
ATOM     15  C   LIG A   1      -8.472   3.840 120.251  0.00  0.00    +0.159 A 
ENDROOT
BRANCH   8  16
ATOM     16  C   LIG A   1      -7.910   0.638 128.374  0.00  0.00    +0.199 C 
ATOM     17  O   LIG A   1      -7.612   1.512 129.478  0.00  0.00    -0.360 OA
ATOM     18  C   LIG A   1      -8.223   1.039 130.686  0.00  0.00    +0.175 C 
ATOM     19  C   LIG A   1      -7.531  -0.258 131.114  0.00  0.00    +0.177 C 
ATOM     20  C   LIG A   1      -7.734  -1.329 130.042  0.00  0.00    +0.189 C 
ATOM     21  C   LIG A   1      -7.393  -0.810 128.627  0.00  0.00    +0.241 C 
BRANCH  20  22
ATOM     22  O   LIG A   1      -6.927  -2.474 130.387  0.00  0.00    -0.385 OA
ATOM     23  H   LIG A   1      -7.403  -2.940 131.105  0.00  0.00    +0.210 HD
ENDBRANCH  20  22
BRANCH  19  24
ATOM     24  O   LIG A   1      -8.018  -0.760 132.372  0.00  0.00    -0.387 OA
ATOM     25  H   LIG A   1      -8.490  -0.034 132.825  0.00  0.00    +0.210 HD
ENDBRANCH  19  24
BRANCH  21  26
ATOM     26  O   LIG A   1      -7.880  -1.733 127.620  0.00  0.00    -0.452 OA
BRANCH  26  27
ATOM     27  C   LIG A   1      -6.969  -2.210 126.728  0.00  0.00    +0.340 C 
ATOM     28  O   LIG A   1      -5.798  -2.437 126.934  0.00  0.00    -0.245 OA
BRANCH  27  29
ATOM     29  C   LIG A   1      -7.593  -2.397 125.407  0.00  0.00    +0.059 A 
ATOM     30  C   LIG A   1      -7.134  -1.608 124.346  0.00  0.00    +0.015 A 
ATOM     31  C   LIG A   1      -7.779  -1.670 123.113  0.00  0.00    +0.001 A 
ATOM     32  C   LIG A   1      -8.871  -2.521 122.946  0.00  0.00    +0.000 A 
ATOM     33  C   LIG A   1      -9.314  -3.323 123.999  0.00  0.00    +0.001 A 
ATOM     34  C   LIG A   1      -8.669  -3.268 125.232  0.00  0.00    +0.015 A 
ENDBRANCH  27  29
ENDBRANCH  26  27
ENDBRANCH  21  26
BRANCH  18  35
ATOM     35  C   LIG A   1      -8.104   2.125 131.757  0.00  0.00    +0.190 C 
BRANCH  35  36
ATOM     36  O   LIG A   1      -8.913   1.848 132.896  0.00  0.00    -0.392 OA
ATOM     37  H   LIG A   1      -9.799   1.597 132.559  0.00  0.00    +0.209 HD
ENDBRANCH  35  36
ENDBRANCH  18  35
ENDBRANCH   8  16
BRANCH   1  38
ATOM     38  O   LIG A   1      -6.583   4.777 119.137  0.00  0.00    -0.503 OA
ATOM     39  H   LIG A   1      -7.206   4.714 118.398  0.00  0.00    +0.292 HD
ENDBRANCH   1  38
BRANCH   9  40
ATOM     40  O   LIG A   1      -9.599   1.035 126.116  0.00  0.00    -0.505 OA
ATOM     41  H   LIG A   1      -9.739   0.704 127.033  0.00  0.00    +0.292 HD
ENDBRANCH   9  40
BRANCH   7  42
ATOM     42  O   LIG A   1      -5.181   1.419 127.896  0.00  0.00    -0.506 OA
ATOM     43  H   LIG A   1      -5.623   0.966 128.633  0.00  0.00    +0.292 HD
ENDBRANCH   7  42
BRANCH  15  44
ATOM     44  O   LIG A   1      -9.236   4.128 119.157  0.00  0.00    -0.503 OA
ATOM     45  H   LIG A   1      -9.557   5.042 119.215  0.00  0.00    +0.292 HD
ENDBRANCH  15  44
TORSDOF 12
ENDMDL
MODEL 3
REMARK VINA RESULT:      -7.9      5.628      9.532
REMARK  Name = NuBBE_371
REMARK  12 active torsions:
REMARK  status: ('A' for Active; 'I' for Inactive)
REMARK    1  A    between atoms: O_1  and  C_2
REMARK    2  A    between atoms: C_8  and  O_36
REMARK    3  A    between atoms: C_9  and  C_10
REMARK    4  A    between atoms: C_13  and  C_32
REMARK    5  A    between atoms: C_15  and  O_31
REMARK    6  A    between atoms: C_17  and  O_30
REMARK    7  A    between atoms: C_19  and  O_21
REMARK    8  A    between atoms: O_21  and  C_22
REMARK    9  A    between atoms: C_22  and  C_23
REMARK   10  A    between atoms: C_32  and  O_33
REMARK   11  A    between atoms: C_34  and  O_35
REMARK   12  A    between atoms: C_42  and  O_43
REMARK                            x       y       z     vdW  Elec       q    Type
REMARK                         _______ _______ _______ _____ _____    ______ ____
ROOT
ATOM      1  C   LIG A   1      -6.681  -2.528 131.288  0.00  0.00    +0.162 A 
ATOM      2  C   LIG A   1      -7.212  -1.570 132.151  0.00  0.00    +0.096 A 
ATOM      3  C   LIG A   1      -7.729  -0.384 131.627  0.00  0.00    +0.143 A 
ATOM      4  O   LIG A   1      -8.230   0.519 132.534  0.00  0.00    -0.454 OA
ATOM      5  C   LIG A   1      -8.741   1.704 132.063  0.00  0.00    +0.146 A 
ATOM      6  C   LIG A   1      -9.220   2.596 133.024  0.00  0.00    +0.093 A 
ATOM      7  C   LIG A   1      -9.758   3.828 132.635  0.00  0.00    +0.130 A 
ATOM      8  C   LIG A   1      -9.813   4.211 131.288  0.00  0.00    +0.068 A 
ATOM      9  C   LIG A   1      -9.340   3.285 130.330  0.00  0.00    +0.141 A 
ATOM     10  C   LIG A   1      -8.805   2.045 130.717  0.00  0.00    +0.106 A 
ATOM     11  C   LIG A   1      -8.279   1.082 129.735  0.00  0.00    +0.204 A 
ATOM     12  O   LIG A   1      -8.310   1.330 128.534  0.00  0.00    -0.286 OA
ATOM     13  C   LIG A   1      -7.717  -0.172 130.250  0.00  0.00    +0.068 A 
ATOM     14  C   LIG A   1      -7.182  -1.127 129.378  0.00  0.00    +0.064 A 
ATOM     15  C   LIG A   1      -6.663  -2.306 129.907  0.00  0.00    +0.159 A 
ENDROOT
BRANCH   8  16
ATOM     16  C   LIG A   1     -10.346   5.574 130.855  0.00  0.00    +0.199 C 
ATOM     17  O   LIG A   1     -11.332   5.421 129.817  0.00  0.00    -0.360 OA
ATOM     18  C   LIG A   1     -11.964   6.674 129.521  0.00  0.00    +0.175 C 
ATOM     19  C   LIG A   1     -10.940   7.596 128.852  0.00  0.00    +0.177 C 
ATOM     20  C   LIG A   1      -9.788   7.875 129.817  0.00  0.00    +0.189 C 
ATOM     21  C   LIG A   1      -9.228   6.579 130.446  0.00  0.00    +0.241 C 
BRANCH  20  22
ATOM     22  O   LIG A   1      -8.763   8.594 129.102  0.00  0.00    -0.385 OA
ATOM     23  H   LIG A   1      -7.909   8.328 129.502  0.00  0.00    +0.210 HD
ENDBRANCH  20  22
BRANCH  19  24
ATOM     24  O   LIG A   1     -11.511   8.850 128.434  0.00  0.00    -0.387 OA
ATOM     25  H   LIG A   1     -10.803   9.381 128.018  0.00  0.00    +0.210 HD
ENDBRANCH  19  24
BRANCH  21  26
ATOM     26  O   LIG A   1      -8.361   6.895 131.565  0.00  0.00    -0.452 OA
BRANCH  26  27
ATOM     27  C   LIG A   1      -7.021   6.770 131.362  0.00  0.00    +0.340 C 
ATOM     28  O   LIG A   1      -6.327   7.449 130.641  0.00  0.00    -0.245 OA
BRANCH  27  29
ATOM     29  C   LIG A   1      -6.488   5.634 132.134  0.00  0.00    +0.059 A 
ATOM     30  C   LIG A   1      -5.918   4.569 131.427  0.00  0.00    +0.015 A 
ATOM     31  C   LIG A   1      -5.512   3.427 132.114  0.00  0.00    +0.001 A 
ATOM     32  C   LIG A   1      -5.675   3.356 133.497  0.00  0.00    +0.000 A 
ATOM     33  C   LIG A   1      -6.225   4.428 134.203  0.00  0.00    +0.001 A 
ATOM     34  C   LIG A   1      -6.626   5.574 133.522  0.00  0.00    +0.015 A 
ENDBRANCH  27  29
ENDBRANCH  26  27
ENDBRANCH  21  26
BRANCH  18  35
ATOM     35  C   LIG A   1     -13.171   6.417 128.617  0.00  0.00    +0.190 C 
BRANCH  35  36
ATOM     36  O   LIG A   1     -12.873   6.648 127.244  0.00  0.00    -0.392 OA
ATOM     37  H   LIG A   1     -13.412   6.015 126.726  0.00  0.00    +0.209 HD
ENDBRANCH  35  36
ENDBRANCH  18  35
ENDBRANCH   8  16
BRANCH   1  38
ATOM     38  O   LIG A   1      -6.170  -3.695 131.782  0.00  0.00    -0.503 OA
ATOM     39  H   LIG A   1      -6.700  -3.990 132.538  0.00  0.00    +0.292 HD
ENDBRANCH   1  38
BRANCH   9  40
ATOM     40  O   LIG A   1      -9.415   3.623 129.001  0.00  0.00    -0.505 OA
ATOM     41  H   LIG A   1      -9.466   4.602 128.921  0.00  0.00    +0.292 HD
ENDBRANCH   9  40
BRANCH   7  42
ATOM     42  O   LIG A   1     -10.248   4.676 133.587  0.00  0.00    -0.506 OA
ATOM     43  H   LIG A   1     -11.133   4.384 133.859  0.00  0.00    +0.292 HD
ENDBRANCH   7  42
BRANCH  15  44
ATOM     44  O   LIG A   1      -6.133  -3.259 129.085  0.00  0.00    -0.503 OA
ATOM     45  H   LIG A   1      -6.278  -3.008 128.159  0.00  0.00    +0.292 HD
ENDBRANCH  15  44
TORSDOF 12
ENDMDL
MODEL 4
REMARK VINA RESULT:      -7.9      6.943      9.126
REMARK  Name = NuBBE_371
REMARK  12 active torsions:
REMARK  status: ('A' for Active; 'I' for Inactive)
REMARK    1  A    between atoms: O_1  and  C_2
REMARK    2  A    between atoms: C_8  and  O_36
REMARK    3  A    between atoms: C_9  and  C_10
REMARK    4  A    between atoms: C_13  and  C_32
REMARK    5  A    between atoms: C_15  and  O_31
REMARK    6  A    between atoms: C_17  and  O_30
REMARK    7  A    between atoms: C_19  and  O_21
REMARK    8  A    between atoms: O_21  and  C_22
REMARK    9  A    between atoms: C_22  and  C_23
REMARK   10  A    between atoms: C_32  and  O_33
REMARK   11  A    between atoms: C_34  and  O_35
REMARK   12  A    between atoms: C_42  and  O_43
REMARK                            x       y       z     vdW  Elec       q    Type
REMARK                         _______ _______ _______ _____ _____    ______ ____
ROOT
ATOM      1  C   LIG A   1     -11.454   8.031 128.593  0.00  0.00    +0.162 A 
ATOM      2  C   LIG A   1     -10.081   7.975 128.831  0.00  0.00    +0.096 A 
ATOM      3  C   LIG A   1      -9.608   7.338 129.981  0.00  0.00    +0.143 A 
ATOM      4  O   LIG A   1      -8.245   7.325 130.156  0.00  0.00    -0.454 OA
ATOM      5  C   LIG A   1      -7.736   6.717 131.279  0.00  0.00    +0.146 A 
ATOM      6  C   LIG A   1      -6.348   6.747 131.423  0.00  0.00    +0.093 A 
ATOM      7  C   LIG A   1      -5.743   6.152 132.535  0.00  0.00    +0.130 A 
ATOM      8  C   LIG A   1      -6.502   5.535 133.540  0.00  0.00    +0.068 A 
ATOM      9  C   LIG A   1      -7.904   5.500 133.365  0.00  0.00    +0.141 A 
ATOM     10  C   LIG A   1      -8.514   6.091 132.246  0.00  0.00    +0.106 A 
ATOM     11  C   LIG A   1      -9.975   6.092 132.064  0.00  0.00    +0.204 A 
ATOM     12  O   LIG A   1     -10.711   5.553 132.886  0.00  0.00    -0.286 OA
ATOM     13  C   LIG A   1     -10.509   6.761 130.873  0.00  0.00    +0.068 A 
ATOM     14  C   LIG A   1     -11.889   6.818 130.642  0.00  0.00    +0.064 A 
ATOM     15  C   LIG A   1     -12.354   7.458 129.496  0.00  0.00    +0.159 A 
ENDROOT
BRANCH   8  16
ATOM     16  C   LIG A   1      -5.858   4.933 134.785  0.00  0.00    +0.199 C 
ATOM     17  O   LIG A   1      -4.800   5.783 135.266  0.00  0.00    -0.360 OA
ATOM     18  C   LIG A   1      -4.302   5.319 136.528  0.00  0.00    +0.175 C 
ATOM     19  C   LIG A   1      -3.567   3.993 136.310  0.00  0.00    +0.177 C 
ATOM     20  C   LIG A   1      -4.545   2.942 135.784  0.00  0.00    +0.189 C 
ATOM     21  C   LIG A   1      -5.375   3.465 134.590  0.00  0.00    +0.241 C 
BRANCH  20  22
ATOM     22  O   LIG A   1      -3.794   1.765 135.423  0.00  0.00    -0.385 OA
ATOM     23  H   LIG A   1      -4.404   1.196 134.909  0.00  0.00    +0.210 HD
ENDBRANCH  20  22
BRANCH  19  24
ATOM     24  O   LIG A   1      -2.952   3.494 137.512  0.00  0.00    -0.387 OA
ATOM     25  H   LIG A   1      -3.628   2.999 138.015  0.00  0.00    +0.210 HD
ENDBRANCH  19  24
BRANCH  21  26
ATOM     26  O   LIG A   1      -6.485   2.571 134.317  0.00  0.00    -0.452 OA
BRANCH  26  27
ATOM     27  C   LIG A   1      -6.383   1.780 133.214  0.00  0.00    +0.340 C 
ATOM     28  O   LIG A   1      -5.528   0.954 132.987  0.00  0.00    -0.245 OA
BRANCH  27  29
ATOM     29  C   LIG A   1      -7.469   2.079 132.265  0.00  0.00    +0.059 A 
ATOM     30  C   LIG A   1      -7.132   2.696 131.055  0.00  0.00    +0.015 A 
ATOM     31  C   LIG A   1      -8.142   3.102 130.185  0.00  0.00    +0.001 A 
ATOM     32  C   LIG A   1      -9.477   2.886 130.526  0.00  0.00    +0.000 A 
ATOM     33  C   LIG A   1      -9.810   2.251 131.724  0.00  0.00    +0.001 A 
ATOM     34  C   LIG A   1      -8.804   1.839 132.594  0.00  0.00    +0.015 A 
ENDBRANCH  27  29
ENDBRANCH  26  27
ENDBRANCH  21  26
BRANCH  18  35
ATOM     35  C   LIG A   1      -3.379   6.388 137.117  0.00  0.00    +0.190 C 
BRANCH  35  36
ATOM     36  O   LIG A   1      -2.013   6.162 136.781  0.00  0.00    -0.392 OA
ATOM     37  H   LIG A   1      -1.499   6.250 137.610  0.00  0.00    +0.209 HD
ENDBRANCH  35  36
ENDBRANCH  18  35
ENDBRANCH   8  16
BRANCH   1  38
ATOM     38  O   LIG A   1     -11.935   8.650 127.474  0.00  0.00    -0.503 OA
ATOM     39  H   LIG A   1     -11.263   8.632 126.775  0.00  0.00    +0.292 HD
ENDBRANCH   1  38
BRANCH   9  40
ATOM     40  O   LIG A   1      -8.666   4.872 134.319  0.00  0.00    -0.505 OA
ATOM     41  H   LIG A   1      -8.232   4.975 135.196  0.00  0.00    +0.292 HD
ENDBRANCH   9  40
BRANCH   7  42
ATOM     42  O   LIG A   1      -4.382   6.166 132.644  0.00  0.00    -0.506 OA
ATOM     43  H   LIG A   1      -4.082   5.355 133.087  0.00  0.00    +0.292 HD
ENDBRANCH   7  42
BRANCH  15  44
ATOM     44  O   LIG A   1     -13.693   7.532 129.241  0.00  0.00    -0.503 OA
ATOM     45  H   LIG A   1     -13.883   8.332 128.725  0.00  0.00    +0.292 HD
ENDBRANCH  15  44
TORSDOF 12
ENDMDL
MODEL 5
REMARK VINA RESULT:      -7.9      2.332      7.986
REMARK  Name = NuBBE_371
REMARK  12 active torsions:
REMARK  status: ('A' for Active; 'I' for Inactive)
REMARK    1  A    between atoms: O_1  and  C_2
REMARK    2  A    between atoms: C_8  and  O_36
REMARK    3  A    between atoms: C_9  and  C_10
REMARK    4  A    between atoms: C_13  and  C_32
REMARK    5  A    between atoms: C_15  and  O_31
REMARK    6  A    between atoms: C_17  and  O_30
REMARK    7  A    between atoms: C_19  and  O_21
REMARK    8  A    between atoms: O_21  and  C_22
REMARK    9  A    between atoms: C_22  and  C_23
REMARK   10  A    between atoms: C_32  and  O_33
REMARK   11  A    between atoms: C_34  and  O_35
REMARK   12  A    between atoms: C_42  and  O_43
REMARK                            x       y       z     vdW  Elec       q    Type
REMARK                         _______ _______ _______ _____ _____    ______ ____
ROOT
ATOM      1  C   LIG A   1      -6.711  -3.430 132.612  0.00  0.00    +0.162 A 
ATOM      2  C   LIG A   1      -6.161  -3.572 131.338  0.00  0.00    +0.096 A 
ATOM      3  C   LIG A   1      -6.422  -2.606 130.365  0.00  0.00    +0.143 A 
ATOM      4  O   LIG A   1      -5.854  -2.812 129.130  0.00  0.00    -0.454 OA
ATOM      5  C   LIG A   1      -6.093  -1.891 128.139  0.00  0.00    +0.146 A 
ATOM      6  C   LIG A   1      -5.511  -2.154 126.898  0.00  0.00    +0.093 A 
ATOM      7  C   LIG A   1      -5.701  -1.269 125.830  0.00  0.00    +0.130 A 
ATOM      8  C   LIG A   1      -6.490  -0.118 125.963  0.00  0.00    +0.068 A 
ATOM      9  C   LIG A   1      -7.054   0.138 127.234  0.00  0.00    +0.141 A 
ATOM     10  C   LIG A   1      -6.861  -0.744 128.309  0.00  0.00    +0.106 A 
ATOM     11  C   LIG A   1      -7.467  -0.509 129.629  0.00  0.00    +0.204 A 
ATOM     12  O   LIG A   1      -8.153   0.487 129.838  0.00  0.00    -0.286 OA
ATOM     13  C   LIG A   1      -7.223  -1.509 130.675  0.00  0.00    +0.068 A 
ATOM     14  C   LIG A   1      -7.782  -1.362 131.950  0.00  0.00    +0.064 A 
ATOM     15  C   LIG A   1      -7.521  -2.331 132.916  0.00  0.00    +0.159 A 
ENDROOT
BRANCH   8  16
ATOM     16  C   LIG A   1      -6.750   0.824 124.792  0.00  0.00    +0.199 C 
ATOM     17  O   LIG A   1      -6.747   2.193 125.238  0.00  0.00    -0.360 OA
ATOM     18  C   LIG A   1      -6.819   3.096 124.125  0.00  0.00    +0.175 C 
ATOM     19  C   LIG A   1      -8.204   2.975 123.482  0.00  0.00    +0.177 C 
ATOM     20  C   LIG A   1      -8.401   1.559 122.943  0.00  0.00    +0.189 C 
ATOM     21  C   LIG A   1      -8.041   0.481 123.990  0.00  0.00    +0.241 C 
BRANCH  20  22
ATOM     22  O   LIG A   1      -9.769   1.427 122.507  0.00  0.00    -0.385 OA
ATOM     23  H   LIG A   1      -9.753   0.843 121.720  0.00  0.00    +0.210 HD
ENDBRANCH  20  22
BRANCH  19  24
ATOM     24  O   LIG A   1      -8.402   3.914 122.408  0.00  0.00    -0.387 OA
ATOM     25  H   LIG A   1      -8.909   3.464 121.704  0.00  0.00    +0.210 HD
ENDBRANCH  19  24
BRANCH  21  26
ATOM     26  O   LIG A   1      -7.946  -0.823 123.361  0.00  0.00    -0.452 OA
BRANCH  26  27
ATOM     27  C   LIG A   1      -9.039  -1.630 123.445  0.00  0.00    +0.340 C 
ATOM     28  O   LIG A   1     -10.040  -1.573 122.768  0.00  0.00    -0.245 OA
BRANCH  27  29
ATOM     29  C   LIG A   1      -8.870  -2.610 124.532  0.00  0.00    +0.059 A 
ATOM     30  C   LIG A   1      -9.475  -2.336 125.764  0.00  0.00    +0.015 A 
ATOM     31  C   LIG A   1      -9.240  -3.178 126.849  0.00  0.00    +0.001 A 
ATOM     32  C   LIG A   1      -8.409  -4.287 126.696  0.00  0.00    +0.000 A 
ATOM     33  C   LIG A   1      -7.824  -4.571 125.461  0.00  0.00    +0.001 A 
ATOM     34  C   LIG A   1      -8.060  -3.735 124.373  0.00  0.00    +0.015 A 
ENDBRANCH  27  29
ENDBRANCH  26  27
ENDBRANCH  21  26
BRANCH  18  35
ATOM     35  C   LIG A   1      -6.547   4.516 124.624  0.00  0.00    +0.190 C 
BRANCH  35  36
ATOM     36  O   LIG A   1      -7.743   5.188 125.008  0.00  0.00    -0.392 OA
ATOM     37  H   LIG A   1      -8.389   4.496 125.261  0.00  0.00    +0.209 HD
ENDBRANCH  35  36
ENDBRANCH  18  35
ENDBRANCH   8  16
BRANCH   1  38
ATOM     38  O   LIG A   1      -6.466  -4.365 133.578  0.00  0.00    -0.503 OA
ATOM     39  H   LIG A   1      -7.214  -4.978 133.637  0.00  0.00    +0.292 HD
ENDBRANCH   1  38
BRANCH   9  40
ATOM     40  O   LIG A   1      -7.803   1.278 127.398  0.00  0.00    -0.505 OA
ATOM     41  H   LIG A   1      -8.320   1.205 128.232  0.00  0.00    +0.292 HD
ENDBRANCH   9  40
BRANCH   7  42
ATOM     42  O   LIG A   1      -5.100  -1.528 124.631  0.00  0.00    -0.506 OA
ATOM     43  H   LIG A   1      -5.573  -2.245 124.178  0.00  0.00    +0.292 HD
ENDBRANCH   7  42
BRANCH  15  44
ATOM     44  O   LIG A   1      -8.050  -2.219 134.169  0.00  0.00    -0.503 OA
ATOM     45  H   LIG A   1      -9.012  -2.108 134.108  0.00  0.00    +0.292 HD
ENDBRANCH  15  44
TORSDOF 12
ENDMDL
MODEL 6
REMARK VINA RESULT:      -7.8      2.780      8.017
REMARK  Name = NuBBE_371
REMARK  12 active torsions:
REMARK  status: ('A' for Active; 'I' for Inactive)
REMARK    1  A    between atoms: O_1  and  C_2
REMARK    2  A    between atoms: C_8  and  O_36
REMARK    3  A    between atoms: C_9  and  C_10
REMARK    4  A    between atoms: C_13  and  C_32
REMARK    5  A    between atoms: C_15  and  O_31
REMARK    6  A    between atoms: C_17  and  O_30
REMARK    7  A    between atoms: C_19  and  O_21
REMARK    8  A    between atoms: O_21  and  C_22
REMARK    9  A    between atoms: C_22  and  C_23
REMARK   10  A    between atoms: C_32  and  O_33
REMARK   11  A    between atoms: C_34  and  O_35
REMARK   12  A    between atoms: C_42  and  O_43
REMARK                            x       y       z     vdW  Elec       q    Type
REMARK                         _______ _______ _______ _____ _____    ______ ____
ROOT
ATOM      1  C   LIG A   1      -5.637  -4.693 132.463  0.00  0.00    +0.162 A 
ATOM      2  C   LIG A   1      -5.468  -4.583 131.083  0.00  0.00    +0.096 A 
ATOM      3  C   LIG A   1      -5.606  -3.336 130.471  0.00  0.00    +0.143 A 
ATOM      4  O   LIG A   1      -5.433  -3.300 129.108  0.00  0.00    -0.454 OA
ATOM      5  C   LIG A   1      -5.570  -2.095 128.463  0.00  0.00    +0.146 A 
ATOM      6  C   LIG A   1      -5.404  -2.113 127.077  0.00  0.00    +0.093 A 
ATOM      7  C   LIG A   1      -5.525  -0.931 126.338  0.00  0.00    +0.130 A 
ATOM      8  C   LIG A   1      -5.835   0.290 126.954  0.00  0.00    +0.068 A 
ATOM      9  C   LIG A   1      -5.979   0.289 128.360  0.00  0.00    +0.141 A 
ATOM     10  C   LIG A   1      -5.853  -0.895 129.105  0.00  0.00    +0.106 A 
ATOM     11  C   LIG A   1      -6.032  -0.919 130.566  0.00  0.00    +0.204 A 
ATOM     12  O   LIG A   1      -6.283   0.110 131.186  0.00  0.00    -0.286 OA
ATOM     13  C   LIG A   1      -5.905  -2.215 131.243  0.00  0.00    +0.068 A 
ATOM     14  C   LIG A   1      -6.080  -2.319 132.628  0.00  0.00    +0.064 A 
ATOM     15  C   LIG A   1      -5.945  -3.566 133.232  0.00  0.00    +0.159 A 
ENDROOT
BRANCH   8  16
ATOM     16  C   LIG A   1      -6.025   1.574 126.153  0.00  0.00    +0.199 C 
ATOM     17  O   LIG A   1      -5.469   2.697 126.864  0.00  0.00    -0.360 OA
ATOM     18  C   LIG A   1      -5.487   3.878 126.051  0.00  0.00    +0.175 C 
ATOM     19  C   LIG A   1      -6.940   4.318 125.851  0.00  0.00    +0.177 C 
ATOM     20  C   LIG A   1      -7.710   3.230 125.103  0.00  0.00    +0.189 C 
ATOM     21  C   LIG A   1      -7.501   1.833 125.729  0.00  0.00    +0.241 C 
BRANCH  20  22
ATOM     22  O   LIG A   1      -9.106   3.593 125.087  0.00  0.00    -0.385 OA
ATOM     23  H   LIG A   1      -9.152   4.496 124.713  0.00  0.00    +0.210 HD
ENDBRANCH  20  22
BRANCH  19  24
ATOM     24  O   LIG A   1      -7.052   5.554 125.121  0.00  0.00    -0.387 OA
ATOM     25  H   LIG A   1      -7.415   5.350 124.237  0.00  0.00    +0.210 HD
ENDBRANCH  19  24
BRANCH  21  26
ATOM     26  O   LIG A   1      -7.986   0.801 124.832  0.00  0.00    -0.452 OA
BRANCH  26  27
ATOM     27  C   LIG A   1      -9.104   0.125 125.216  0.00  0.00    +0.340 C 
ATOM     28  O   LIG A   1     -10.136   0.600 125.632  0.00  0.00    -0.245 OA
BRANCH  27  29
ATOM     29  C   LIG A   1      -8.892  -1.328 125.093  0.00  0.00    +0.059 A 
ATOM     30  C   LIG A   1      -8.987  -2.106 126.253  0.00  0.00    +0.015 A 
ATOM     31  C   LIG A   1      -8.677  -3.463 126.197  0.00  0.00    +0.001 A 
ATOM     32  C   LIG A   1      -8.280  -4.034 124.988  0.00  0.00    +0.000 A 
ATOM     33  C   LIG A   1      -8.207  -3.260 123.828  0.00  0.00    +0.001 A 
ATOM     34  C   LIG A   1      -8.521  -1.905 123.877  0.00  0.00    +0.015 A 
ENDBRANCH  27  29
ENDBRANCH  26  27
ENDBRANCH  21  26
BRANCH  18  35
ATOM     35  C   LIG A   1      -4.656   4.963 126.740  0.00  0.00    +0.190 C 
BRANCH  35  36
ATOM     36  O   LIG A   1      -5.295   5.468 127.908  0.00  0.00    -0.392 OA
ATOM     37  H   LIG A   1      -6.058   6.004 127.605  0.00  0.00    +0.209 HD
ENDBRANCH  35  36
ENDBRANCH  18  35
ENDBRANCH   8  16
BRANCH   1  38
ATOM     38  O   LIG A   1      -5.505  -5.905 133.080  0.00  0.00    -0.503 OA
ATOM     39  H   LIG A   1      -5.579  -6.615 132.425  0.00  0.00    +0.292 HD
ENDBRANCH   1  38
BRANCH   9  40
ATOM     40  O   LIG A   1      -6.249   1.479 128.989  0.00  0.00    -0.505 OA
ATOM     41  H   LIG A   1      -5.599   1.614 129.715  0.00  0.00    +0.292 HD
ENDBRANCH   9  40
BRANCH   7  42
ATOM     42  O   LIG A   1      -5.331  -0.964 124.986  0.00  0.00    -0.506 OA
ATOM     43  H   LIG A   1      -4.974  -1.829 124.730  0.00  0.00    +0.292 HD
ENDBRANCH   7  42
BRANCH  15  44
ATOM     44  O   LIG A   1      -6.110  -3.703 134.580  0.00  0.00    -0.503 OA
ATOM     45  H   LIG A   1      -6.983  -3.369 134.838  0.00  0.00    +0.292 HD
ENDBRANCH  15  44
TORSDOF 12
ENDMDL
MODEL 7
REMARK VINA RESULT:      -7.7      5.794      8.122
REMARK  Name = NuBBE_371
REMARK  12 active torsions:
REMARK  status: ('A' for Active; 'I' for Inactive)
REMARK    1  A    between atoms: O_1  and  C_2
REMARK    2  A    between atoms: C_8  and  O_36
REMARK    3  A    between atoms: C_9  and  C_10
REMARK    4  A    between atoms: C_13  and  C_32
REMARK    5  A    between atoms: C_15  and  O_31
REMARK    6  A    between atoms: C_17  and  O_30
REMARK    7  A    between atoms: C_19  and  O_21
REMARK    8  A    between atoms: O_21  and  C_22
REMARK    9  A    between atoms: C_22  and  C_23
REMARK   10  A    between atoms: C_32  and  O_33
REMARK   11  A    between atoms: C_34  and  O_35
REMARK   12  A    between atoms: C_42  and  O_43
REMARK                            x       y       z     vdW  Elec       q    Type
REMARK                         _______ _______ _______ _____ _____    ______ ____
ROOT
ATOM      1  C   LIG A   1     -12.068   7.520 129.320  0.00  0.00    +0.162 A 
ATOM      2  C   LIG A   1     -12.148   6.318 130.023  0.00  0.00    +0.096 A 
ATOM      3  C   LIG A   1     -11.039   5.470 130.062  0.00  0.00    +0.143 A 
ATOM      4  O   LIG A   1     -11.188   4.299 130.768  0.00  0.00    -0.454 OA
ATOM      5  C   LIG A   1     -10.126   3.430 130.825  0.00  0.00    +0.146 A 
ATOM      6  C   LIG A   1     -10.333   2.247 131.536  0.00  0.00    +0.093 A 
ATOM      7  C   LIG A   1      -9.305   1.304 131.646  0.00  0.00    +0.130 A 
ATOM      8  C   LIG A   1      -8.059   1.503 131.036  0.00  0.00    +0.068 A 
ATOM      9  C   LIG A   1      -7.865   2.716 130.337  0.00  0.00    +0.141 A 
ATOM     10  C   LIG A   1      -8.892   3.667 130.229  0.00  0.00    +0.106 A 
ATOM     11  C   LIG A   1      -8.718   4.922 129.478  0.00  0.00    +0.204 A 
ATOM     12  O   LIG A   1      -7.650   5.184 128.932  0.00  0.00    -0.286 OA
ATOM     13  C   LIG A   1      -9.865   5.833 129.406  0.00  0.00    +0.068 A 
ATOM     14  C   LIG A   1      -9.780   7.036 128.694  0.00  0.00    +0.064 A 
ATOM     15  C   LIG A   1     -10.890   7.876 128.655  0.00  0.00    +0.159 A 
ENDROOT
BRANCH   8  16
ATOM     16  C   LIG A   1      -6.949   0.457 131.102  0.00  0.00    +0.199 C 
ATOM     17  O   LIG A   1      -7.491  -0.863 130.908  0.00  0.00    -0.360 OA
ATOM     18  C   LIG A   1      -6.443  -1.836 130.797  0.00  0.00    +0.175 C 
ATOM     19  C   LIG A   1      -5.752  -1.974 132.157  0.00  0.00    +0.177 C 
ATOM     20  C   LIG A   1      -5.108  -0.643 132.545  0.00  0.00    +0.189 C 
ATOM     21  C   LIG A   1      -6.087   0.543 132.396  0.00  0.00    +0.241 C 
BRANCH  20  22
ATOM     22  O   LIG A   1      -4.622  -0.753 133.899  0.00  0.00    -0.385 OA
ATOM     23  H   LIG A   1      -3.651  -0.864 133.835  0.00  0.00    +0.210 HD
ENDBRANCH  20  22
BRANCH  19  24
ATOM     24  O   LIG A   1      -4.741  -2.999 132.165  0.00  0.00    -0.387 OA
ATOM     25  H   LIG A   1      -3.925  -2.622 131.782  0.00  0.00    +0.210 HD
ENDBRANCH  19  24
BRANCH  21  26
ATOM     26  O   LIG A   1      -5.370   1.802 132.476  0.00  0.00    -0.452 OA
BRANCH  26  27
ATOM     27  C   LIG A   1      -5.428   2.472 133.659  0.00  0.00    +0.340 C 
ATOM     28  O   LIG A   1      -4.850   2.190 134.684  0.00  0.00    -0.245 OA
BRANCH  27  29
ATOM     29  C   LIG A   1      -6.345   3.620 133.556  0.00  0.00    +0.059 A 
ATOM     30  C   LIG A   1      -7.602   3.513 134.164  0.00  0.00    +0.015 A 
ATOM     31  C   LIG A   1      -8.540   4.527 133.987  0.00  0.00    +0.001 A 
ATOM     32  C   LIG A   1      -8.217   5.640 133.211  0.00  0.00    +0.000 A 
ATOM     33  C   LIG A   1      -6.956   5.754 132.623  0.00  0.00    +0.001 A 
ATOM     34  C   LIG A   1      -6.014   4.746 132.802  0.00  0.00    +0.015 A 
ENDBRANCH  27  29
ENDBRANCH  26  27
ENDBRANCH  21  26
BRANCH  18  35
ATOM     35  C   LIG A   1      -7.049  -3.162 130.332  0.00  0.00    +0.190 C 
BRANCH  35  36
ATOM     36  O   LIG A   1      -6.051  -4.139 130.051  0.00  0.00    -0.392 OA
ATOM     37  H   LIG A   1      -6.367  -4.984 130.433  0.00  0.00    +0.209 HD
ENDBRANCH  35  36
ENDBRANCH  18  35
ENDBRANCH   8  16
BRANCH   1  38
ATOM     38  O   LIG A   1     -13.142   8.363 129.270  0.00  0.00    -0.503 OA
ATOM     39  H   LIG A   1     -12.951   9.102 128.674  0.00  0.00    +0.292 HD
ENDBRANCH   1  38
BRANCH   9  40
ATOM     40  O   LIG A   1      -6.641   2.949 129.759  0.00  0.00    -0.505 OA
ATOM     41  H   LIG A   1      -5.943   2.513 130.298  0.00  0.00    +0.292 HD
ENDBRANCH   9  40
BRANCH   7  42
ATOM     42  O   LIG A   1      -9.516   0.165 132.370  0.00  0.00    -0.506 OA
ATOM     43  H   LIG A   1      -9.820  -0.544 131.780  0.00  0.00    +0.292 HD
ENDBRANCH   7  42
BRANCH  15  44
ATOM     44  O   LIG A   1     -10.842   9.055 127.970  0.00  0.00    -0.503 OA
ATOM     45  H   LIG A   1      -9.933   9.223 127.672  0.00  0.00    +0.292 HD
ENDBRANCH  15  44
TORSDOF 12
ENDMDL
MODEL 8
REMARK VINA RESULT:      -7.6      4.082      7.106
REMARK  Name = NuBBE_371
REMARK  12 active torsions:
REMARK  status: ('A' for Active; 'I' for Inactive)
REMARK    1  A    between atoms: O_1  and  C_2
REMARK    2  A    between atoms: C_8  and  O_36
REMARK    3  A    between atoms: C_9  and  C_10
REMARK    4  A    between atoms: C_13  and  C_32
REMARK    5  A    between atoms: C_15  and  O_31
REMARK    6  A    between atoms: C_17  and  O_30
REMARK    7  A    between atoms: C_19  and  O_21
REMARK    8  A    between atoms: O_21  and  C_22
REMARK    9  A    between atoms: C_22  and  C_23
REMARK   10  A    between atoms: C_32  and  O_33
REMARK   11  A    between atoms: C_34  and  O_35
REMARK   12  A    between atoms: C_42  and  O_43
REMARK                            x       y       z     vdW  Elec       q    Type
REMARK                         _______ _______ _______ _____ _____    ______ ____
ROOT
ATOM      1  C   LIG A   1      -9.247  -2.973 124.141  0.00  0.00    +0.162 A 
ATOM      2  C   LIG A   1      -9.356  -3.261 125.501  0.00  0.00    +0.096 A 
ATOM      3  C   LIG A   1      -8.321  -2.900 126.366  0.00  0.00    +0.143 A 
ATOM      4  O   LIG A   1      -8.492  -3.220 127.692  0.00  0.00    -0.454 OA
ATOM      5  C   LIG A   1      -7.494  -2.891 128.577  0.00  0.00    +0.146 A 
ATOM      6  C   LIG A   1      -7.705  -3.254 129.908  0.00  0.00    +0.093 A 
ATOM      7  C   LIG A   1      -6.741  -2.958 130.879  0.00  0.00    +0.130 A 
ATOM      8  C   LIG A   1      -5.539  -2.318 130.547  0.00  0.00    +0.068 A 
ATOM      9  C   LIG A   1      -5.354  -1.943 129.197  0.00  0.00    +0.141 A 
ATOM     10  C   LIG A   1      -6.322  -2.233 128.222  0.00  0.00    +0.106 A 
ATOM     11  C   LIG A   1      -6.132  -1.878 126.805  0.00  0.00    +0.204 A 
ATOM     12  O   LIG A   1      -5.118  -1.295 126.434  0.00  0.00    -0.286 OA
ATOM     13  C   LIG A   1      -7.195  -2.251 125.865  0.00  0.00    +0.068 A 
ATOM     14  C   LIG A   1      -7.076  -1.963 124.500  0.00  0.00    +0.064 A 
ATOM     15  C   LIG A   1      -8.110  -2.329 123.642  0.00  0.00    +0.159 A 
ENDROOT
BRANCH   8  16
ATOM     16  C   LIG A   1      -4.456  -2.041 131.587  0.00  0.00    +0.199 C 
ATOM     17  O   LIG A   1      -4.287  -3.179 132.452  0.00  0.00    -0.360 OA
ATOM     18  C   LIG A   1      -3.161  -3.001 133.321  0.00  0.00    +0.175 C 
ATOM     19  C   LIG A   1      -3.482  -1.887 134.322  0.00  0.00    +0.177 C 
ATOM     20  C   LIG A   1      -3.704  -0.571 133.576  0.00  0.00    +0.189 C 
ATOM     21  C   LIG A   1      -4.689  -0.730 132.395  0.00  0.00    +0.241 C 
BRANCH  20  22
ATOM     22  O   LIG A   1      -4.176   0.411 134.520  0.00  0.00    -0.385 OA
ATOM     23  H   LIG A   1      -4.331  -0.067 135.361  0.00  0.00    +0.210 HD
ENDBRANCH  20  22
BRANCH  19  24
ATOM     24  O   LIG A   1      -2.440  -1.698 135.297  0.00  0.00    -0.387 OA
ATOM     25  H   LIG A   1      -2.849  -1.720 136.185  0.00  0.00    +0.210 HD
ENDBRANCH  19  24
BRANCH  21  26
ATOM     26  O   LIG A   1      -4.642   0.439 131.538  0.00  0.00    -0.452 OA
BRANCH  26  27
ATOM     27  C   LIG A   1      -5.714   1.276 131.576  0.00  0.00    +0.340 C 
ATOM     28  O   LIG A   1      -6.156   1.851 132.545  0.00  0.00    -0.245 OA
BRANCH  27  29
ATOM     29  C   LIG A   1      -6.330   1.383 130.242  0.00  0.00    +0.059 A 
ATOM     30  C   LIG A   1      -7.632   0.897 130.079  0.00  0.00    +0.015 A 
ATOM     31  C   LIG A   1      -8.202   0.871 128.808  0.00  0.00    +0.001 A 
ATOM     32  C   LIG A   1      -7.473   1.334 127.713  0.00  0.00    +0.000 A 
ATOM     33  C   LIG A   1      -6.183   1.839 127.882  0.00  0.00    +0.001 A 
ATOM     34  C   LIG A   1      -5.611   1.871 129.150  0.00  0.00    +0.015 A 
ENDBRANCH  27  29
ENDBRANCH  26  27
ENDBRANCH  21  26
BRANCH  18  35
ATOM     35  C   LIG A   1      -2.865  -4.327 134.025  0.00  0.00    +0.190 C 
BRANCH  35  36
ATOM     36  O   LIG A   1      -1.467  -4.555 134.175  0.00  0.00    -0.392 OA
ATOM     37  H   LIG A   1      -1.010  -3.903 133.603  0.00  0.00    +0.209 HD
ENDBRANCH  35  36
ENDBRANCH  18  35
ENDBRANCH   8  16
BRANCH   1  38
ATOM     38  O   LIG A   1     -10.249  -3.319 123.279  0.00  0.00    -0.503 OA
ATOM     39  H   LIG A   1     -10.967  -3.748 123.768  0.00  0.00    +0.292 HD
ENDBRANCH   1  38
BRANCH   9  40
ATOM     40  O   LIG A   1      -4.200  -1.284 128.854  0.00  0.00    -0.505 OA
ATOM     41  H   LIG A   1      -4.363  -0.314 128.880  0.00  0.00    +0.292 HD
ENDBRANCH   9  40
BRANCH   7  42
ATOM     42  O   LIG A   1      -6.977  -3.296 132.182  0.00  0.00    -0.506 OA
ATOM     43  H   LIG A   1      -7.141  -4.250 132.246  0.00  0.00    +0.292 HD
ENDBRANCH   7  42
BRANCH  15  44
ATOM     44  O   LIG A   1      -8.026  -2.064 122.305  0.00  0.00    -0.503 OA
ATOM     45  H   LIG A   1      -8.487  -1.233 122.108  0.00  0.00    +0.292 HD
ENDBRANCH  15  44
TORSDOF 12
ENDMDL
MODEL 9
REMARK VINA RESULT:      -7.6      2.282      8.215
REMARK  Name = NuBBE_371
REMARK  12 active torsions:
REMARK  status: ('A' for Active; 'I' for Inactive)
REMARK    1  A    between atoms: O_1  and  C_2
REMARK    2  A    between atoms: C_8  and  O_36
REMARK    3  A    between atoms: C_9  and  C_10
REMARK    4  A    between atoms: C_13  and  C_32
REMARK    5  A    between atoms: C_15  and  O_31
REMARK    6  A    between atoms: C_17  and  O_30
REMARK    7  A    between atoms: C_19  and  O_21
REMARK    8  A    between atoms: O_21  and  C_22
REMARK    9  A    between atoms: C_22  and  C_23
REMARK   10  A    between atoms: C_32  and  O_33
REMARK   11  A    between atoms: C_34  and  O_35
REMARK   12  A    between atoms: C_42  and  O_43
REMARK                            x       y       z     vdW  Elec       q    Type
REMARK                         _______ _______ _______ _____ _____    ______ ____
ROOT
ATOM      1  C   LIG A   1      -6.166  -3.837 133.417  0.00  0.00    +0.162 A 
ATOM      2  C   LIG A   1      -6.867  -2.688 133.053  0.00  0.00    +0.096 A 
ATOM      3  C   LIG A   1      -6.834  -2.254 131.726  0.00  0.00    +0.143 A 
ATOM      4  O   LIG A   1      -7.542  -1.112 131.437  0.00  0.00    -0.454 OA
ATOM      5  C   LIG A   1      -7.529  -0.644 130.145  0.00  0.00    +0.146 A 
ATOM      6  C   LIG A   1      -8.246   0.529 129.906  0.00  0.00    +0.093 A 
ATOM      7  C   LIG A   1      -8.289   1.078 128.619  0.00  0.00    +0.130 A 
ATOM      8  C   LIG A   1      -7.604   0.488 127.548  0.00  0.00    +0.068 A 
ATOM      9  C   LIG A   1      -6.900  -0.710 127.808  0.00  0.00    +0.141 A 
ATOM     10  C   LIG A   1      -6.860  -1.266 129.097  0.00  0.00    +0.106 A 
ATOM     11  C   LIG A   1      -6.105  -2.496 129.393  0.00  0.00    +0.204 A 
ATOM     12  O   LIG A   1      -5.497  -3.088 128.507  0.00  0.00    -0.286 OA
ATOM     13  C   LIG A   1      -6.108  -2.975 130.780  0.00  0.00    +0.068 A 
ATOM     14  C   LIG A   1      -5.399  -4.127 131.140  0.00  0.00    +0.064 A 
ATOM     15  C   LIG A   1      -5.432  -4.552 132.465  0.00  0.00    +0.159 A 
ENDROOT
BRANCH   8  16
ATOM     16  C   LIG A   1      -7.597   1.107 126.153  0.00  0.00    +0.199 C 
ATOM     17  O   LIG A   1      -7.155   2.476 126.213  0.00  0.00    -0.360 OA
ATOM     18  C   LIG A   1      -6.979   3.017 124.896  0.00  0.00    +0.175 C 
ATOM     19  C   LIG A   1      -8.353   3.156 124.233  0.00  0.00    +0.177 C 
ATOM     20  C   LIG A   1      -8.997   1.777 124.086  0.00  0.00    +0.189 C 
ATOM     21  C   LIG A   1      -8.955   0.971 125.403  0.00  0.00    +0.241 C 
BRANCH  20  22
ATOM     22  O   LIG A   1     -10.351   1.957 123.626  0.00  0.00    -0.385 OA
ATOM     23  H   LIG A   1     -10.343   2.743 123.042  0.00  0.00    +0.210 HD
ENDBRANCH  20  22
BRANCH  19  24
ATOM     24  O   LIG A   1      -8.284   3.778 122.937  0.00  0.00    -0.387 OA
ATOM     25  H   LIG A   1      -8.564   4.710 123.034  0.00  0.00    +0.210 HD
ENDBRANCH  19  24
BRANCH  21  26
ATOM     26  O   LIG A   1      -9.289  -0.419 125.155  0.00  0.00    -0.452 OA
BRANCH  26  27
ATOM     27  C   LIG A   1      -9.116  -0.878 123.885  0.00  0.00    +0.340 C 
ATOM     28  O   LIG A   1      -9.797  -0.619 122.918  0.00  0.00    -0.245 OA
BRANCH  27  29
ATOM     29  C   LIG A   1      -7.968  -1.798 123.823  0.00  0.00    +0.059 A 
ATOM     30  C   LIG A   1      -8.112  -3.069 124.391  0.00  0.00    +0.015 A 
ATOM     31  C   LIG A   1      -7.013  -3.921 124.458  0.00  0.00    +0.001 A 
ATOM     32  C   LIG A   1      -5.781  -3.504 123.954  0.00  0.00    +0.000 A 
ATOM     33  C   LIG A   1      -5.645  -2.244 123.369  0.00  0.00    +0.001 A 
ATOM     34  C   LIG A   1      -6.741  -1.390 123.295  0.00  0.00    +0.015 A 
ENDBRANCH  27  29
ENDBRANCH  26  27
ENDBRANCH  21  26
BRANCH  18  35
ATOM     35  C   LIG A   1      -6.265   4.365 125.008  0.00  0.00    +0.190 C 
BRANCH  35  36
ATOM     36  O   LIG A   1      -7.180   5.449 125.134  0.00  0.00    -0.392 OA
ATOM     37  H   LIG A   1      -7.423   5.722 124.225  0.00  0.00    +0.209 HD
ENDBRANCH  35  36
ENDBRANCH  18  35
ENDBRANCH   8  16
BRANCH   1  38
ATOM     38  O   LIG A   1      -6.186  -4.276 134.711  0.00  0.00    -0.503 OA
ATOM     39  H   LIG A   1      -6.048  -3.529 135.313  0.00  0.00    +0.292 HD
ENDBRANCH   1  38
BRANCH   9  40
ATOM     40  O   LIG A   1      -6.249  -1.325 126.767  0.00  0.00    -0.505 OA
ATOM     41  H   LIG A   1      -6.825  -1.302 125.970  0.00  0.00    +0.292 HD
ENDBRANCH   9  40
BRANCH   7  42
ATOM     42  O   LIG A   1      -9.019   2.211 128.398  0.00  0.00    -0.506 OA
ATOM     43  H   LIG A   1      -8.874   2.838 129.125  0.00  0.00    +0.292 HD
ENDBRANCH   7  42
BRANCH  15  44
ATOM     44  O   LIG A   1      -4.750  -5.670 132.851  0.00  0.00    -0.503 OA
ATOM     45  H   LIG A   1      -5.354  -6.430 132.869  0.00  0.00    +0.292 HD
ENDBRANCH  15  44
TORSDOF 12
ENDMDL
