MODEL 1
REMARK VINA RESULT:      -6.7      0.000      0.000
REMARK  Name = NuBBE_1307
REMARK  13 active torsions:
REMARK  status: ('A' for Active; 'I' for Inactive)
REMARK    1  A    between atoms: C_4  and  C_5
REMARK    2  A    between atoms: C_7  and  O_8
REMARK    3  A    between atoms: O_8  and  C_9
REMARK    4  A    between atoms: C_10  and  O_11
REMARK    5  A    between atoms: O_11  and  C_12
REMARK    6  A    between atoms: C_13  and  O_14
REMARK    7  A    between atoms: O_14  and  C_15
REMARK    8  A    between atoms: C_21  and  O_22
REMARK    9  A    between atoms: O_22  and  C_23
REMARK   10  A    between atoms: C_24  and  O_25
REMARK   11  A    between atoms: O_25  and  C_26
REMARK   12  A    between atoms: C_27  and  O_28
REMARK   13  A    between atoms: O_28  and  C_29
REMARK                            x       y       z     vdW  Elec       q    Type
REMARK                         _______ _______ _______ _____ _____    ______ ____
ROOT
ATOM      1  O   LIG A   1      -9.634   2.200 124.832  0.00  0.00    -0.287 OA
ATOM      2  C   LIG A   1      -8.522   1.799 125.120  0.00  0.00    +0.197 A 
ATOM      3  C   LIG A   1      -7.646   2.681 125.924  0.00  0.00    +0.098 A 
ATOM      4  C   LIG A   1      -6.408   2.294 126.259  0.00  0.00    +0.140 A 
ATOM      5  O   LIG A   1      -5.883   1.075 125.876  0.00  0.00    -0.454 OA
ATOM      6  C   LIG A   1      -7.962   0.474 124.747  0.00  0.00    +0.109 A 
ATOM      7  C   LIG A   1      -6.661   0.204 125.159  0.00  0.00    +0.146 A 
ATOM      8  C   LIG A   1      -6.050  -1.009 124.855  0.00  0.00    +0.096 A 
ATOM      9  C   LIG A   1      -6.720  -1.977 124.107  0.00  0.00    +0.169 A 
ATOM     10  C   LIG A   1      -8.052  -1.734 123.696  0.00  0.00    +0.204 A 
ATOM     11  C   LIG A   1      -8.679  -0.497 124.025  0.00  0.00    +0.179 A 
ENDROOT
BRANCH   4  12
ATOM     12  C   LIG A   1      -5.470   3.125 127.065  0.00  0.00    +0.025 A 
ATOM     13  C   LIG A   1      -4.080   2.989 126.912  0.00  0.00    +0.061 A 
ATOM     14  C   LIG A   1      -3.183   3.784 127.637  0.00  0.00    +0.166 A 
ATOM     15  C   LIG A   1      -3.667   4.762 128.529  0.00  0.00    +0.203 A 
ATOM     16  C   LIG A   1      -5.052   4.899 128.713  0.00  0.00    +0.166 A 
ATOM     17  C   LIG A   1      -5.928   4.086 127.979  0.00  0.00    +0.061 A 
BRANCH  14  18
ATOM     18  O   LIG A   1      -1.817   3.706 127.488  0.00  0.00    -0.491 OA
ATOM     19  C   LIG A   1      -1.338   2.886 126.429  0.00  0.00    +0.277 C 
ENDBRANCH  14  18
BRANCH  15  20
ATOM     20  O   LIG A   1      -2.699   5.538 129.119  0.00  0.00    -0.488 OA
ATOM     21  C   LIG A   1      -2.360   6.756 128.473  0.00  0.00    +0.277 C 
ENDBRANCH  15  20
BRANCH  16  22
ATOM     22  O   LIG A   1      -5.528   5.888 129.536  0.00  0.00    -0.491 OA
ATOM     23  C   LIG A   1      -6.117   5.459 130.762  0.00  0.00    +0.277 C 
ENDBRANCH  16  22
ENDBRANCH   4  12
BRANCH   9  24
ATOM     24  O   LIG A   1      -6.129  -3.149 123.728  0.00  0.00    -0.491 OA
ATOM     25  C   LIG A   1      -4.746  -3.206 123.414  0.00  0.00    +0.277 C 
ENDBRANCH   9  24
BRANCH  10  26
ATOM     26  O   LIG A   1      -8.821  -2.596 122.955  0.00  0.00    -0.488 OA
ATOM     27  C   LIG A   1      -9.669  -3.546 123.576  0.00  0.00    +0.277 C 
ENDBRANCH  10  26
BRANCH  11  28
ATOM     28  O   LIG A   1      -9.937  -0.127 123.614  0.00  0.00    -0.490 OA
ATOM     29  C   LIG A   1     -10.127   0.256 122.258  0.00  0.00    +0.277 C 
ENDBRANCH  11  28
TORSDOF 7
ENDMDL
MODEL 2
REMARK VINA RESULT:      -6.7      0.136      2.389
REMARK  Name = NuBBE_1307
REMARK  13 active torsions:
REMARK  status: ('A' for Active; 'I' for Inactive)
REMARK    1  A    between atoms: C_4  and  C_5
REMARK    2  A    between atoms: C_7  and  O_8
REMARK    3  A    between atoms: O_8  and  C_9
REMARK    4  A    between atoms: C_10  and  O_11
REMARK    5  A    between atoms: O_11  and  C_12
REMARK    6  A    between atoms: C_13  and  O_14
REMARK    7  A    between atoms: O_14  and  C_15
REMARK    8  A    between atoms: C_21  and  O_22
REMARK    9  A    between atoms: O_22  and  C_23
REMARK   10  A    between atoms: C_24  and  O_25
REMARK   11  A    between atoms: O_25  and  C_26
REMARK   12  A    between atoms: C_27  and  O_28
REMARK   13  A    between atoms: O_28  and  C_29
REMARK                            x       y       z     vdW  Elec       q    Type
REMARK                         _______ _______ _______ _____ _____    ______ ____
ROOT
ATOM      1  O   LIG A   1      -9.638   2.249 124.768  0.00  0.00    -0.287 OA
ATOM      2  C   LIG A   1      -8.526   1.857 125.068  0.00  0.00    +0.197 A 
ATOM      3  C   LIG A   1      -7.649   2.762 125.845  0.00  0.00    +0.098 A 
ATOM      4  C   LIG A   1      -6.411   2.385 126.190  0.00  0.00    +0.140 A 
ATOM      5  O   LIG A   1      -5.886   1.154 125.844  0.00  0.00    -0.454 OA
ATOM      6  C   LIG A   1      -7.967   0.520 124.735  0.00  0.00    +0.109 A 
ATOM      7  C   LIG A   1      -6.666   0.263 125.154  0.00  0.00    +0.146 A 
ATOM      8  C   LIG A   1      -6.055  -0.959 124.886  0.00  0.00    +0.096 A 
ATOM      9  C   LIG A   1      -6.726  -1.949 124.169  0.00  0.00    +0.169 A 
ATOM     10  C   LIG A   1      -8.058  -1.718 123.751  0.00  0.00    +0.204 A 
ATOM     11  C   LIG A   1      -8.685  -0.472 124.043  0.00  0.00    +0.179 A 
ENDROOT
BRANCH   4  12
ATOM     12  C   LIG A   1      -5.472   3.240 126.970  0.00  0.00    +0.025 A 
ATOM     13  C   LIG A   1      -5.958   4.177 127.897  0.00  0.00    +0.061 A 
ATOM     14  C   LIG A   1      -5.089   4.966 128.663  0.00  0.00    +0.166 A 
ATOM     15  C   LIG A   1      -3.694   4.816 128.527  0.00  0.00    +0.203 A 
ATOM     16  C   LIG A   1      -3.188   3.901 127.590  0.00  0.00    +0.166 A 
ATOM     17  C   LIG A   1      -4.081   3.127 126.833  0.00  0.00    +0.061 A 
BRANCH  14  18
ATOM     18  O   LIG A   1      -5.525   5.868 129.606  0.00  0.00    -0.491 OA
ATOM     19  C   LIG A   1      -6.252   5.335 130.707  0.00  0.00    +0.277 C 
ENDBRANCH  14  18
BRANCH  15  20
ATOM     20  O   LIG A   1      -2.944   5.581 129.388  0.00  0.00    -0.488 OA
ATOM     21  C   LIG A   1      -2.206   6.656 128.827  0.00  0.00    +0.277 C 
ENDBRANCH  15  20
BRANCH  16  22
ATOM     22  O   LIG A   1      -1.833   3.711 127.498  0.00  0.00    -0.491 OA
ATOM     23  C   LIG A   1      -1.385   2.873 126.434  0.00  0.00    +0.277 C 
ENDBRANCH  16  22
ENDBRANCH   4  12
BRANCH   9  24
ATOM     24  O   LIG A   1      -6.135  -3.132 123.825  0.00  0.00    -0.491 OA
ATOM     25  C   LIG A   1      -4.805  -3.173 123.334  0.00  0.00    +0.277 C 
ENDBRANCH   9  24
BRANCH  10  26
ATOM     26  O   LIG A   1      -8.828  -2.602 123.037  0.00  0.00    -0.488 OA
ATOM     27  C   LIG A   1      -9.640  -3.563 123.688  0.00  0.00    +0.277 C 
ENDBRANCH  10  26
BRANCH  11  28
ATOM     28  O   LIG A   1      -9.942  -0.114 123.622  0.00  0.00    -0.490 OA
ATOM     29  C   LIG A   1     -10.132   0.235 122.256  0.00  0.00    +0.277 C 
ENDBRANCH  11  28
TORSDOF 7
ENDMDL
MODEL 3
REMARK VINA RESULT:      -6.5      4.896      6.938
REMARK  Name = NuBBE_1307
REMARK  13 active torsions:
REMARK  status: ('A' for Active; 'I' for Inactive)
REMARK    1  A    between atoms: C_4  and  C_5
REMARK    2  A    between atoms: C_7  and  O_8
REMARK    3  A    between atoms: O_8  and  C_9
REMARK    4  A    between atoms: C_10  and  O_11
REMARK    5  A    between atoms: O_11  and  C_12
REMARK    6  A    between atoms: C_13  and  O_14
REMARK    7  A    between atoms: O_14  and  C_15
REMARK    8  A    between atoms: C_21  and  O_22
REMARK    9  A    between atoms: O_22  and  C_23
REMARK   10  A    between atoms: C_24  and  O_25
REMARK   11  A    between atoms: O_25  and  C_26
REMARK   12  A    between atoms: C_27  and  O_28
REMARK   13  A    between atoms: O_28  and  C_29
REMARK                            x       y       z     vdW  Elec       q    Type
REMARK                         _______ _______ _______ _____ _____    ______ ____
ROOT
ATOM      1  O   LIG A   1      -9.102  -2.993 125.208  0.00  0.00    -0.287 OA
ATOM      2  C   LIG A   1      -8.604  -2.227 126.012  0.00  0.00    +0.197 A 
ATOM      3  C   LIG A   1      -7.931  -2.798 127.200  0.00  0.00    +0.098 A 
ATOM      4  C   LIG A   1      -7.377  -2.000 128.122  0.00  0.00    +0.140 A 
ATOM      5  O   LIG A   1      -7.405  -0.622 128.023  0.00  0.00    -0.454 OA
ATOM      6  C   LIG A   1      -8.593  -0.746 125.894  0.00  0.00    +0.109 A 
ATOM      7  C   LIG A   1      -7.985  -0.040 126.926  0.00  0.00    +0.146 A 
ATOM      8  C   LIG A   1      -7.928   1.352 126.907  0.00  0.00    +0.096 A 
ATOM      9  C   LIG A   1      -8.502   2.074 125.861  0.00  0.00    +0.169 A 
ATOM     10  C   LIG A   1      -9.108   1.376 124.789  0.00  0.00    +0.204 A 
ATOM     11  C   LIG A   1      -9.148  -0.049 124.806  0.00  0.00    +0.179 A 
ENDROOT
BRANCH   4  12
ATOM     12  C   LIG A   1      -6.684  -2.500 129.343  0.00  0.00    +0.025 A 
ATOM     13  C   LIG A   1      -7.399  -2.720 130.533  0.00  0.00    +0.061 A 
ATOM     14  C   LIG A   1      -6.771  -3.221 131.681  0.00  0.00    +0.166 A 
ATOM     15  C   LIG A   1      -5.397  -3.535 131.655  0.00  0.00    +0.203 A 
ATOM     16  C   LIG A   1      -4.661  -3.300 130.483  0.00  0.00    +0.166 A 
ATOM     17  C   LIG A   1      -5.313  -2.794 129.349  0.00  0.00    +0.061 A 
BRANCH  14  18
ATOM     18  O   LIG A   1      -7.443  -3.485 132.852  0.00  0.00    -0.491 OA
ATOM     19  C   LIG A   1      -7.916  -2.359 133.582  0.00  0.00    +0.277 C 
ENDBRANCH  14  18
BRANCH  15  20
ATOM     20  O   LIG A   1      -4.910  -4.097 132.810  0.00  0.00    -0.488 OA
ATOM     21  C   LIG A   1      -4.175  -3.254 133.683  0.00  0.00    +0.277 C 
ENDBRANCH  15  20
BRANCH  16  22
ATOM     22  O   LIG A   1      -3.337  -3.659 130.436  0.00  0.00    -0.491 OA
ATOM     23  C   LIG A   1      -2.743  -3.709 129.141  0.00  0.00    +0.277 C 
ENDBRANCH  16  22
ENDBRANCH   4  12
BRANCH   9  24
ATOM     24  O   LIG A   1      -8.530   3.440 125.843  0.00  0.00    -0.491 OA
ATOM     25  C   LIG A   1      -7.342   4.196 125.678  0.00  0.00    +0.277 C 
ENDBRANCH   9  24
BRANCH  10  26
ATOM     26  O   LIG A   1      -9.712   1.961 123.705  0.00  0.00    -0.488 OA
ATOM     27  C   LIG A   1      -8.949   2.505 122.642  0.00  0.00    +0.277 C 
ENDBRANCH  10  26
BRANCH  11  28
ATOM     28  O   LIG A   1      -9.774  -0.822 123.858  0.00  0.00    -0.490 OA
ATOM     29  C   LIG A   1      -9.083  -1.113 122.649  0.00  0.00    +0.277 C 
ENDBRANCH  11  28
TORSDOF 7
ENDMDL
MODEL 4
REMARK VINA RESULT:      -6.5      3.707      5.395
REMARK  Name = NuBBE_1307
REMARK  13 active torsions:
REMARK  status: ('A' for Active; 'I' for Inactive)
REMARK    1  A    between atoms: C_4  and  C_5
REMARK    2  A    between atoms: C_7  and  O_8
REMARK    3  A    between atoms: O_8  and  C_9
REMARK    4  A    between atoms: C_10  and  O_11
REMARK    5  A    between atoms: O_11  and  C_12
REMARK    6  A    between atoms: C_13  and  O_14
REMARK    7  A    between atoms: O_14  and  C_15
REMARK    8  A    between atoms: C_21  and  O_22
REMARK    9  A    between atoms: O_22  and  C_23
REMARK   10  A    between atoms: C_24  and  O_25
REMARK   11  A    between atoms: O_25  and  C_26
REMARK   12  A    between atoms: C_27  and  O_28
REMARK   13  A    between atoms: O_28  and  C_29
REMARK                            x       y       z     vdW  Elec       q    Type
REMARK                         _______ _______ _______ _____ _____    ______ ____
ROOT
ATOM      1  O   LIG A   1      -6.464  -1.061 128.808  0.00  0.00    -0.287 OA
ATOM      2  C   LIG A   1      -7.229  -0.202 128.411  0.00  0.00    +0.197 A 
ATOM      3  C   LIG A   1      -7.513   0.949 129.297  0.00  0.00    +0.098 A 
ATOM      4  C   LIG A   1      -8.356   1.916 128.914  0.00  0.00    +0.140 A 
ATOM      5  O   LIG A   1      -9.005   1.895 127.694  0.00  0.00    -0.454 OA
ATOM      6  C   LIG A   1      -7.900  -0.195 127.085  0.00  0.00    +0.109 A 
ATOM      7  C   LIG A   1      -8.753   0.870 126.819  0.00  0.00    +0.146 A 
ATOM      8  C   LIG A   1      -9.430   0.962 125.606  0.00  0.00    +0.096 A 
ATOM      9  C   LIG A   1      -9.286  -0.027 124.633  0.00  0.00    +0.169 A 
ATOM     10  C   LIG A   1      -8.406  -1.110 124.872  0.00  0.00    +0.204 A 
ATOM     11  C   LIG A   1      -7.703  -1.190 126.110  0.00  0.00    +0.179 A 
ENDROOT
BRANCH   4  12
ATOM     12  C   LIG A   1      -8.691   3.103 129.751  0.00  0.00    +0.025 A 
ATOM     13  C   LIG A   1      -8.836   4.373 129.167  0.00  0.00    +0.061 A 
ATOM     14  C   LIG A   1      -9.182   5.494 129.933  0.00  0.00    +0.166 A 
ATOM     15  C   LIG A   1      -9.414   5.361 131.317  0.00  0.00    +0.203 A 
ATOM     16  C   LIG A   1      -9.252   4.105 131.923  0.00  0.00    +0.166 A 
ATOM     17  C   LIG A   1      -8.900   3.000 131.134  0.00  0.00    +0.061 A 
BRANCH  14  18
ATOM     18  O   LIG A   1      -9.370   6.745 129.393  0.00  0.00    -0.491 OA
ATOM     19  C   LIG A   1     -10.494   6.908 128.536  0.00  0.00    +0.277 C 
ENDBRANCH  14  18
BRANCH  15  20
ATOM     20  O   LIG A   1      -9.830   6.509 131.947  0.00  0.00    -0.488 OA
ATOM     21  C   LIG A   1     -11.224   6.660 132.168  0.00  0.00    +0.277 C 
ENDBRANCH  15  20
BRANCH  16  22
ATOM     22  O   LIG A   1      -9.534   3.960 133.258  0.00  0.00    -0.491 OA
ATOM     23  C   LIG A   1      -8.420   3.712 134.114  0.00  0.00    +0.277 C 
ENDBRANCH  16  22
ENDBRANCH   4  12
BRANCH   9  24
ATOM     24  O   LIG A   1      -9.987  -0.009 123.461  0.00  0.00    -0.491 OA
ATOM     25  C   LIG A   1      -9.938   1.111 122.592  0.00  0.00    +0.277 C 
ENDBRANCH   9  24
BRANCH  10  26
ATOM     26  O   LIG A   1      -8.177  -2.149 124.006  0.00  0.00    -0.488 OA
ATOM     27  C   LIG A   1      -7.385  -1.977 122.844  0.00  0.00    +0.277 C 
ENDBRANCH  10  26
BRANCH  11  28
ATOM     28  O   LIG A   1      -6.885  -2.231 126.475  0.00  0.00    -0.490 OA
ATOM     29  C   LIG A   1      -5.572  -2.291 125.932  0.00  0.00    +0.277 C 
ENDBRANCH  11  28
TORSDOF 7
ENDMDL
MODEL 5
REMARK VINA RESULT:      -6.5      4.840      6.646
REMARK  Name = NuBBE_1307
REMARK  13 active torsions:
REMARK  status: ('A' for Active; 'I' for Inactive)
REMARK    1  A    between atoms: C_4  and  C_5
REMARK    2  A    between atoms: C_7  and  O_8
REMARK    3  A    between atoms: O_8  and  C_9
REMARK    4  A    between atoms: C_10  and  O_11
REMARK    5  A    between atoms: O_11  and  C_12
REMARK    6  A    between atoms: C_13  and  O_14
REMARK    7  A    between atoms: O_14  and  C_15
REMARK    8  A    between atoms: C_21  and  O_22
REMARK    9  A    between atoms: O_22  and  C_23
REMARK   10  A    between atoms: C_24  and  O_25
REMARK   11  A    between atoms: O_25  and  C_26
REMARK   12  A    between atoms: C_27  and  O_28
REMARK   13  A    between atoms: O_28  and  C_29
REMARK                            x       y       z     vdW  Elec       q    Type
REMARK                         _______ _______ _______ _____ _____    ______ ____
ROOT
ATOM      1  O   LIG A   1      -9.275  -2.926 125.012  0.00  0.00    -0.287 OA
ATOM      2  C   LIG A   1      -8.779  -2.192 125.846  0.00  0.00    +0.197 A 
ATOM      3  C   LIG A   1      -8.162  -2.806 127.043  0.00  0.00    +0.098 A 
ATOM      4  C   LIG A   1      -7.612  -2.044 127.997  0.00  0.00    +0.140 A 
ATOM      5  O   LIG A   1      -7.593  -0.664 127.925  0.00  0.00    -0.454 OA
ATOM      6  C   LIG A   1      -8.717  -0.710 125.758  0.00  0.00    +0.109 A 
ATOM      7  C   LIG A   1      -8.119  -0.043 126.822  0.00  0.00    +0.146 A 
ATOM      8  C   LIG A   1      -8.018   1.346 126.833  0.00  0.00    +0.096 A 
ATOM      9  C   LIG A   1      -8.536   2.105 125.784  0.00  0.00    +0.169 A 
ATOM     10  C   LIG A   1      -9.130   1.448 124.680  0.00  0.00    +0.204 A 
ATOM     11  C   LIG A   1      -9.215   0.025 124.667  0.00  0.00    +0.179 A 
ENDROOT
BRANCH   4  12
ATOM     12  C   LIG A   1      -6.974  -2.589 129.229  0.00  0.00    +0.025 A 
ATOM     13  C   LIG A   1      -5.640  -3.029 129.210  0.00  0.00    +0.061 A 
ATOM     14  C   LIG A   1      -5.014  -3.514 130.366  0.00  0.00    +0.166 A 
ATOM     15  C   LIG A   1      -5.716  -3.550 131.588  0.00  0.00    +0.203 A 
ATOM     16  C   LIG A   1      -7.057  -3.136 131.622  0.00  0.00    +0.166 A 
ATOM     17  C   LIG A   1      -7.661  -2.660 130.449  0.00  0.00    +0.061 A 
BRANCH  14  18
ATOM     18  O   LIG A   1      -3.699  -3.919 130.396  0.00  0.00    -0.491 OA
ATOM     19  C   LIG A   1      -2.902  -3.577 129.269  0.00  0.00    +0.277 C 
ENDBRANCH  14  18
BRANCH  15  20
ATOM     20  O   LIG A   1      -4.975  -3.964 132.668  0.00  0.00    -0.488 OA
ATOM     21  C   LIG A   1      -5.207  -5.279 133.149  0.00  0.00    +0.277 C 
ENDBRANCH  15  20
BRANCH  16  22
ATOM     22  O   LIG A   1      -7.724  -3.115 132.821  0.00  0.00    -0.491 OA
ATOM     23  C   LIG A   1      -7.527  -1.959 133.631  0.00  0.00    +0.277 C 
ENDBRANCH  16  22
ENDBRANCH   4  12
BRANCH   9  24
ATOM     24  O   LIG A   1      -8.520   3.472 125.792  0.00  0.00    -0.491 OA
ATOM     25  C   LIG A   1      -7.298   4.192 125.795  0.00  0.00    +0.277 C 
ENDBRANCH   9  24
BRANCH  10  26
ATOM     26  O   LIG A   1      -9.680   2.073 123.590  0.00  0.00    -0.488 OA
ATOM     27  C   LIG A   1      -8.867   2.630 122.572  0.00  0.00    +0.277 C 
ENDBRANCH  10  26
BRANCH  11  28
ATOM     28  O   LIG A   1      -9.835  -0.709 123.686  0.00  0.00    -0.490 OA
ATOM     29  C   LIG A   1      -9.107  -1.022 122.504  0.00  0.00    +0.277 C 
ENDBRANCH  11  28
TORSDOF 7
ENDMDL
MODEL 6
REMARK VINA RESULT:      -6.4      5.031      6.674
REMARK  Name = NuBBE_1307
REMARK  13 active torsions:
REMARK  status: ('A' for Active; 'I' for Inactive)
REMARK    1  A    between atoms: C_4  and  C_5
REMARK    2  A    between atoms: C_7  and  O_8
REMARK    3  A    between atoms: O_8  and  C_9
REMARK    4  A    between atoms: C_10  and  O_11
REMARK    5  A    between atoms: O_11  and  C_12
REMARK    6  A    between atoms: C_13  and  O_14
REMARK    7  A    between atoms: O_14  and  C_15
REMARK    8  A    between atoms: C_21  and  O_22
REMARK    9  A    between atoms: O_22  and  C_23
REMARK   10  A    between atoms: C_24  and  O_25
REMARK   11  A    between atoms: O_25  and  C_26
REMARK   12  A    between atoms: C_27  and  O_28
REMARK   13  A    between atoms: O_28  and  C_29
REMARK                            x       y       z     vdW  Elec       q    Type
REMARK                         _______ _______ _______ _____ _____    ______ ____
ROOT
ATOM      1  O   LIG A   1      -8.250  -3.571 126.009  0.00  0.00    -0.287 OA
ATOM      2  C   LIG A   1      -8.195  -2.556 126.679  0.00  0.00    +0.197 A 
ATOM      3  C   LIG A   1      -7.905  -2.684 128.125  0.00  0.00    +0.098 A 
ATOM      4  C   LIG A   1      -7.844  -1.601 128.909  0.00  0.00    +0.140 A 
ATOM      5  O   LIG A   1      -8.052  -0.323 128.427  0.00  0.00    -0.454 OA
ATOM      6  C   LIG A   1      -8.376  -1.174 126.162  0.00  0.00    +0.109 A 
ATOM      7  C   LIG A   1      -8.290  -0.142 127.090  0.00  0.00    +0.146 A 
ATOM      8  C   LIG A   1      -8.450   1.186 126.701  0.00  0.00    +0.096 A 
ATOM      9  C   LIG A   1      -8.723   1.512 125.373  0.00  0.00    +0.169 A 
ATOM     10  C   LIG A   1      -8.794   0.479 124.407  0.00  0.00    +0.204 A 
ATOM     11  C   LIG A   1      -8.612  -0.876 124.808  0.00  0.00    +0.179 A 
ENDROOT
BRANCH   4  12
ATOM     12  C   LIG A   1      -7.558  -1.651 130.372  0.00  0.00    +0.025 A 
ATOM     13  C   LIG A   1      -7.640  -0.489 131.157  0.00  0.00    +0.061 A 
ATOM     14  C   LIG A   1      -7.406  -0.524 132.539  0.00  0.00    +0.166 A 
ATOM     15  C   LIG A   1      -7.101  -1.745 133.174  0.00  0.00    +0.203 A 
ATOM     16  C   LIG A   1      -6.993  -2.913 132.403  0.00  0.00    +0.166 A 
ATOM     17  C   LIG A   1      -7.227  -2.849 131.021  0.00  0.00    +0.061 A 
BRANCH  14  18
ATOM     18  O   LIG A   1      -7.512   0.584 133.347  0.00  0.00    -0.491 OA
ATOM     19  C   LIG A   1      -7.848   1.810 132.708  0.00  0.00    +0.277 C 
ENDBRANCH  14  18
BRANCH  15  20
ATOM     20  O   LIG A   1      -6.977  -1.671 134.540  0.00  0.00    -0.488 OA
ATOM     21  C   LIG A   1      -5.662  -1.655 135.073  0.00  0.00    +0.277 C 
ENDBRANCH  15  20
BRANCH  16  22
ATOM     22  O   LIG A   1      -6.755  -4.111 133.026  0.00  0.00    -0.491 OA
ATOM     23  C   LIG A   1      -5.531  -4.763 132.691  0.00  0.00    +0.277 C 
ENDBRANCH  16  22
ENDBRANCH   4  12
BRANCH   9  24
ATOM     24  O   LIG A   1      -8.957   2.796 124.967  0.00  0.00    -0.491 OA
ATOM     25  C   LIG A   1      -7.888   3.668 124.638  0.00  0.00    +0.277 C 
ENDBRANCH   9  24
BRANCH  10  26
ATOM     26  O   LIG A   1      -9.059   0.661 123.074  0.00  0.00    -0.488 OA
ATOM     27  C   LIG A   1     -10.387   0.795 122.599  0.00  0.00    +0.277 C 
ENDBRANCH  10  26
BRANCH  11  28
ATOM     28  O   LIG A   1      -8.733  -1.959 123.970  0.00  0.00    -0.490 OA
ATOM     29  C   LIG A   1      -7.743  -2.162 122.970  0.00  0.00    +0.277 C 
ENDBRANCH  11  28
TORSDOF 7
ENDMDL
MODEL 7
REMARK VINA RESULT:      -6.4      5.961      9.187
REMARK  Name = NuBBE_1307
REMARK  13 active torsions:
REMARK  status: ('A' for Active; 'I' for Inactive)
REMARK    1  A    between atoms: C_4  and  C_5
REMARK    2  A    between atoms: C_7  and  O_8
REMARK    3  A    between atoms: O_8  and  C_9
REMARK    4  A    between atoms: C_10  and  O_11
REMARK    5  A    between atoms: O_11  and  C_12
REMARK    6  A    between atoms: C_13  and  O_14
REMARK    7  A    between atoms: O_14  and  C_15
REMARK    8  A    between atoms: C_21  and  O_22
REMARK    9  A    between atoms: O_22  and  C_23
REMARK   10  A    between atoms: C_24  and  O_25
REMARK   11  A    between atoms: O_25  and  C_26
REMARK   12  A    between atoms: C_27  and  O_28
REMARK   13  A    between atoms: O_28  and  C_29
REMARK                            x       y       z     vdW  Elec       q    Type
REMARK                         _______ _______ _______ _____ _____    ______ ____
ROOT
ATOM      1  O   LIG A   1      -2.708  -2.465 130.139  0.00  0.00    -0.287 OA
ATOM      2  C   LIG A   1      -3.919  -2.395 130.045  0.00  0.00    +0.197 A 
ATOM      3  C   LIG A   1      -4.512  -2.280 128.693  0.00  0.00    +0.098 A 
ATOM      4  C   LIG A   1      -5.838  -2.188 128.533  0.00  0.00    +0.140 A 
ATOM      5  O   LIG A   1      -6.716  -2.190 129.600  0.00  0.00    -0.454 OA
ATOM      6  C   LIG A   1      -4.874  -2.437 131.183  0.00  0.00    +0.109 A 
ATOM      7  C   LIG A   1      -6.225  -2.329 130.872  0.00  0.00    +0.146 A 
ATOM      8  C   LIG A   1      -7.195  -2.354 131.871  0.00  0.00    +0.096 A 
ATOM      9  C   LIG A   1      -6.833  -2.465 133.213  0.00  0.00    +0.169 A 
ATOM     10  C   LIG A   1      -5.465  -2.598 133.552  0.00  0.00    +0.204 A 
ATOM     11  C   LIG A   1      -4.478  -2.589 132.524  0.00  0.00    +0.179 A 
ENDROOT
BRANCH   4  12
ATOM     12  C   LIG A   1      -6.507  -2.069 127.206  0.00  0.00    +0.025 A 
ATOM     13  C   LIG A   1      -5.906  -2.595 126.051  0.00  0.00    +0.061 A 
ATOM     14  C   LIG A   1      -6.534  -2.521 124.801  0.00  0.00    +0.166 A 
ATOM     15  C   LIG A   1      -7.807  -1.926 124.684  0.00  0.00    +0.203 A 
ATOM     16  C   LIG A   1      -8.415  -1.374 125.823  0.00  0.00    +0.166 A 
ATOM     17  C   LIG A   1      -7.761  -1.457 127.061  0.00  0.00    +0.061 A 
BRANCH  14  18
ATOM     18  O   LIG A   1      -5.996  -3.057 123.654  0.00  0.00    -0.491 OA
ATOM     19  C   LIG A   1      -4.800  -3.814 123.806  0.00  0.00    +0.277 C 
ENDBRANCH  14  18
BRANCH  15  20
ATOM     20  O   LIG A   1      -8.361  -1.987 123.428  0.00  0.00    -0.488 OA
ATOM     21  C   LIG A   1      -9.298  -3.025 123.181  0.00  0.00    +0.277 C 
ENDBRANCH  15  20
BRANCH  16  22
ATOM     22  O   LIG A   1      -9.678  -0.847 125.724  0.00  0.00    -0.491 OA
ATOM     23  C   LIG A   1      -9.762   0.573 125.625  0.00  0.00    +0.277 C 
ENDBRANCH  16  22
ENDBRANCH   4  12
BRANCH   9  24
ATOM     24  O   LIG A   1      -7.749  -2.421 134.226  0.00  0.00    -0.491 OA
ATOM     25  C   LIG A   1      -8.476  -3.578 134.609  0.00  0.00    +0.277 C 
ENDBRANCH   9  24
BRANCH  10  26
ATOM     26  O   LIG A   1      -4.973  -2.711 134.828  0.00  0.00    -0.488 OA
ATOM     27  C   LIG A   1      -4.800  -3.976 135.442  0.00  0.00    +0.277 C 
ENDBRANCH  10  26
BRANCH  11  28
ATOM     28  O   LIG A   1      -3.123  -2.637 132.744  0.00  0.00    -0.490 OA
ATOM     29  C   LIG A   1      -2.481  -1.495 133.300  0.00  0.00    +0.277 C 
ENDBRANCH  11  28
TORSDOF 7
ENDMDL
MODEL 8
REMARK VINA RESULT:      -6.2      4.891      5.952
REMARK  Name = NuBBE_1307
REMARK  13 active torsions:
REMARK  status: ('A' for Active; 'I' for Inactive)
REMARK    1  A    between atoms: C_4  and  C_5
REMARK    2  A    between atoms: C_7  and  O_8
REMARK    3  A    between atoms: O_8  and  C_9
REMARK    4  A    between atoms: C_10  and  O_11
REMARK    5  A    between atoms: O_11  and  C_12
REMARK    6  A    between atoms: C_13  and  O_14
REMARK    7  A    between atoms: O_14  and  C_15
REMARK    8  A    between atoms: C_21  and  O_22
REMARK    9  A    between atoms: O_22  and  C_23
REMARK   10  A    between atoms: C_24  and  O_25
REMARK   11  A    between atoms: O_25  and  C_26
REMARK   12  A    between atoms: C_27  and  O_28
REMARK   13  A    between atoms: O_28  and  C_29
REMARK                            x       y       z     vdW  Elec       q    Type
REMARK                         _______ _______ _______ _____ _____    ______ ____
ROOT
ATOM      1  O   LIG A   1      -8.600   2.941 127.691  0.00  0.00    -0.287 OA
ATOM      2  C   LIG A   1      -8.381   1.745 127.755  0.00  0.00    +0.197 A 
ATOM      3  C   LIG A   1      -8.024   1.167 129.071  0.00  0.00    +0.098 A 
ATOM      4  C   LIG A   1      -7.761  -0.140 129.195  0.00  0.00    +0.140 A 
ATOM      5  O   LIG A   1      -7.801  -1.010 128.122  0.00  0.00    -0.454 OA
ATOM      6  C   LIG A   1      -8.461   0.795 126.616  0.00  0.00    +0.109 A 
ATOM      7  C   LIG A   1      -8.159  -0.536 126.887  0.00  0.00    +0.146 A 
ATOM      8  C   LIG A   1      -8.203  -1.500 125.883  0.00  0.00    +0.096 A 
ATOM      9  C   LIG A   1      -8.527  -1.150 124.573  0.00  0.00    +0.169 A 
ATOM     10  C   LIG A   1      -8.859   0.195 124.277  0.00  0.00    +0.204 A 
ATOM     11  C   LIG A   1      -8.829   1.174 125.312  0.00  0.00    +0.179 A 
ENDROOT
BRANCH   4  12
ATOM     12  C   LIG A   1      -7.395  -0.793 130.484  0.00  0.00    +0.025 A 
ATOM     13  C   LIG A   1      -7.098  -2.165 130.532  0.00  0.00    +0.061 A 
ATOM     14  C   LIG A   1      -6.720  -2.790 131.728  0.00  0.00    +0.166 A 
ATOM     15  C   LIG A   1      -6.611  -2.036 132.915  0.00  0.00    +0.203 A 
ATOM     16  C   LIG A   1      -6.926  -0.669 132.892  0.00  0.00    +0.166 A 
ATOM     17  C   LIG A   1      -7.307  -0.070 131.682  0.00  0.00    +0.061 A 
BRANCH  14  18
ATOM     18  O   LIG A   1      -6.386  -4.122 131.809  0.00  0.00    -0.491 OA
ATOM     19  C   LIG A   1      -5.637  -4.657 130.724  0.00  0.00    +0.277 C 
ENDBRANCH  14  18
BRANCH  15  20
ATOM     20  O   LIG A   1      -6.152  -2.737 134.004  0.00  0.00    -0.488 OA
ATOM     21  C   LIG A   1      -7.116  -3.175 134.948  0.00  0.00    +0.277 C 
ENDBRANCH  15  20
BRANCH  16  22
ATOM     22  O   LIG A   1      -6.765   0.078 134.031  0.00  0.00    -0.491 OA
ATOM     23  C   LIG A   1      -6.229   1.388 133.855  0.00  0.00    +0.277 C 
ENDBRANCH  16  22
ENDBRANCH   4  12
BRANCH   9  24
ATOM     24  O   LIG A   1      -8.511  -2.053 123.548  0.00  0.00    -0.491 OA
ATOM     25  C   LIG A   1      -9.301  -3.230 123.593  0.00  0.00    +0.277 C 
ENDBRANCH   9  24
BRANCH  10  26
ATOM     26  O   LIG A   1      -9.191   0.672 123.035  0.00  0.00    -0.488 OA
ATOM     27  C   LIG A   1     -10.514   0.571 122.536  0.00  0.00    +0.277 C 
ENDBRANCH  10  26
BRANCH  11  28
ATOM     28  O   LIG A   1      -9.059   2.515 125.123  0.00  0.00    -0.490 OA
ATOM     29  C   LIG A   1      -8.101   3.276 124.399  0.00  0.00    +0.277 C 
ENDBRANCH  11  28
TORSDOF 7
ENDMDL
MODEL 9
REMARK VINA RESULT:      -6.2      3.927      8.993
REMARK  Name = NuBBE_1307
REMARK  13 active torsions:
REMARK  status: ('A' for Active; 'I' for Inactive)
REMARK    1  A    between atoms: C_4  and  C_5
REMARK    2  A    between atoms: C_7  and  O_8
REMARK    3  A    between atoms: O_8  and  C_9
REMARK    4  A    between atoms: C_10  and  O_11
REMARK    5  A    between atoms: O_11  and  C_12
REMARK    6  A    between atoms: C_13  and  O_14
REMARK    7  A    between atoms: O_14  and  C_15
REMARK    8  A    between atoms: C_21  and  O_22
REMARK    9  A    between atoms: O_22  and  C_23
REMARK   10  A    between atoms: C_24  and  O_25
REMARK   11  A    between atoms: O_25  and  C_26
REMARK   12  A    between atoms: C_27  and  O_28
REMARK   13  A    between atoms: O_28  and  C_29
REMARK                            x       y       z     vdW  Elec       q    Type
REMARK                         _______ _______ _______ _____ _____    ______ ____
ROOT
ATOM      1  O   LIG A   1      -7.350   0.062 131.549  0.00  0.00    -0.287 OA
ATOM      2  C   LIG A   1      -7.833   0.878 130.786  0.00  0.00    +0.197 A 
ATOM      3  C   LIG A   1      -7.898   0.541 129.346  0.00  0.00    +0.098 A 
ATOM      4  C   LIG A   1      -8.410   1.407 128.463  0.00  0.00    +0.140 A 
ATOM      5  O   LIG A   1      -8.893   2.647 128.835  0.00  0.00    -0.454 OA
ATOM      6  C   LIG A   1      -8.393   2.197 131.181  0.00  0.00    +0.109 A 
ATOM      7  C   LIG A   1      -8.890   2.999 130.159  0.00  0.00    +0.146 A 
ATOM      8  C   LIG A   1      -9.430   4.253 130.430  0.00  0.00    +0.096 A 
ATOM      9  C   LIG A   1      -9.466   4.747 131.733  0.00  0.00    +0.169 A 
ATOM     10  C   LIG A   1      -8.985   3.940 132.793  0.00  0.00    +0.204 A 
ATOM     11  C   LIG A   1      -8.449   2.651 132.512  0.00  0.00    +0.179 A 
ENDROOT
BRANCH   4  12
ATOM     12  C   LIG A   1      -8.508   1.139 127.000  0.00  0.00    +0.025 A 
ATOM     13  C   LIG A   1      -8.780  -0.156 126.526  0.00  0.00    +0.061 A 
ATOM     14  C   LIG A   1      -8.909  -0.420 125.156  0.00  0.00    +0.166 A 
ATOM     15  C   LIG A   1      -8.784   0.626 124.219  0.00  0.00    +0.203 A 
ATOM     16  C   LIG A   1      -8.489   1.922 124.671  0.00  0.00    +0.166 A 
ATOM     17  C   LIG A   1      -8.361   2.159 126.049  0.00  0.00    +0.061 A 
BRANCH  14  18
ATOM     18  O   LIG A   1      -9.211  -1.665 124.655  0.00  0.00    -0.491 OA
ATOM     19  C   LIG A   1      -8.224  -2.676 124.822  0.00  0.00    +0.277 C 
ENDBRANCH  14  18
BRANCH  15  20
ATOM     20  O   LIG A   1      -9.013   0.264 122.914  0.00  0.00    -0.488 OA
ATOM     21  C   LIG A   1     -10.310   0.508 122.391  0.00  0.00    +0.277 C 
ENDBRANCH  15  20
BRANCH  16  22
ATOM     22  O   LIG A   1      -8.426   2.952 123.768  0.00  0.00    -0.491 OA
ATOM     23  C   LIG A   1      -7.139   3.232 123.221  0.00  0.00    +0.277 C 
ENDBRANCH  16  22
ENDBRANCH   4  12
BRANCH   9  24
ATOM     24  O   LIG A   1      -9.922   6.001 132.030  0.00  0.00    -0.491 OA
ATOM     25  C   LIG A   1     -11.304   6.313 131.969  0.00  0.00    +0.277 C 
ENDBRANCH   9  24
BRANCH  10  26
ATOM     26  O   LIG A   1      -8.958   4.305 134.115  0.00  0.00    -0.488 OA
ATOM     27  C   LIG A   1      -7.999   5.226 134.606  0.00  0.00    +0.277 C 
ENDBRANCH  10  26
BRANCH  11  28
ATOM     28  O   LIG A   1      -7.889   1.818 133.450  0.00  0.00    -0.490 OA
ATOM     29  C   LIG A   1      -6.574   2.097 133.914  0.00  0.00    +0.277 C 
ENDBRANCH  11  28
TORSDOF 7
ENDMDL
