MODEL 1
REMARK VINA RESULT:      -7.4      0.000      0.000
REMARK  Name = NuBBE_228
REMARK  22 active torsions:
REMARK  status: ('A' for Active; 'I' for Inactive)
REMARK    1  A    between atoms: C_1  and  C_2
REMARK    2  A    between atoms: C_4  and  O_6
REMARK    3  A    between atoms: O_6  and  C_7
REMARK    4  A    between atoms: C_7  and  C_8
REMARK    5  A    between atoms: C_8  and  C_9
REMARK    6  A    between atoms: C_9  and  C_10
REMARK    7  A    between atoms: C_12  and  O_14
REMARK    8  A    between atoms: C_17  and  O_19
REMARK    9  A    between atoms: O_19  and  C_20
REMARK   10  A    between atoms: C_20  and  C_21
REMARK   11  A    between atoms: C_21  and  C_22
REMARK   12  A    between atoms: C_22  and  C_23
REMARK   13  A    between atoms: C_26  and  O_28
REMARK   14  A    between atoms: O_28  and  C_29
REMARK   15  A    between atoms: C_29  and  C_30
REMARK   16  A    between atoms: C_33  and  O_35
REMARK   17  A    between atoms: O_35  and  C_36
REMARK   18  A    between atoms: C_40  and  C_41
REMARK   19  A    between atoms: C_40  and  C_42
REMARK   20  A    between atoms: C_42  and  C_43
REMARK   21  A    between atoms: C_44  and  C_45
REMARK   22  A    between atoms: C_44  and  C_47
REMARK                            x       y       z     vdW  Elec       q    Type
REMARK                         _______ _______ _______ _____ _____    ______ ____
ROOT
ATOM      1  C   LIG A   1      -8.709  -1.391 126.039  0.00  0.00    +0.012 C 
ATOM      2  C   LIG A   1      -8.012  -0.157 126.640  0.00  0.00    +0.036 C 
ATOM      3  C   LIG A   1      -8.098   1.088 125.744  0.00  0.00    +0.209 C 
ATOM      4  C   LIG A   1      -7.458   2.361 126.370  0.00  0.00    +0.172 C 
ATOM      5  C   LIG A   1      -6.871   2.267 127.835  0.00  0.00    +0.093 C 
ATOM      6  C   LIG A   1      -7.998   2.799 128.708  0.00  0.00    +0.011 C 
ATOM      7  C   LIG A   1      -7.988   4.309 128.627  0.00  0.00    +0.343 C 
ATOM      8  O   LIG A   1      -6.676   4.648 128.160  0.00  0.00    -0.297 OA
ATOM      9  C   LIG A   1      -5.869   3.448 128.101  0.00  0.00    +0.327 C 
ATOM     10  C   LIG A   1      -8.745   2.059 129.543  0.00  0.00    +0.010 C 
ATOM     11  C   LIG A   1      -8.325   0.700 129.976  0.00  0.00    +0.141 C 
ATOM     12  C   LIG A   1      -6.826   0.484 129.702  0.00  0.00    +0.041 C 
ATOM     13  C   LIG A   1      -6.337   0.828 128.254  0.00  0.00    +0.017 C 
ATOM     14  C   LIG A   1      -6.581  -0.365 127.209  0.00  0.00    -0.019 C 
ATOM     15  C   LIG A   1      -6.483  -1.742 127.927  0.00  0.00    +0.012 C 
ENDROOT
BRANCH   4  16
ATOM     16  O   LIG A   1      -6.501   2.912 125.460  0.00  0.00    -0.387 OA
ATOM     17  H   LIG A   1      -6.808   2.694 124.557  0.00  0.00    +0.210 HD
ENDBRANCH   4  16
BRANCH  11  18
ATOM     18  O   LIG A   1      -8.654   0.519 131.360  0.00  0.00    -0.376 OA
ATOM     19  C   LIG A   1      -7.753   1.091 132.300  0.00  0.00    +0.194 C 
ENDBRANCH  11  18
BRANCH   3  20
ATOM     20  O   LIG A   1      -9.515   1.382 125.607  0.00  0.00    -0.458 OA
BRANCH  20  21
ATOM     21  C   LIG A   1     -10.093   1.291 124.370  0.00  0.00    +0.307 C 
ATOM     22  O   LIG A   1     -11.273   1.321 124.146  0.00  0.00    -0.251 OA
BRANCH  21  23
ATOM     23  C   LIG A   1      -9.005   1.347 123.308  0.00  0.00    +0.120 C 
BRANCH  23  24
ATOM     24  C   LIG A   1      -8.962   2.681 122.566  0.00  0.00    +0.008 C 
ATOM     25  C   LIG A   1      -7.549   3.088 122.192  0.00  0.00    +0.004 C 
ENDBRANCH  23  24
ENDBRANCH  21  23
ENDBRANCH  20  21
ENDBRANCH   3  20
BRANCH   7  26
ATOM     26  O   LIG A   1      -8.272   4.861 129.915  0.00  0.00    -0.431 OA
BRANCH  26  27
ATOM     27  C   LIG A   1      -9.535   5.322 130.024  0.00  0.00    +0.309 C 
ATOM     28  O   LIG A   1     -10.355   5.090 130.918  0.00  0.00    -0.251 OA
BRANCH  27  29
ATOM     29  C   LIG A   1      -9.764   6.294 128.850  0.00  0.00    +0.120 C 
BRANCH  29  30
ATOM     30  C   LIG A   1     -10.162   7.677 129.317  0.00  0.00    +0.008 C 
ATOM     31  C   LIG A   1     -10.706   8.521 128.175  0.00  0.00    +0.004 C 
ENDBRANCH  29  30
ENDBRANCH  27  29
ENDBRANCH  26  27
ENDBRANCH   7  26
BRANCH   9  32
ATOM     32  O   LIG A   1      -5.104   3.353 129.317  0.00  0.00    -0.434 OA
BRANCH  32  33
ATOM     33  C   LIG A   1      -3.784   3.679 129.128  0.00  0.00    +0.306 C 
ATOM     34  C   LIG A   1      -3.234   3.049 127.881  0.00  0.00    +0.136 C 
ATOM     35  O   LIG A   1      -3.109   4.386 129.863  0.00  0.00    -0.251 OA
ENDBRANCH  32  33
ENDBRANCH   9  32
BRANCH  14  36
ATOM     36  C   LIG A   1      -5.424  -0.348 126.113  0.00  0.00    +0.034 C 
BRANCH  36  37
ATOM     37  C   LIG A   1      -5.146  -1.659 125.398  0.00  0.00    -0.023 C 
ATOM     38  C   LIG A   1      -5.500  -2.103 124.169  0.00  0.00    -0.055 C 
ATOM     39  C   LIG A   1      -4.969  -3.447 123.706  0.00  0.00    +0.043 C 
BRANCH  38  40
ATOM     40  C   LIG A   1      -6.394  -1.394 123.262  0.00  0.00    -0.005 C 
ATOM     41  C   LIG A   1      -7.431  -1.933 122.600  0.00  0.00    +0.008 C 
ENDBRANCH  38  40
ENDBRANCH  36  37
ENDBRANCH  14  36
TORSDOF 15
ENDMDL
MODEL 2
REMARK VINA RESULT:      -7.3      2.277      5.849
REMARK  Name = NuBBE_228
REMARK  22 active torsions:
REMARK  status: ('A' for Active; 'I' for Inactive)
REMARK    1  A    between atoms: C_1  and  C_2
REMARK    2  A    between atoms: C_4  and  O_6
REMARK    3  A    between atoms: O_6  and  C_7
REMARK    4  A    between atoms: C_7  and  C_8
REMARK    5  A    between atoms: C_8  and  C_9
REMARK    6  A    between atoms: C_9  and  C_10
REMARK    7  A    between atoms: C_12  and  O_14
REMARK    8  A    between atoms: C_17  and  O_19
REMARK    9  A    between atoms: O_19  and  C_20
REMARK   10  A    between atoms: C_20  and  C_21
REMARK   11  A    between atoms: C_21  and  C_22
REMARK   12  A    between atoms: C_22  and  C_23
REMARK   13  A    between atoms: C_26  and  O_28
REMARK   14  A    between atoms: O_28  and  C_29
REMARK   15  A    between atoms: C_29  and  C_30
REMARK   16  A    between atoms: C_33  and  O_35
REMARK   17  A    between atoms: O_35  and  C_36
REMARK   18  A    between atoms: C_40  and  C_41
REMARK   19  A    between atoms: C_40  and  C_42
REMARK   20  A    between atoms: C_42  and  C_43
REMARK   21  A    between atoms: C_44  and  C_45
REMARK   22  A    between atoms: C_44  and  C_47
REMARK                            x       y       z     vdW  Elec       q    Type
REMARK                         _______ _______ _______ _____ _____    ______ ____
ROOT
ATOM      1  C   LIG A   1      -3.439   3.467 126.662  0.00  0.00    +0.012 C 
ATOM      2  C   LIG A   1      -4.635   3.400 127.629  0.00  0.00    +0.036 C 
ATOM      3  C   LIG A   1      -4.538   4.403 128.789  0.00  0.00    +0.209 C 
ATOM      4  C   LIG A   1      -5.773   4.395 129.735  0.00  0.00    +0.172 C 
ATOM      5  C   LIG A   1      -6.988   3.446 129.382  0.00  0.00    +0.093 C 
ATOM      6  C   LIG A   1      -7.959   4.362 128.652  0.00  0.00    +0.011 C 
ATOM      7  C   LIG A   1      -8.695   5.189 129.682  0.00  0.00    +0.343 C 
ATOM      8  O   LIG A   1      -8.539   4.474 130.914  0.00  0.00    -0.297 OA
ATOM      9  C   LIG A   1      -7.886   3.209 130.649  0.00  0.00    +0.327 C 
ATOM     10  C   LIG A   1      -8.237   4.307 127.340  0.00  0.00    +0.010 C 
ATOM     11  C   LIG A   1      -7.897   3.117 126.515  0.00  0.00    +0.141 C 
ATOM     12  C   LIG A   1      -7.618   1.899 127.413  0.00  0.00    +0.041 C 
ATOM     13  C   LIG A   1      -6.599   2.127 128.581  0.00  0.00    +0.017 C 
ATOM     14  C   LIG A   1      -5.069   1.989 128.116  0.00  0.00    -0.019 C 
ATOM     15  C   LIG A   1      -4.948   0.960 126.955  0.00  0.00    +0.012 C 
ENDROOT
BRANCH   4  16
ATOM     16  O   LIG A   1      -5.340   4.205 131.086  0.00  0.00    -0.387 OA
ATOM     17  H   LIG A   1      -4.525   4.734 131.201  0.00  0.00    +0.210 HD
ENDBRANCH   4  16
BRANCH  11  18
ATOM     18  O   LIG A   1      -8.956   2.869 125.581  0.00  0.00    -0.376 OA
ATOM     19  C   LIG A   1      -9.048   1.544 125.071  0.00  0.00    +0.194 C 
ENDBRANCH  11  18
BRANCH   3  20
ATOM     20  O   LIG A   1      -4.516   5.720 128.175  0.00  0.00    -0.458 OA
BRANCH  20  21
ATOM     21  C   LIG A   1      -3.734   6.695 128.731  0.00  0.00    +0.307 C 
ATOM     22  O   LIG A   1      -4.099   7.803 129.021  0.00  0.00    -0.251 OA
BRANCH  21  23
ATOM     23  C   LIG A   1      -2.386   6.098 129.108  0.00  0.00    +0.120 C 
BRANCH  23  24
ATOM     24  C   LIG A   1      -1.931   6.490 130.512  0.00  0.00    +0.008 C 
ATOM     25  C   LIG A   1      -2.145   5.377 131.520  0.00  0.00    +0.004 C 
ENDBRANCH  23  24
ENDBRANCH  21  23
ENDBRANCH  20  21
ENDBRANCH   3  20
BRANCH   7  26
ATOM     26  O   LIG A   1     -10.065   5.328 129.297  0.00  0.00    -0.431 OA
BRANCH  26  27
ATOM     27  C   LIG A   1     -10.698   6.325 129.949  0.00  0.00    +0.309 C 
ATOM     28  O   LIG A   1     -11.539   6.231 130.848  0.00  0.00    -0.251 OA
BRANCH  27  29
ATOM     29  C   LIG A   1     -10.110   7.650 129.427  0.00  0.00    +0.120 C 
BRANCH  29  30
ATOM     30  C   LIG A   1     -11.063   8.378 128.503  0.00  0.00    +0.008 C 
ATOM     31  C   LIG A   1     -10.875   7.955 127.055  0.00  0.00    +0.004 C 
ENDBRANCH  29  30
ENDBRANCH  27  29
ENDBRANCH  26  27
ENDBRANCH   7  26
BRANCH   9  32
ATOM     32  O   LIG A   1      -8.897   2.193 130.515  0.00  0.00    -0.434 OA
BRANCH  32  33
ATOM     33  C   LIG A   1      -8.956   1.370 131.611  0.00  0.00    +0.306 C 
ATOM     34  C   LIG A   1      -7.806   1.615 132.545  0.00  0.00    +0.136 C 
ATOM     35  O   LIG A   1      -9.816   0.528 131.829  0.00  0.00    -0.251 OA
ENDBRANCH  32  33
ENDBRANCH   9  32
BRANCH  14  36
ATOM     36  C   LIG A   1      -4.204   1.410 129.322  0.00  0.00    +0.034 C 
BRANCH  36  37
ATOM     37  C   LIG A   1      -4.937   0.535 130.325  0.00  0.00    -0.023 C 
ATOM     38  C   LIG A   1      -4.949  -0.807 130.505  0.00  0.00    -0.055 C 
ATOM     39  C   LIG A   1      -5.721  -1.371 131.682  0.00  0.00    +0.043 C 
BRANCH  38  40
ATOM     40  C   LIG A   1      -4.297  -1.763 129.619  0.00  0.00    -0.005 C 
ATOM     41  C   LIG A   1      -4.848  -2.330 128.533  0.00  0.00    +0.008 C 
ENDBRANCH  38  40
ENDBRANCH  36  37
ENDBRANCH  14  36
TORSDOF 15
ENDMDL
MODEL 3
REMARK VINA RESULT:      -7.2      2.391      7.013
REMARK  Name = NuBBE_228
REMARK  22 active torsions:
REMARK  status: ('A' for Active; 'I' for Inactive)
REMARK    1  A    between atoms: C_1  and  C_2
REMARK    2  A    between atoms: C_4  and  O_6
REMARK    3  A    between atoms: O_6  and  C_7
REMARK    4  A    between atoms: C_7  and  C_8
REMARK    5  A    between atoms: C_8  and  C_9
REMARK    6  A    between atoms: C_9  and  C_10
REMARK    7  A    between atoms: C_12  and  O_14
REMARK    8  A    between atoms: C_17  and  O_19
REMARK    9  A    between atoms: O_19  and  C_20
REMARK   10  A    between atoms: C_20  and  C_21
REMARK   11  A    between atoms: C_21  and  C_22
REMARK   12  A    between atoms: C_22  and  C_23
REMARK   13  A    between atoms: C_26  and  O_28
REMARK   14  A    between atoms: O_28  and  C_29
REMARK   15  A    between atoms: C_29  and  C_30
REMARK   16  A    between atoms: C_33  and  O_35
REMARK   17  A    between atoms: O_35  and  C_36
REMARK   18  A    between atoms: C_40  and  C_41
REMARK   19  A    between atoms: C_40  and  C_42
REMARK   20  A    between atoms: C_42  and  C_43
REMARK   21  A    between atoms: C_44  and  C_45
REMARK   22  A    between atoms: C_44  and  C_47
REMARK                            x       y       z     vdW  Elec       q    Type
REMARK                         _______ _______ _______ _____ _____    ______ ____
ROOT
ATOM      1  C   LIG A   1      -6.169   1.781 133.106  0.00  0.00    +0.012 C 
ATOM      2  C   LIG A   1      -6.155   1.944 131.575  0.00  0.00    +0.036 C 
ATOM      3  C   LIG A   1      -5.558   0.734 130.839  0.00  0.00    +0.209 C 
ATOM      4  C   LIG A   1      -5.601   0.856 129.289  0.00  0.00    +0.172 C 
ATOM      5  C   LIG A   1      -6.291   2.127 128.650  0.00  0.00    +0.093 C 
ATOM      6  C   LIG A   1      -7.698   1.648 128.328  0.00  0.00    +0.011 C 
ATOM      7  C   LIG A   1      -7.643   0.837 127.052  0.00  0.00    +0.343 C 
ATOM      8  O   LIG A   1      -6.418   1.227 126.417  0.00  0.00    -0.297 OA
ATOM      9  C   LIG A   1      -5.823   2.317 127.162  0.00  0.00    +0.327 C 
ATOM     10  C   LIG A   1      -8.813   2.035 128.967  0.00  0.00    +0.010 C 
ATOM     11  C   LIG A   1      -8.842   3.246 129.831  0.00  0.00    +0.141 C 
ATOM     12  C   LIG A   1      -7.631   4.148 129.536  0.00  0.00    +0.041 C 
ATOM     13  C   LIG A   1      -6.232   3.443 129.543  0.00  0.00    +0.017 C 
ATOM     14  C   LIG A   1      -5.613   3.289 131.016  0.00  0.00    -0.019 C 
ATOM     15  C   LIG A   1      -6.070   4.469 131.920  0.00  0.00    +0.012 C 
ENDROOT
BRANCH   4  16
ATOM     16  O   LIG A   1      -4.288   0.655 128.756  0.00  0.00    -0.387 OA
ATOM     17  H   LIG A   1      -4.004   1.507 128.368  0.00  0.00    +0.210 HD
ENDBRANCH   4  16
BRANCH  11  18
ATOM     18  O   LIG A   1     -10.087   3.933 129.644  0.00  0.00    -0.376 OA
ATOM     19  C   LIG A   1     -10.379   4.969 130.573  0.00  0.00    +0.194 C 
ENDBRANCH  11  18
BRANCH   3  20
ATOM     20  O   LIG A   1      -6.410  -0.394 131.173  0.00  0.00    -0.458 OA
BRANCH  20  21
ATOM     21  C   LIG A   1      -5.868  -1.650 131.189  0.00  0.00    +0.307 C 
ATOM     22  O   LIG A   1      -4.735  -1.919 131.487  0.00  0.00    -0.251 OA
BRANCH  21  23
ATOM     23  C   LIG A   1      -6.973  -2.673 130.966  0.00  0.00    +0.120 C 
BRANCH  23  24
ATOM     24  C   LIG A   1      -7.913  -2.296 129.823  0.00  0.00    +0.008 C 
ATOM     25  C   LIG A   1      -8.323  -3.499 128.995  0.00  0.00    +0.004 C 
ENDBRANCH  23  24
ENDBRANCH  21  23
ENDBRANCH  20  21
ENDBRANCH   3  20
BRANCH   7  26
ATOM     26  O   LIG A   1      -8.792   1.124 126.251  0.00  0.00    -0.431 OA
BRANCH  26  27
ATOM     27  C   LIG A   1      -9.187   0.073 125.502  0.00  0.00    +0.309 C 
ATOM     28  O   LIG A   1      -9.811   0.091 124.437  0.00  0.00    -0.251 OA
BRANCH  27  29
ATOM     29  C   LIG A   1      -8.633  -1.197 126.178  0.00  0.00    +0.120 C 
BRANCH  29  30
ATOM     30  C   LIG A   1      -9.351  -2.449 125.724  0.00  0.00    +0.008 C 
ATOM     31  C   LIG A   1      -8.474  -3.303 124.821  0.00  0.00    +0.004 C 
ENDBRANCH  29  30
ENDBRANCH  27  29
ENDBRANCH  26  27
ENDBRANCH   7  26
BRANCH   9  32
ATOM     32  O   LIG A   1      -6.209   3.557 126.542  0.00  0.00    -0.434 OA
BRANCH  32  33
ATOM     33  C   LIG A   1      -5.157   4.432 126.429  0.00  0.00    +0.306 C 
ATOM     34  C   LIG A   1      -3.879   3.716 126.102  0.00  0.00    +0.136 C 
ATOM     35  O   LIG A   1      -5.217   5.644 126.576  0.00  0.00    -0.251 OA
ENDBRANCH  32  33
ENDBRANCH   9  32
BRANCH  14  36
ATOM     36  C   LIG A   1      -4.025   3.379 130.929  0.00  0.00    +0.034 C 
BRANCH  36  37
ATOM     37  C   LIG A   1      -3.452   4.246 129.820  0.00  0.00    -0.023 C 
ATOM     38  C   LIG A   1      -2.915   5.488 129.840  0.00  0.00    -0.055 C 
ATOM     39  C   LIG A   1      -2.333   6.044 128.554  0.00  0.00    +0.043 C 
BRANCH  38  40
ATOM     40  C   LIG A   1      -2.888   6.357 131.010  0.00  0.00    -0.005 C 
ATOM     41  C   LIG A   1      -3.707   7.396 131.236  0.00  0.00    +0.008 C 
ENDBRANCH  38  40
ENDBRANCH  36  37
ENDBRANCH  14  36
TORSDOF 15
ENDMDL
MODEL 4
REMARK VINA RESULT:      -7.2      2.481      5.712
REMARK  Name = NuBBE_228
REMARK  22 active torsions:
REMARK  status: ('A' for Active; 'I' for Inactive)
REMARK    1  A    between atoms: C_1  and  C_2
REMARK    2  A    between atoms: C_4  and  O_6
REMARK    3  A    between atoms: O_6  and  C_7
REMARK    4  A    between atoms: C_7  and  C_8
REMARK    5  A    between atoms: C_8  and  C_9
REMARK    6  A    between atoms: C_9  and  C_10
REMARK    7  A    between atoms: C_12  and  O_14
REMARK    8  A    between atoms: C_17  and  O_19
REMARK    9  A    between atoms: O_19  and  C_20
REMARK   10  A    between atoms: C_20  and  C_21
REMARK   11  A    between atoms: C_21  and  C_22
REMARK   12  A    between atoms: C_22  and  C_23
REMARK   13  A    between atoms: C_26  and  O_28
REMARK   14  A    between atoms: O_28  and  C_29
REMARK   15  A    between atoms: C_29  and  C_30
REMARK   16  A    between atoms: C_33  and  O_35
REMARK   17  A    between atoms: O_35  and  C_36
REMARK   18  A    between atoms: C_40  and  C_41
REMARK   19  A    between atoms: C_40  and  C_42
REMARK   20  A    between atoms: C_42  and  C_43
REMARK   21  A    between atoms: C_44  and  C_45
REMARK   22  A    between atoms: C_44  and  C_47
REMARK                            x       y       z     vdW  Elec       q    Type
REMARK                         _______ _______ _______ _____ _____    ______ ____
ROOT
ATOM      1  C   LIG A   1      -5.701  -1.480 129.485  0.00  0.00    +0.012 C 
ATOM      2  C   LIG A   1      -6.126  -0.050 129.103  0.00  0.00    +0.036 C 
ATOM      3  C   LIG A   1      -7.183   0.545 130.047  0.00  0.00    +0.209 C 
ATOM      4  C   LIG A   1      -7.569   2.014 129.714  0.00  0.00    +0.172 C 
ATOM      5  C   LIG A   1      -6.816   2.744 128.530  0.00  0.00    +0.093 C 
ATOM      6  C   LIG A   1      -5.722   3.533 129.234  0.00  0.00    +0.011 C 
ATOM      7  C   LIG A   1      -6.342   4.780 129.823  0.00  0.00    +0.343 C 
ATOM      8  O   LIG A   1      -7.570   4.960 129.106  0.00  0.00    -0.297 OA
ATOM      9  C   LIG A   1      -7.642   3.986 128.037  0.00  0.00    +0.327 C 
ATOM     10  C   LIG A   1      -4.410   3.256 129.177  0.00  0.00    +0.010 C 
ATOM     11  C   LIG A   1      -3.842   2.359 128.135  0.00  0.00    +0.141 C 
ATOM     12  C   LIG A   1      -4.835   2.184 126.973  0.00  0.00    +0.041 C 
ATOM     13  C   LIG A   1      -6.295   1.784 127.373  0.00  0.00    +0.017 C 
ATOM     14  C   LIG A   1      -6.472   0.206 127.610  0.00  0.00    -0.019 C 
ATOM     15  C   LIG A   1      -5.502  -0.590 126.690  0.00  0.00    +0.012 C 
ENDROOT
BRANCH   4  16
ATOM     16  O   LIG A   1      -8.990   2.113 129.566  0.00  0.00    -0.387 OA
ATOM     17  H   LIG A   1      -9.373   1.298 129.948  0.00  0.00    +0.210 HD
ENDBRANCH   4  16
BRANCH  11  18
ATOM     18  O   LIG A   1      -2.581   2.882 127.695  0.00  0.00    -0.376 OA
ATOM     19  C   LIG A   1      -2.577   3.535 126.431  0.00  0.00    +0.194 C 
ENDBRANCH  11  18
BRANCH   3  20
ATOM     20  O   LIG A   1      -6.563   0.585 131.361  0.00  0.00    -0.458 OA
BRANCH  20  21
ATOM     21  C   LIG A   1      -7.363   0.538 132.471  0.00  0.00    +0.307 C 
ATOM     22  O   LIG A   1      -8.210  -0.287 132.687  0.00  0.00    -0.251 OA
BRANCH  21  23
ATOM     23  C   LIG A   1      -6.879   1.571 133.477  0.00  0.00    +0.120 C 
BRANCH  23  24
ATOM     24  C   LIG A   1      -7.432   2.969 133.210  0.00  0.00    +0.008 C 
ATOM     25  C   LIG A   1      -8.938   3.035 133.376  0.00  0.00    +0.004 C 
ENDBRANCH  23  24
ENDBRANCH  21  23
ENDBRANCH  20  21
ENDBRANCH   3  20
BRANCH   7  26
ATOM     26  O   LIG A   1      -5.446   5.883 129.663  0.00  0.00    -0.431 OA
BRANCH  26  27
ATOM     27  C   LIG A   1      -5.616   6.841 130.597  0.00  0.00    +0.309 C 
ATOM     28  O   LIG A   1      -6.650   7.455 130.876  0.00  0.00    -0.251 OA
BRANCH  27  29
ATOM     29  C   LIG A   1      -4.277   6.984 131.347  0.00  0.00    +0.120 C 
BRANCH  29  30
ATOM     30  C   LIG A   1      -3.085   6.875 130.421  0.00  0.00    +0.008 C 
ATOM     31  C   LIG A   1      -1.846   6.388 131.155  0.00  0.00    +0.004 C 
ENDBRANCH  29  30
ENDBRANCH  27  29
ENDBRANCH  26  27
ENDBRANCH   7  26
BRANCH   9  32
ATOM     32  O   LIG A   1      -7.173   4.604 126.825  0.00  0.00    -0.434 OA
BRANCH  32  33
ATOM     33  C   LIG A   1      -8.178   4.778 125.907  0.00  0.00    +0.306 C 
ATOM     34  C   LIG A   1      -8.213   3.656 124.910  0.00  0.00    +0.136 C 
ATOM     35  O   LIG A   1      -8.960   5.717 125.871  0.00  0.00    -0.251 OA
ENDBRANCH  32  33
ENDBRANCH   9  32
BRANCH  14  36
ATOM     36  C   LIG A   1      -7.947  -0.226 127.188  0.00  0.00    +0.034 C 
BRANCH  36  37
ATOM     37  C   LIG A   1      -8.061  -1.326 126.146  0.00  0.00    -0.023 C 
ATOM     38  C   LIG A   1      -8.216  -2.665 126.268  0.00  0.00    -0.055 C 
ATOM     39  C   LIG A   1      -8.400  -3.488 125.007  0.00  0.00    +0.043 C 
BRANCH  38  40
ATOM     40  C   LIG A   1      -8.181  -3.387 127.534  0.00  0.00    -0.005 C 
ATOM     41  C   LIG A   1      -9.233  -3.958 128.141  0.00  0.00    +0.008 C 
ENDBRANCH  38  40
ENDBRANCH  36  37
ENDBRANCH  14  36
TORSDOF 15
ENDMDL
MODEL 5
REMARK VINA RESULT:      -7.2      2.978      7.960
REMARK  Name = NuBBE_228
REMARK  22 active torsions:
REMARK  status: ('A' for Active; 'I' for Inactive)
REMARK    1  A    between atoms: C_1  and  C_2
REMARK    2  A    between atoms: C_4  and  O_6
REMARK    3  A    between atoms: O_6  and  C_7
REMARK    4  A    between atoms: C_7  and  C_8
REMARK    5  A    between atoms: C_8  and  C_9
REMARK    6  A    between atoms: C_9  and  C_10
REMARK    7  A    between atoms: C_12  and  O_14
REMARK    8  A    between atoms: C_17  and  O_19
REMARK    9  A    between atoms: O_19  and  C_20
REMARK   10  A    between atoms: C_20  and  C_21
REMARK   11  A    between atoms: C_21  and  C_22
REMARK   12  A    between atoms: C_22  and  C_23
REMARK   13  A    between atoms: C_26  and  O_28
REMARK   14  A    between atoms: O_28  and  C_29
REMARK   15  A    between atoms: C_29  and  C_30
REMARK   16  A    between atoms: C_33  and  O_35
REMARK   17  A    between atoms: O_35  and  C_36
REMARK   18  A    between atoms: C_40  and  C_41
REMARK   19  A    between atoms: C_40  and  C_42
REMARK   20  A    between atoms: C_42  and  C_43
REMARK   21  A    between atoms: C_44  and  C_45
REMARK   22  A    between atoms: C_44  and  C_47
REMARK                            x       y       z     vdW  Elec       q    Type
REMARK                         _______ _______ _______ _____ _____    ______ ____
ROOT
ATOM      1  C   LIG A   1      -1.933   4.339 132.376  0.00  0.00    +0.012 C 
ATOM      2  C   LIG A   1      -3.349   4.457 131.783  0.00  0.00    +0.036 C 
ATOM      3  C   LIG A   1      -3.464   5.529 130.688  0.00  0.00    +0.209 C 
ATOM      4  C   LIG A   1      -4.873   5.610 130.032  0.00  0.00    +0.172 C 
ATOM      5  C   LIG A   1      -5.979   4.577 130.488  0.00  0.00    +0.093 C 
ATOM      6  C   LIG A   1      -5.907   3.484 129.432  0.00  0.00    +0.011 C 
ATOM      7  C   LIG A   1      -6.638   3.968 128.199  0.00  0.00    +0.343 C 
ATOM      8  O   LIG A   1      -7.486   5.027 128.661  0.00  0.00    -0.297 OA
ATOM      9  C   LIG A   1      -7.410   5.101 130.104  0.00  0.00    +0.327 C 
ATOM     10  C   LIG A   1      -5.438   2.243 129.634  0.00  0.00    +0.010 C 
ATOM     11  C   LIG A   1      -5.261   1.684 131.001  0.00  0.00    +0.141 C 
ATOM     12  C   LIG A   1      -6.057   2.507 132.029  0.00  0.00    +0.041 C 
ATOM     13  C   LIG A   1      -5.836   4.057 131.985  0.00  0.00    +0.017 C 
ATOM     14  C   LIG A   1      -4.530   4.528 132.791  0.00  0.00    -0.019 C 
ATOM     15  C   LIG A   1      -4.266   3.579 133.995  0.00  0.00    +0.012 C 
ENDROOT
BRANCH   4  16
ATOM     16  O   LIG A   1      -5.356   6.956 130.102  0.00  0.00    -0.387 OA
ATOM     17  H   LIG A   1      -5.980   7.074 129.358  0.00  0.00    +0.210 HD
ENDBRANCH   4  16
BRANCH  11  18
ATOM     18  O   LIG A   1      -5.645   0.302 131.001  0.00  0.00    -0.376 OA
ATOM     19  C   LIG A   1      -6.069  -0.234 129.754  0.00  0.00    +0.194 C 
ENDBRANCH  11  18
BRANCH   3  20
ATOM     20  O   LIG A   1      -2.557   5.115 129.631  0.00  0.00    -0.458 OA
BRANCH  20  21
ATOM     21  C   LIG A   1      -2.595   5.772 128.431  0.00  0.00    +0.307 C 
ATOM     22  O   LIG A   1      -2.201   6.891 128.234  0.00  0.00    -0.251 OA
BRANCH  21  23
ATOM     23  C   LIG A   1      -3.030   4.800 127.344  0.00  0.00    +0.120 C 
BRANCH  23  24
ATOM     24  C   LIG A   1      -2.513   3.381 127.571  0.00  0.00    +0.008 C 
ATOM     25  C   LIG A   1      -1.507   2.958 126.517  0.00  0.00    +0.004 C 
ENDBRANCH  23  24
ENDBRANCH  21  23
ENDBRANCH  20  21
ENDBRANCH   3  20
BRANCH   7  26
ATOM     26  O   LIG A   1      -7.374   2.886 127.622  0.00  0.00    -0.431 OA
BRANCH  26  27
ATOM     27  C   LIG A   1      -7.737   3.118 126.344  0.00  0.00    +0.309 C 
ATOM     28  O   LIG A   1      -8.452   4.026 125.910  0.00  0.00    -0.251 OA
BRANCH  27  29
ATOM     29  C   LIG A   1      -7.012   2.075 125.472  0.00  0.00    +0.120 C 
BRANCH  29  30
ATOM     30  C   LIG A   1      -6.469   0.921 126.287  0.00  0.00    +0.008 C 
ATOM     31  C   LIG A   1      -4.950   0.863 126.237  0.00  0.00    +0.004 C 
ENDBRANCH  29  30
ENDBRANCH  27  29
ENDBRANCH  26  27
ENDBRANCH   7  26
BRANCH   9  32
ATOM     32  O   LIG A   1      -8.513   4.359 130.657  0.00  0.00    -0.434 OA
BRANCH  32  33
ATOM     33  C   LIG A   1      -9.697   5.049 130.575  0.00  0.00    +0.306 C 
ATOM     34  C   LIG A   1      -9.619   6.361 131.300  0.00  0.00    +0.136 C 
ATOM     35  O   LIG A   1     -10.708   4.670 130.000  0.00  0.00    -0.251 OA
ENDBRANCH  32  33
ENDBRANCH   9  32
BRANCH  14  36
ATOM     36  C   LIG A   1      -4.788   5.975 133.408  0.00  0.00    +0.034 C 
BRANCH  36  37
ATOM     37  C   LIG A   1      -5.330   6.022 134.827  0.00  0.00    -0.023 C 
ATOM     38  C   LIG A   1      -6.564   5.773 135.324  0.00  0.00    -0.055 C 
ATOM     39  C   LIG A   1      -6.758   5.811 136.828  0.00  0.00    +0.043 C 
BRANCH  38  40
ATOM     40  C   LIG A   1      -7.743   5.504 134.509  0.00  0.00    -0.005 C 
ATOM     41  C   LIG A   1      -8.455   4.366 134.509  0.00  0.00    +0.008 C 
ENDBRANCH  38  40
ENDBRANCH  36  37
ENDBRANCH  14  36
TORSDOF 15
ENDMDL
MODEL 6
REMARK VINA RESULT:      -7.2      2.460      7.303
REMARK  Name = NuBBE_228
REMARK  22 active torsions:
REMARK  status: ('A' for Active; 'I' for Inactive)
REMARK    1  A    between atoms: C_1  and  C_2
REMARK    2  A    between atoms: C_4  and  O_6
REMARK    3  A    between atoms: O_6  and  C_7
REMARK    4  A    between atoms: C_7  and  C_8
REMARK    5  A    between atoms: C_8  and  C_9
REMARK    6  A    between atoms: C_9  and  C_10
REMARK    7  A    between atoms: C_12  and  O_14
REMARK    8  A    between atoms: C_17  and  O_19
REMARK    9  A    between atoms: O_19  and  C_20
REMARK   10  A    between atoms: C_20  and  C_21
REMARK   11  A    between atoms: C_21  and  C_22
REMARK   12  A    between atoms: C_22  and  C_23
REMARK   13  A    between atoms: C_26  and  O_28
REMARK   14  A    between atoms: O_28  and  C_29
REMARK   15  A    between atoms: C_29  and  C_30
REMARK   16  A    between atoms: C_33  and  O_35
REMARK   17  A    between atoms: O_35  and  C_36
REMARK   18  A    between atoms: C_40  and  C_41
REMARK   19  A    between atoms: C_40  and  C_42
REMARK   20  A    between atoms: C_42  and  C_43
REMARK   21  A    between atoms: C_44  and  C_45
REMARK   22  A    between atoms: C_44  and  C_47
REMARK                            x       y       z     vdW  Elec       q    Type
REMARK                         _______ _______ _______ _____ _____    ______ ____
ROOT
ATOM      1  C   LIG A   1      -8.823   0.818 131.143  0.00  0.00    +0.012 C 
ATOM      2  C   LIG A   1      -7.888   0.979 129.930  0.00  0.00    +0.036 C 
ATOM      3  C   LIG A   1      -6.620   0.115 130.019  0.00  0.00    +0.209 C 
ATOM      4  C   LIG A   1      -5.701   0.215 128.768  0.00  0.00    +0.172 C 
ATOM      5  C   LIG A   1      -6.177   1.102 127.549  0.00  0.00    +0.093 C 
ATOM      6  C   LIG A   1      -6.813   0.098 126.600  0.00  0.00    +0.011 C 
ATOM      7  C   LIG A   1      -5.707  -0.617 125.856  0.00  0.00    +0.343 C 
ATOM      8  O   LIG A   1      -4.562   0.236 125.984  0.00  0.00    -0.297 OA
ATOM      9  C   LIG A   1      -4.958   1.470 126.628  0.00  0.00    +0.327 C 
ATOM     10  C   LIG A   1      -8.127   0.001 126.343  0.00  0.00    +0.010 C 
ATOM     11  C   LIG A   1      -9.076   1.094 126.684  0.00  0.00    +0.141 C 
ATOM     12  C   LIG A   1      -8.318   2.409 126.935  0.00  0.00    +0.041 C 
ATOM     13  C   LIG A   1      -7.116   2.327 127.937  0.00  0.00    +0.017 C 
ATOM     14  C   LIG A   1      -7.571   2.430 129.473  0.00  0.00    -0.019 C 
ATOM     15  C   LIG A   1      -8.838   3.323 129.603  0.00  0.00    +0.012 C 
ENDROOT
BRANCH   4  16
ATOM     16  O   LIG A   1      -4.373   0.561 129.177  0.00  0.00    -0.387 OA
ATOM     17  H   LIG A   1      -3.829  -0.247 129.093  0.00  0.00    +0.210 HD
ENDBRANCH   4  16
BRANCH  11  18
ATOM     18  O   LIG A   1     -10.049   1.222 125.638  0.00  0.00    -0.376 OA
ATOM     19  C   LIG A   1      -9.581   1.759 124.406  0.00  0.00    +0.194 C 
ENDBRANCH  11  18
BRANCH   3  20
ATOM     20  O   LIG A   1      -7.081  -1.263 130.064  0.00  0.00    -0.458 OA
BRANCH  20  21
ATOM     21  C   LIG A   1      -6.155  -2.270 130.064  0.00  0.00    +0.307 C 
ATOM     22  O   LIG A   1      -5.075  -2.228 130.591  0.00  0.00    -0.251 OA
BRANCH  21  23
ATOM     23  C   LIG A   1      -6.780  -3.521 129.463  0.00  0.00    +0.120 C 
BRANCH  23  24
ATOM     24  C   LIG A   1      -8.277  -3.374 129.203  0.00  0.00    +0.008 C 
ATOM     25  C   LIG A   1      -8.627  -3.548 127.737  0.00  0.00    +0.004 C 
ENDBRANCH  23  24
ENDBRANCH  21  23
ENDBRANCH  20  21
ENDBRANCH   3  20
BRANCH   7  26
ATOM     26  O   LIG A   1      -6.095  -0.815 124.494  0.00  0.00    -0.431 OA
BRANCH  26  27
ATOM     27  C   LIG A   1      -5.989  -2.099 124.097  0.00  0.00    +0.309 C 
ATOM     28  O   LIG A   1      -5.084  -2.901 124.349  0.00  0.00    -0.251 OA
BRANCH  27  29
ATOM     29  C   LIG A   1      -7.276  -2.440 123.321  0.00  0.00    +0.120 C 
BRANCH  29  30
ATOM     30  C   LIG A   1      -8.177  -3.384 124.088  0.00  0.00    +0.008 C 
ATOM     31  C   LIG A   1      -9.600  -3.361 123.553  0.00  0.00    +0.004 C 
ENDBRANCH  29  30
ENDBRANCH  27  29
ENDBRANCH  26  27
ENDBRANCH   7  26
BRANCH   9  32
ATOM     32  O   LIG A   1      -5.222   2.451 125.609  0.00  0.00    -0.434 OA
BRANCH  32  33
ATOM     33  C   LIG A   1      -4.571   3.636 125.847  0.00  0.00    +0.306 C 
ATOM     34  C   LIG A   1      -5.499   4.809 125.723  0.00  0.00    +0.136 C 
ATOM     35  O   LIG A   1      -3.385   3.758 126.121  0.00  0.00    -0.251 OA
ENDBRANCH  32  33
ENDBRANCH   9  32
BRANCH  14  36
ATOM     36  C   LIG A   1      -6.424   3.153 130.312  0.00  0.00    +0.034 C 
BRANCH  36  37
ATOM     37  C   LIG A   1      -5.528   4.114 129.550  0.00  0.00    -0.023 C 
ATOM     38  C   LIG A   1      -5.082   5.356 129.853  0.00  0.00    -0.055 C 
ATOM     39  C   LIG A   1      -4.100   6.021 128.907  0.00  0.00    +0.043 C 
BRANCH  38  40
ATOM     40  C   LIG A   1      -5.509   6.125 131.015  0.00  0.00    -0.005 C 
ATOM     41  C   LIG A   1      -6.659   6.811 131.123  0.00  0.00    +0.008 C 
ENDBRANCH  38  40
ENDBRANCH  36  37
ENDBRANCH  14  36
TORSDOF 15
ENDMDL
MODEL 7
REMARK VINA RESULT:      -7.1      2.638      5.236
REMARK  Name = NuBBE_228
REMARK  22 active torsions:
REMARK  status: ('A' for Active; 'I' for Inactive)
REMARK    1  A    between atoms: C_1  and  C_2
REMARK    2  A    between atoms: C_4  and  O_6
REMARK    3  A    between atoms: O_6  and  C_7
REMARK    4  A    between atoms: C_7  and  C_8
REMARK    5  A    between atoms: C_8  and  C_9
REMARK    6  A    between atoms: C_9  and  C_10
REMARK    7  A    between atoms: C_12  and  O_14
REMARK    8  A    between atoms: C_17  and  O_19
REMARK    9  A    between atoms: O_19  and  C_20
REMARK   10  A    between atoms: C_20  and  C_21
REMARK   11  A    between atoms: C_21  and  C_22
REMARK   12  A    between atoms: C_22  and  C_23
REMARK   13  A    between atoms: C_26  and  O_28
REMARK   14  A    between atoms: O_28  and  C_29
REMARK   15  A    between atoms: C_29  and  C_30
REMARK   16  A    between atoms: C_33  and  O_35
REMARK   17  A    between atoms: O_35  and  C_36
REMARK   18  A    between atoms: C_40  and  C_41
REMARK   19  A    between atoms: C_40  and  C_42
REMARK   20  A    between atoms: C_42  and  C_43
REMARK   21  A    between atoms: C_44  and  C_45
REMARK   22  A    between atoms: C_44  and  C_47
REMARK                            x       y       z     vdW  Elec       q    Type
REMARK                         _______ _______ _______ _____ _____    ______ ____
ROOT
ATOM      1  C   LIG A   1      -6.346   2.247 125.064  0.00  0.00    +0.012 C 
ATOM      2  C   LIG A   1      -6.312   1.991 126.582  0.00  0.00    +0.036 C 
ATOM      3  C   LIG A   1      -4.889   1.837 127.142  0.00  0.00    +0.209 C 
ATOM      4  C   LIG A   1      -4.836   1.647 128.685  0.00  0.00    +0.172 C 
ATOM      5  C   LIG A   1      -6.190   1.702 129.500  0.00  0.00    +0.093 C 
ATOM      6  C   LIG A   1      -6.249   3.136 130.003  0.00  0.00    +0.011 C 
ATOM      7  C   LIG A   1      -5.336   3.255 131.203  0.00  0.00    +0.343 C 
ATOM      8  O   LIG A   1      -5.152   1.910 131.665  0.00  0.00    -0.297 OA
ATOM      9  C   LIG A   1      -6.012   1.026 130.907  0.00  0.00    +0.327 C 
ATOM     10  C   LIG A   1      -7.104   4.074 129.567  0.00  0.00    +0.010 C 
ATOM     11  C   LIG A   1      -8.326   3.725 128.795  0.00  0.00    +0.141 C 
ATOM     12  C   LIG A   1      -8.658   2.231 128.956  0.00  0.00    +0.041 C 
ATOM     13  C   LIG A   1      -7.479   1.234 128.691  0.00  0.00    +0.017 C 
ATOM     14  C   LIG A   1      -7.274   0.902 127.135  0.00  0.00    -0.019 C 
ATOM     15  C   LIG A   1      -8.636   0.960 126.385  0.00  0.00    +0.012 C 
ENDROOT
BRANCH   4  16
ATOM     16  O   LIG A   1      -4.089   0.467 128.997  0.00  0.00    -0.387 OA
ATOM     17  H   LIG A   1      -4.500  -0.270 128.501  0.00  0.00    +0.210 HD
ENDBRANCH   4  16
BRANCH  11  18
ATOM     18  O   LIG A   1      -9.409   4.568 129.212  0.00  0.00    -0.376 OA
ATOM     19  C   LIG A   1     -10.073   4.192 130.412  0.00  0.00    +0.194 C 
ENDBRANCH  11  18
BRANCH   3  20
ATOM     20  O   LIG A   1      -4.218   3.097 126.873  0.00  0.00    -0.458 OA
BRANCH  20  21
ATOM     21  C   LIG A   1      -2.861   3.172 127.038  0.00  0.00    +0.307 C 
ATOM     22  O   LIG A   1      -2.046   2.531 126.431  0.00  0.00    -0.251 OA
BRANCH  21  23
ATOM     23  C   LIG A   1      -2.536   4.334 127.966  0.00  0.00    +0.120 C 
BRANCH  23  24
ATOM     24  C   LIG A   1      -3.661   5.363 128.052  0.00  0.00    +0.008 C 
ATOM     25  C   LIG A   1      -3.142   6.788 128.048  0.00  0.00    +0.004 C 
ENDBRANCH  23  24
ENDBRANCH  21  23
ENDBRANCH  20  21
ENDBRANCH   3  20
BRANCH   7  26
ATOM     26  O   LIG A   1      -5.942   4.096 132.187  0.00  0.00    -0.431 OA
BRANCH  26  27
ATOM     27  C   LIG A   1      -5.055   4.887 132.824  0.00  0.00    +0.309 C 
ATOM     28  O   LIG A   1      -4.916   5.047 134.041  0.00  0.00    -0.251 OA
BRANCH  27  29
ATOM     29  C   LIG A   1      -4.149   5.511 131.745  0.00  0.00    +0.120 C 
BRANCH  29  30
ATOM     30  C   LIG A   1      -4.439   6.981 131.531  0.00  0.00    +0.008 C 
ATOM     31  C   LIG A   1      -3.189   7.830 131.693  0.00  0.00    +0.004 C 
ENDBRANCH  29  30
ENDBRANCH  27  29
ENDBRANCH  26  27
ENDBRANCH   7  26
BRANCH   9  32
ATOM     32  O   LIG A   1      -7.224   0.818 131.655  0.00  0.00    -0.434 OA
BRANCH  32  33
ATOM     33  C   LIG A   1      -7.172  -0.318 132.424  0.00  0.00    +0.306 C 
ATOM     34  C   LIG A   1      -7.291  -1.557 131.584  0.00  0.00    +0.136 C 
ATOM     35  O   LIG A   1      -7.050  -0.354 133.640  0.00  0.00    -0.251 OA
ENDBRANCH  32  33
ENDBRANCH   9  32
BRANCH  14  36
ATOM     36  C   LIG A   1      -6.740  -0.592 126.982  0.00  0.00    +0.034 C 
BRANCH  36  37
ATOM     37  C   LIG A   1      -7.393  -1.640 127.868  0.00  0.00    -0.023 C 
ATOM     38  C   LIG A   1      -8.256  -2.643 127.584  0.00  0.00    -0.055 C 
ATOM     39  C   LIG A   1      -8.649  -3.595 128.698  0.00  0.00    +0.043 C 
BRANCH  38  40
ATOM     40  C   LIG A   1      -8.873  -2.856 126.280  0.00  0.00    -0.005 C 
ATOM     41  C   LIG A   1      -8.403  -3.658 125.311  0.00  0.00    +0.008 C 
ENDBRANCH  38  40
ENDBRANCH  36  37
ENDBRANCH  14  36
TORSDOF 15
ENDMDL
MODEL 8
REMARK VINA RESULT:      -7.1      3.045      8.161
REMARK  Name = NuBBE_228
REMARK  22 active torsions:
REMARK  status: ('A' for Active; 'I' for Inactive)
REMARK    1  A    between atoms: C_1  and  C_2
REMARK    2  A    between atoms: C_4  and  O_6
REMARK    3  A    between atoms: O_6  and  C_7
REMARK    4  A    between atoms: C_7  and  C_8
REMARK    5  A    between atoms: C_8  and  C_9
REMARK    6  A    between atoms: C_9  and  C_10
REMARK    7  A    between atoms: C_12  and  O_14
REMARK    8  A    between atoms: C_17  and  O_19
REMARK    9  A    between atoms: O_19  and  C_20
REMARK   10  A    between atoms: C_20  and  C_21
REMARK   11  A    between atoms: C_21  and  C_22
REMARK   12  A    between atoms: C_22  and  C_23
REMARK   13  A    between atoms: C_26  and  O_28
REMARK   14  A    between atoms: O_28  and  C_29
REMARK   15  A    between atoms: C_29  and  C_30
REMARK   16  A    between atoms: C_33  and  O_35
REMARK   17  A    between atoms: O_35  and  C_36
REMARK   18  A    between atoms: C_40  and  C_41
REMARK   19  A    between atoms: C_40  and  C_42
REMARK   20  A    between atoms: C_42  and  C_43
REMARK   21  A    between atoms: C_44  and  C_45
REMARK   22  A    between atoms: C_44  and  C_47
REMARK                            x       y       z     vdW  Elec       q    Type
REMARK                         _______ _______ _______ _____ _____    ______ ____
ROOT
ATOM      1  C   LIG A   1      -4.550   3.433 133.230  0.00  0.00    +0.012 C 
ATOM      2  C   LIG A   1      -5.695   3.778 132.260  0.00  0.00    +0.036 C 
ATOM      3  C   LIG A   1      -5.314   4.849 131.226  0.00  0.00    +0.209 C 
ATOM      4  C   LIG A   1      -6.439   5.157 130.196  0.00  0.00    +0.172 C 
ATOM      5  C   LIG A   1      -7.780   4.322 130.268  0.00  0.00    +0.093 C 
ATOM      6  C   LIG A   1      -7.577   3.228 129.232  0.00  0.00    +0.011 C 
ATOM      7  C   LIG A   1      -7.830   3.818 127.863  0.00  0.00    +0.343 C 
ATOM      8  O   LIG A   1      -8.597   5.005 128.106  0.00  0.00    -0.297 OA
ATOM      9  C   LIG A   1      -8.935   5.071 129.512  0.00  0.00    +0.327 C 
ATOM     10  C   LIG A   1      -7.388   1.927 129.506  0.00  0.00    +0.010 C 
ATOM     11  C   LIG A   1      -7.709   1.352 130.840  0.00  0.00    +0.141 C 
ATOM     12  C   LIG A   1      -8.629   2.299 131.630  0.00  0.00    +0.041 C 
ATOM     13  C   LIG A   1      -8.163   3.792 131.719  0.00  0.00    +0.017 C 
ATOM     14  C   LIG A   1      -7.091   4.046 132.887  0.00  0.00    -0.019 C 
ATOM     15  C   LIG A   1      -7.343   3.072 134.073  0.00  0.00    +0.012 C 
ENDROOT
BRANCH   4  16
ATOM     16  O   LIG A   1      -6.703   6.564 130.183  0.00  0.00    -0.387 OA
ATOM     17  H   LIG A   1      -7.623   6.685 130.494  0.00  0.00    +0.210 HD
ENDBRANCH   4  16
BRANCH  11  18
ATOM     18  O   LIG A   1      -8.289   0.052 130.669  0.00  0.00    -0.376 OA
ATOM     19  C   LIG A   1      -7.438  -1.057 130.932  0.00  0.00    +0.194 C 
ENDBRANCH  11  18
BRANCH   3  20
ATOM     20  O   LIG A   1      -4.216   4.288 130.458  0.00  0.00    -0.458 OA
BRANCH  20  21
ATOM     21  C   LIG A   1      -3.104   5.054 130.238  0.00  0.00    +0.307 C 
ATOM     22  O   LIG A   1      -2.267   5.323 131.058  0.00  0.00    -0.251 OA
BRANCH  21  23
ATOM     23  C   LIG A   1      -2.987   5.346 128.749  0.00  0.00    +0.120 C 
BRANCH  23  24
ATOM     24  C   LIG A   1      -3.420   4.172 127.875  0.00  0.00    +0.008 C 
ATOM     25  C   LIG A   1      -2.238   3.411 127.303  0.00  0.00    +0.004 C 
ENDBRANCH  23  24
ENDBRANCH  21  23
ENDBRANCH  20  21
ENDBRANCH   3  20
BRANCH   7  26
ATOM     26  O   LIG A   1      -8.527   2.870 127.052  0.00  0.00    -0.431 OA
BRANCH  26  27
ATOM     27  C   LIG A   1      -8.277   3.018 125.735  0.00  0.00    +0.309 C 
ATOM     28  O   LIG A   1      -8.644   3.931 124.989  0.00  0.00    -0.251 OA
BRANCH  27  29
ATOM     29  C   LIG A   1      -7.348   1.860 125.319  0.00  0.00    +0.120 C 
BRANCH  29  30
ATOM     30  C   LIG A   1      -5.885   2.235 125.414  0.00  0.00    +0.008 C 
ATOM     31  C   LIG A   1      -5.102   1.236 126.252  0.00  0.00    +0.004 C 
ENDBRANCH  29  30
ENDBRANCH  27  29
ENDBRANCH  26  27
ENDBRANCH   7  26
BRANCH   9  32
ATOM     32  O   LIG A   1     -10.253   4.522 129.690  0.00  0.00    -0.434 OA
BRANCH  32  33
ATOM     33  C   LIG A   1     -11.186   5.490 129.972  0.00  0.00    +0.306 C 
ATOM     34  C   LIG A   1     -10.885   6.183 131.269  0.00  0.00    +0.136 C 
ATOM     35  O   LIG A   1     -12.154   5.773 129.281  0.00  0.00    -0.251 OA
ENDBRANCH  32  33
ENDBRANCH   9  32
BRANCH  14  36
ATOM     36  C   LIG A   1      -7.286   5.518 133.466  0.00  0.00    +0.034 C 
BRANCH  36  37
ATOM     37  C   LIG A   1      -7.455   5.639 134.972  0.00  0.00    -0.023 C 
ATOM     38  C   LIG A   1      -6.602   6.048 135.940  0.00  0.00    -0.055 C 
ATOM     39  C   LIG A   1      -7.119   6.150 137.362  0.00  0.00    +0.043 C 
BRANCH  38  40
ATOM     40  C   LIG A   1      -5.196   6.366 135.721  0.00  0.00    -0.005 C 
ATOM     41  C   LIG A   1      -4.150   5.675 136.202  0.00  0.00    +0.008 C 
ENDBRANCH  38  40
ENDBRANCH  36  37
ENDBRANCH  14  36
TORSDOF 15
ENDMDL
MODEL 9
REMARK VINA RESULT:      -7.0      2.035      6.787
REMARK  Name = NuBBE_228
REMARK  22 active torsions:
REMARK  status: ('A' for Active; 'I' for Inactive)
REMARK    1  A    between atoms: C_1  and  C_2
REMARK    2  A    between atoms: C_4  and  O_6
REMARK    3  A    between atoms: O_6  and  C_7
REMARK    4  A    between atoms: C_7  and  C_8
REMARK    5  A    between atoms: C_8  and  C_9
REMARK    6  A    between atoms: C_9  and  C_10
REMARK    7  A    between atoms: C_12  and  O_14
REMARK    8  A    between atoms: C_17  and  O_19
REMARK    9  A    between atoms: O_19  and  C_20
REMARK   10  A    between atoms: C_20  and  C_21
REMARK   11  A    between atoms: C_21  and  C_22
REMARK   12  A    between atoms: C_22  and  C_23
REMARK   13  A    between atoms: C_26  and  O_28
REMARK   14  A    between atoms: O_28  and  C_29
REMARK   15  A    between atoms: C_29  and  C_30
REMARK   16  A    between atoms: C_33  and  O_35
REMARK   17  A    between atoms: O_35  and  C_36
REMARK   18  A    between atoms: C_40  and  C_41
REMARK   19  A    between atoms: C_40  and  C_42
REMARK   20  A    between atoms: C_42  and  C_43
REMARK   21  A    between atoms: C_44  and  C_45
REMARK   22  A    between atoms: C_44  and  C_47
REMARK                            x       y       z     vdW  Elec       q    Type
REMARK                         _______ _______ _______ _____ _____    ______ ____
ROOT
ATOM      1  C   LIG A   1      -2.995   4.843 128.303  0.00  0.00    +0.012 C 
ATOM      2  C   LIG A   1      -4.384   4.202 128.483  0.00  0.00    +0.036 C 
ATOM      3  C   LIG A   1      -5.406   4.657 127.429  0.00  0.00    +0.209 C 
ATOM      4  C   LIG A   1      -6.793   3.965 127.558  0.00  0.00    +0.172 C 
ATOM      5  C   LIG A   1      -6.984   2.855 128.668  0.00  0.00    +0.093 C 
ATOM      6  C   LIG A   1      -6.765   1.552 127.914  0.00  0.00    +0.011 C 
ATOM      7  C   LIG A   1      -8.028   1.230 127.147  0.00  0.00    +0.343 C 
ATOM      8  O   LIG A   1      -9.057   1.997 127.786  0.00  0.00    -0.297 OA
ATOM      9  C   LIG A   1      -8.511   2.634 128.966  0.00  0.00    +0.327 C 
ATOM     10  C   LIG A   1      -5.703   0.744 128.058  0.00  0.00    +0.010 C 
ATOM     11  C   LIG A   1      -4.789   0.849 129.226  0.00  0.00    +0.141 C 
ATOM     12  C   LIG A   1      -5.454   1.648 130.361  0.00  0.00    +0.041 C 
ATOM     13  C   LIG A   1      -6.068   3.031 129.958  0.00  0.00    +0.017 C 
ATOM     14  C   LIG A   1      -4.983   4.213 129.917  0.00  0.00    -0.019 C 
ATOM     15  C   LIG A   1      -3.865   3.957 130.968  0.00  0.00    +0.012 C 
ENDROOT
BRANCH   4  16
ATOM     16  O   LIG A   1      -7.819   4.960 127.636  0.00  0.00    -0.387 OA
ATOM     17  H   LIG A   1      -8.339   4.771 128.443  0.00  0.00    +0.210 HD
ENDBRANCH   4  16
BRANCH  11  18
ATOM     18  O   LIG A   1      -4.402  -0.466 129.646  0.00  0.00    -0.376 OA
ATOM     19  C   LIG A   1      -4.046  -0.611 131.015  0.00  0.00    +0.194 C 
ENDBRANCH  11  18
BRANCH   3  20
ATOM     20  O   LIG A   1      -4.869   4.236 126.147  0.00  0.00    -0.458 OA
BRANCH  20  21
ATOM     21  C   LIG A   1      -5.653   4.352 125.031  0.00  0.00    +0.307 C 
ATOM     22  O   LIG A   1      -5.929   5.382 124.475  0.00  0.00    -0.251 OA
BRANCH  21  23
ATOM     23  C   LIG A   1      -5.956   2.963 124.489  0.00  0.00    +0.120 C 
BRANCH  23  24
ATOM     24  C   LIG A   1      -6.986   2.974 123.362  0.00  0.00    +0.008 C 
ATOM     25  C   LIG A   1      -8.410   2.900 123.881  0.00  0.00    +0.004 C 
ENDBRANCH  23  24
ENDBRANCH  21  23
ENDBRANCH  20  21
ENDBRANCH   3  20
BRANCH   7  26
ATOM     26  O   LIG A   1      -8.278  -0.176 127.201  0.00  0.00    -0.431 OA
BRANCH  26  27
ATOM     27  C   LIG A   1      -8.623  -0.697 126.005  0.00  0.00    +0.309 C 
ATOM     28  O   LIG A   1      -9.719  -1.149 125.660  0.00  0.00    -0.251 OA
BRANCH  27  29
ATOM     29  C   LIG A   1      -7.401  -0.547 125.078  0.00  0.00    +0.120 C 
BRANCH  29  30
ATOM     30  C   LIG A   1      -7.752  -0.770 123.623  0.00  0.00    +0.008 C 
ATOM     31  C   LIG A   1      -6.596  -1.392 122.855  0.00  0.00    +0.004 C 
ENDBRANCH  29  30
ENDBRANCH  27  29
ENDBRANCH  26  27
ENDBRANCH   7  26
BRANCH   9  32
ATOM     32  O   LIG A   1      -8.808   1.809 130.107  0.00  0.00    -0.434 OA
BRANCH  32  33
ATOM     33  C   LIG A   1      -9.475   2.500 131.089  0.00  0.00    +0.306 C 
ATOM     34  C   LIG A   1      -9.017   2.090 132.458  0.00  0.00    +0.136 C 
ATOM     35  O   LIG A   1     -10.341   3.344 130.907  0.00  0.00    -0.251 OA
ENDBRANCH  32  33
ENDBRANCH   9  32
BRANCH  14  36
ATOM     36  C   LIG A   1      -5.684   5.584 130.331  0.00  0.00    +0.034 C 
BRANCH  36  37
ATOM     37  C   LIG A   1      -6.621   5.533 131.526  0.00  0.00    -0.023 C 
ATOM     38  C   LIG A   1      -7.835   6.093 131.737  0.00  0.00    -0.055 C 
ATOM     39  C   LIG A   1      -8.569   5.761 133.024  0.00  0.00    +0.043 C 
BRANCH  38  40
ATOM     40  C   LIG A   1      -8.482   7.030 130.827  0.00  0.00    -0.005 C 
ATOM     41  C   LIG A   1      -9.716   6.901 130.313  0.00  0.00    +0.008 C 
ENDBRANCH  38  40
ENDBRANCH  36  37
ENDBRANCH  14  36
TORSDOF 15
ENDMDL
