MODEL 1
REMARK VINA RESULT:      -9.3      0.000      0.000
REMARK  Name = NuBBE_1459
REMARK  7 active torsions:
REMARK  status: ('A' for Active; 'I' for Inactive)
REMARK    1  A    between atoms: C_10  and  C_11
REMARK    2  A    between atoms: C_10  and  C_13
REMARK    3  A    between atoms: C_20  and  O_21
REMARK    4  A    between atoms: O_21  and  C_22
REMARK    5  A    between atoms: C_23  and  O_29
REMARK    6  A    between atoms: C_27  and  O_28
REMARK    7  A    between atoms: O_29  and  C_30
REMARK                            x       y       z     vdW  Elec       q    Type
REMARK                         _______ _______ _______ _____ _____    ______ ____
ROOT
ATOM      1  O   LIG A   1      -8.080   5.225 133.868  0.00  0.00    -0.286 OA
ATOM      2  C   LIG A   1      -7.970   5.824 132.806  0.00  0.00    +0.201 A 
ATOM      3  C   LIG A   1      -9.178   6.180 132.043  0.00  0.00    +0.065 A 
ATOM      4  C   LIG A   1     -10.447   5.942 132.581  0.00  0.00    +0.019 A 
ATOM      5  C   LIG A   1     -11.582   6.344 131.878  0.00  0.00    +0.047 A 
ATOM      6  C   LIG A   1     -11.445   6.989 130.648  0.00  0.00    +0.132 A 
ATOM      7  C   LIG A   1     -10.180   7.196 130.084  0.00  0.00    +0.059 A 
ATOM      8  C   LIG A   1     -10.094   7.831 128.771  0.00  0.00    +0.015 C 
ATOM      9  C   LIG A   1     -11.201   8.394 128.275  0.00  0.00    +0.020 C 
ATOM     10  C   LIG A   1     -12.522   8.378 129.010  0.00  0.00    +0.123 C 
ATOM     11  C   LIG A   1     -13.651   8.062 128.023  0.00  0.00    +0.060 C 
ATOM     12  O   LIG A   1     -12.611   7.373 130.043  0.00  0.00    -0.481 OA
ATOM     13  C   LIG A   1     -12.776   9.745 129.659  0.00  0.00    +0.060 C 
ATOM     14  C   LIG A   1      -9.041   6.786 130.797  0.00  0.00    +0.150 A 
ATOM     15  O   LIG A   1      -7.808   7.010 130.239  0.00  0.00    -0.452 OA
ATOM     16  C   LIG A   1      -6.677   6.808 131.011  0.00  0.00    +0.185 A 
ATOM     17  C   LIG A   1      -6.665   6.260 132.239  0.00  0.00    +0.077 A 
ATOM     18  C   LIG A   1      -5.361   6.180 132.925  0.00  0.00    +0.035 A 
ATOM     19  C   LIG A   1      -5.146   5.447 134.102  0.00  0.00    +0.061 A 
ATOM     20  C   LIG A   1      -3.913   5.488 134.771  0.00  0.00    +0.162 A 
ATOM     21  C   LIG A   1      -2.860   6.255 134.250  0.00  0.00    +0.165 A 
ATOM     22  C   LIG A   1      -3.047   6.952 133.058  0.00  0.00    +0.095 A 
ATOM     23  C   LIG A   1      -4.282   6.907 132.404  0.00  0.00    +0.136 A 
ATOM     24  O   LIG A   1      -4.360   7.651 131.258  0.00  0.00    -0.456 OA
ATOM     25  C   LIG A   1      -5.413   7.302 130.360  0.00  0.00    +0.373 C 
ENDROOT
BRANCH  20  26
ATOM     26  O   LIG A   1      -3.656   4.796 135.929  0.00  0.00    -0.491 OA
ATOM     27  C   LIG A   1      -3.970   3.408 135.908  0.00  0.00    +0.277 C 
ENDBRANCH  20  26
BRANCH  25  28
ATOM     28  O   LIG A   1      -4.952   6.356 129.403  0.00  0.00    -0.352 OA
ATOM     29  H   LIG A   1      -5.424   6.551 128.577  0.00  0.00    +0.214 HD
ENDBRANCH  25  28
BRANCH  21  30
ATOM     30  O   LIG A   1      -1.679   6.246 134.948  0.00  0.00    -0.491 OA
ATOM     31  C   LIG A   1      -0.627   7.026 134.390  0.00  0.00    +0.277 C 
ENDBRANCH  21  30
TORSDOF 3
ENDMDL
MODEL 2
REMARK VINA RESULT:      -8.4      6.855      8.616
REMARK  Name = NuBBE_1459
REMARK  7 active torsions:
REMARK  status: ('A' for Active; 'I' for Inactive)
REMARK    1  A    between atoms: C_10  and  C_11
REMARK    2  A    between atoms: C_10  and  C_13
REMARK    3  A    between atoms: C_20  and  O_21
REMARK    4  A    between atoms: O_21  and  C_22
REMARK    5  A    between atoms: C_23  and  O_29
REMARK    6  A    between atoms: C_27  and  O_28
REMARK    7  A    between atoms: O_29  and  C_30
REMARK                            x       y       z     vdW  Elec       q    Type
REMARK                         _______ _______ _______ _____ _____    ______ ____
ROOT
ATOM      1  O   LIG A   1      -8.029   0.501 130.758  0.00  0.00    -0.286 OA
ATOM      2  C   LIG A   1      -7.795   0.898 129.624  0.00  0.00    +0.201 A 
ATOM      3  C   LIG A   1      -7.398  -0.066 128.583  0.00  0.00    +0.065 A 
ATOM      4  C   LIG A   1      -7.403  -1.438 128.854  0.00  0.00    +0.019 A 
ATOM      5  C   LIG A   1      -7.090  -2.343 127.841  0.00  0.00    +0.047 A 
ATOM      6  C   LIG A   1      -6.783  -1.876 126.562  0.00  0.00    +0.132 A 
ATOM      7  C   LIG A   1      -6.738  -0.502 126.292  0.00  0.00    +0.059 A 
ATOM      8  C   LIG A   1      -6.363  -0.064 124.950  0.00  0.00    +0.015 C 
ATOM      9  C   LIG A   1      -6.309  -0.987 123.983  0.00  0.00    +0.020 C 
ATOM     10  C   LIG A   1      -6.601  -2.449 124.236  0.00  0.00    +0.123 C 
ATOM     11  C   LIG A   1      -5.569  -3.310 123.500  0.00  0.00    +0.060 C 
ATOM     12  O   LIG A   1      -6.517  -2.836 125.625  0.00  0.00    -0.481 OA
ATOM     13  C   LIG A   1      -8.009  -2.796 123.734  0.00  0.00    +0.060 C 
ATOM     14  C   LIG A   1      -7.052   0.404 127.319  0.00  0.00    +0.150 A 
ATOM     15  O   LIG A   1      -7.020   1.746 127.035  0.00  0.00    -0.452 OA
ATOM     16  C   LIG A   1      -7.526   2.639 127.963  0.00  0.00    +0.185 A 
ATOM     17  C   LIG A   1      -7.924   2.321 129.207  0.00  0.00    +0.077 A 
ATOM     18  C   LIG A   1      -8.488   3.409 130.030  0.00  0.00    +0.035 A 
ATOM     19  C   LIG A   1      -8.741   3.291 131.405  0.00  0.00    +0.061 A 
ATOM     20  C   LIG A   1      -9.376   4.319 132.120  0.00  0.00    +0.162 A 
ATOM     21  C   LIG A   1      -9.746   5.502 131.463  0.00  0.00    +0.165 A 
ATOM     22  C   LIG A   1      -9.460   5.648 130.107  0.00  0.00    +0.095 A 
ATOM     23  C   LIG A   1      -8.833   4.614 129.405  0.00  0.00    +0.136 A 
ATOM     24  O   LIG A   1      -8.627   4.857 128.074  0.00  0.00    -0.456 OA
ATOM     25  C   LIG A   1      -7.638   4.046 127.439  0.00  0.00    +0.373 C 
ENDROOT
BRANCH  20  26
ATOM     26  O   LIG A   1      -9.652   4.249 133.463  0.00  0.00    -0.491 OA
ATOM     27  C   LIG A   1      -8.525   4.155 134.328  0.00  0.00    +0.277 C 
ENDBRANCH  20  26
BRANCH  25  28
ATOM     28  O   LIG A   1      -6.369   4.689 127.485  0.00  0.00    -0.352 OA
ATOM     29  H   LIG A   1      -6.369   5.232 128.290  0.00  0.00    +0.214 HD
ENDBRANCH  25  28
BRANCH  21  30
ATOM     30  O   LIG A   1     -10.355   6.470 132.219  0.00  0.00    -0.491 OA
ATOM     31  C   LIG A   1     -11.727   6.710 131.927  0.00  0.00    +0.277 C 
ENDBRANCH  21  30
TORSDOF 3
ENDMDL
MODEL 3
REMARK VINA RESULT:      -8.2      6.491      9.669
REMARK  Name = NuBBE_1459
REMARK  7 active torsions:
REMARK  status: ('A' for Active; 'I' for Inactive)
REMARK    1  A    between atoms: C_10  and  C_11
REMARK    2  A    between atoms: C_10  and  C_13
REMARK    3  A    between atoms: C_20  and  O_21
REMARK    4  A    between atoms: O_21  and  C_22
REMARK    5  A    between atoms: C_23  and  O_29
REMARK    6  A    between atoms: C_27  and  O_28
REMARK    7  A    between atoms: O_29  and  C_30
REMARK                            x       y       z     vdW  Elec       q    Type
REMARK                         _______ _______ _______ _____ _____    ______ ____
ROOT
ATOM      1  O   LIG A   1      -5.042   4.305 125.981  0.00  0.00    -0.286 OA
ATOM      2  C   LIG A   1      -6.126   3.838 126.307  0.00  0.00    +0.201 A 
ATOM      3  C   LIG A   1      -6.523   3.842 127.725  0.00  0.00    +0.065 A 
ATOM      4  C   LIG A   1      -5.724   4.480 128.679  0.00  0.00    +0.019 A 
ATOM      5  C   LIG A   1      -6.144   4.534 130.007  0.00  0.00    +0.047 A 
ATOM      6  C   LIG A   1      -7.362   3.962 130.374  0.00  0.00    +0.132 A 
ATOM      7  C   LIG A   1      -8.150   3.287 129.433  0.00  0.00    +0.059 A 
ATOM      8  C   LIG A   1      -9.393   2.662 129.879  0.00  0.00    +0.015 C 
ATOM      9  C   LIG A   1      -9.838   2.958 131.105  0.00  0.00    +0.020 C 
ATOM     10  C   LIG A   1      -9.097   3.891 132.036  0.00  0.00    +0.123 C 
ATOM     11  C   LIG A   1      -9.096   3.304 133.452  0.00  0.00    +0.060 C 
ATOM     12  O   LIG A   1      -7.708   4.087 131.693  0.00  0.00    -0.481 OA
ATOM     13  C   LIG A   1      -9.778   5.265 132.052  0.00  0.00    +0.060 C 
ATOM     14  C   LIG A   1      -7.719   3.234 128.097  0.00  0.00    +0.150 A 
ATOM     15  O   LIG A   1      -8.510   2.584 127.183  0.00  0.00    -0.452 OA
ATOM     16  C   LIG A   1      -8.211   2.702 125.836  0.00  0.00    +0.185 A 
ATOM     17  C   LIG A   1      -7.109   3.287 125.335  0.00  0.00    +0.077 A 
ATOM     18  C   LIG A   1      -6.998   3.361 123.866  0.00  0.00    +0.035 A 
ATOM     19  C   LIG A   1      -5.825   3.736 123.193  0.00  0.00    +0.061 A 
ATOM     20  C   LIG A   1      -5.803   3.893 121.798  0.00  0.00    +0.162 A 
ATOM     21  C   LIG A   1      -6.963   3.647 121.049  0.00  0.00    +0.165 A 
ATOM     22  C   LIG A   1      -8.122   3.231 121.701  0.00  0.00    +0.095 A 
ATOM     23  C   LIG A   1      -8.133   3.085 123.091  0.00  0.00    +0.136 A 
ATOM     24  O   LIG A   1      -9.332   2.699 123.626  0.00  0.00    -0.456 OA
ATOM     25  C   LIG A   1      -9.276   2.135 124.937  0.00  0.00    +0.373 C 
ENDROOT
BRANCH  20  26
ATOM     26  O   LIG A   1      -4.684   4.265 121.096  0.00  0.00    -0.491 OA
ATOM     27  C   LIG A   1      -4.238   5.602 121.294  0.00  0.00    +0.277 C 
ENDBRANCH  20  26
BRANCH  25  28
ATOM     28  O   LIG A   1      -9.151   0.720 124.860  0.00  0.00    -0.352 OA
ATOM     29  H   LIG A   1      -9.861   0.353 125.412  0.00  0.00    +0.214 HD
ENDBRANCH  25  28
BRANCH  21  30
ATOM     30  O   LIG A   1      -6.873   3.810 119.690  0.00  0.00    -0.491 OA
ATOM     31  C   LIG A   1      -8.003   4.406 119.064  0.00  0.00    +0.277 C 
ENDBRANCH  21  30
TORSDOF 3
ENDMDL
MODEL 4
REMARK VINA RESULT:      -8.1      6.257      9.701
REMARK  Name = NuBBE_1459
REMARK  7 active torsions:
REMARK  status: ('A' for Active; 'I' for Inactive)
REMARK    1  A    between atoms: C_10  and  C_11
REMARK    2  A    between atoms: C_10  and  C_13
REMARK    3  A    between atoms: C_20  and  O_21
REMARK    4  A    between atoms: O_21  and  C_22
REMARK    5  A    between atoms: C_23  and  O_29
REMARK    6  A    between atoms: C_27  and  O_28
REMARK    7  A    between atoms: O_29  and  C_30
REMARK                            x       y       z     vdW  Elec       q    Type
REMARK                         _______ _______ _______ _____ _____    ______ ____
ROOT
ATOM      1  O   LIG A   1      -4.126   2.185 125.968  0.00  0.00    -0.286 OA
ATOM      2  C   LIG A   1      -4.826   2.663 126.852  0.00  0.00    +0.201 A 
ATOM      3  C   LIG A   1      -4.273   3.704 127.734  0.00  0.00    +0.065 A 
ATOM      4  C   LIG A   1      -3.000   4.230 127.493  0.00  0.00    +0.019 A 
ATOM      5  C   LIG A   1      -2.515   5.261 128.295  0.00  0.00    +0.047 A 
ATOM      6  C   LIG A   1      -3.305   5.769 129.327  0.00  0.00    +0.132 A 
ATOM      7  C   LIG A   1      -4.566   5.221 129.601  0.00  0.00    +0.059 A 
ATOM      8  C   LIG A   1      -5.332   5.756 130.723  0.00  0.00    +0.015 C 
ATOM      9  C   LIG A   1      -4.905   6.890 131.290  0.00  0.00    +0.020 C 
ATOM     10  C   LIG A   1      -3.663   7.615 130.824  0.00  0.00    +0.123 C 
ATOM     11  C   LIG A   1      -2.857   8.080 132.041  0.00  0.00    +0.060 C 
ATOM     12  O   LIG A   1      -2.760   6.799 130.045  0.00  0.00    -0.481 OA
ATOM     13  C   LIG A   1      -4.054   8.830 129.973  0.00  0.00    +0.060 C 
ATOM     14  C   LIG A   1      -5.046   4.181 128.789  0.00  0.00    +0.150 A 
ATOM     15  O   LIG A   1      -6.290   3.666 129.059  0.00  0.00    -0.452 OA
ATOM     16  C   LIG A   1      -6.864   2.794 128.151  0.00  0.00    +0.185 A 
ATOM     17  C   LIG A   1      -6.246   2.277 127.075  0.00  0.00    +0.077 A 
ATOM     18  C   LIG A   1      -7.048   1.406 126.194  0.00  0.00    +0.035 A 
ATOM     19  C   LIG A   1      -6.498   0.623 125.167  0.00  0.00    +0.061 A 
ATOM     20  C   LIG A   1      -7.317  -0.107 124.291  0.00  0.00    +0.162 A 
ATOM     21  C   LIG A   1      -8.710  -0.081 124.450  0.00  0.00    +0.165 A 
ATOM     22  C   LIG A   1      -9.265   0.658 125.493  0.00  0.00    +0.095 A 
ATOM     23  C   LIG A   1      -8.440   1.385 126.356  0.00  0.00    +0.136 A 
ATOM     24  O   LIG A   1      -9.094   2.095 127.325  0.00  0.00    -0.456 OA
ATOM     25  C   LIG A   1      -8.306   2.484 128.451  0.00  0.00    +0.373 C 
ENDROOT
BRANCH  20  26
ATOM     26  O   LIG A   1      -6.828  -0.881 123.267  0.00  0.00    -0.491 OA
ATOM     27  C   LIG A   1      -6.134  -2.062 123.654  0.00  0.00    +0.277 C 
ENDBRANCH  20  26
BRANCH  25  28
ATOM     28  O   LIG A   1      -8.394   1.503 129.477  0.00  0.00    -0.352 OA
ATOM     29  H   LIG A   1      -7.587   1.593 130.010  0.00  0.00    +0.214 HD
ENDBRANCH  25  28
BRANCH  21  30
ATOM     30  O   LIG A   1      -9.452  -0.822 123.566  0.00  0.00    -0.491 OA
ATOM     31  C   LIG A   1     -10.126  -0.083 122.554  0.00  0.00    +0.277 C 
ENDBRANCH  21  30
TORSDOF 3
ENDMDL
MODEL 5
REMARK VINA RESULT:      -7.8      5.316      8.868
REMARK  Name = NuBBE_1459
REMARK  7 active torsions:
REMARK  status: ('A' for Active; 'I' for Inactive)
REMARK    1  A    between atoms: C_10  and  C_11
REMARK    2  A    between atoms: C_10  and  C_13
REMARK    3  A    between atoms: C_20  and  O_21
REMARK    4  A    between atoms: O_21  and  C_22
REMARK    5  A    between atoms: C_23  and  O_29
REMARK    6  A    between atoms: C_27  and  O_28
REMARK    7  A    between atoms: O_29  and  C_30
REMARK                            x       y       z     vdW  Elec       q    Type
REMARK                         _______ _______ _______ _____ _____    ______ ____
ROOT
ATOM      1  O   LIG A   1      -1.744   4.680 132.336  0.00  0.00    -0.286 OA
ATOM      2  C   LIG A   1      -2.033   5.831 132.035  0.00  0.00    +0.201 A 
ATOM      3  C   LIG A   1      -1.451   6.950 132.795  0.00  0.00    +0.065 A 
ATOM      4  C   LIG A   1      -0.483   6.708 133.776  0.00  0.00    +0.019 A 
ATOM      5  C   LIG A   1       0.108   7.780 134.442  0.00  0.00    +0.047 A 
ATOM      6  C   LIG A   1      -0.260   9.087 134.119  0.00  0.00    +0.132 A 
ATOM      7  C   LIG A   1      -1.256   9.337 133.167  0.00  0.00    +0.059 A 
ATOM      8  C   LIG A   1      -1.640  10.721 132.901  0.00  0.00    +0.015 C 
ATOM      9  C   LIG A   1      -0.869  11.692 133.403  0.00  0.00    +0.020 C 
ATOM     10  C   LIG A   1       0.359  11.406 134.238  0.00  0.00    +0.123 C 
ATOM     11  C   LIG A   1       0.399  12.366 135.432  0.00  0.00    +0.060 C 
ATOM     12  O   LIG A   1       0.393  10.077 134.803  0.00  0.00    -0.481 OA
ATOM     13  C   LIG A   1       1.624  11.590 133.390  0.00  0.00    +0.060 C 
ATOM     14  C   LIG A   1      -1.850   8.251 132.502  0.00  0.00    +0.150 A 
ATOM     15  O   LIG A   1      -2.812   8.512 131.559  0.00  0.00    -0.452 OA
ATOM     16  C   LIG A   1      -3.254   7.479 130.750  0.00  0.00    +0.185 A 
ATOM     17  C   LIG A   1      -2.928   6.184 130.900  0.00  0.00    +0.077 A 
ATOM     18  C   LIG A   1      -3.459   5.238 129.899  0.00  0.00    +0.035 A 
ATOM     19  C   LIG A   1      -3.394   3.844 130.037  0.00  0.00    +0.061 A 
ATOM     20  C   LIG A   1      -3.819   2.989 129.008  0.00  0.00    +0.162 A 
ATOM     21  C   LIG A   1      -4.343   3.528 127.823  0.00  0.00    +0.165 A 
ATOM     22  C   LIG A   1      -4.453   4.911 127.692  0.00  0.00    +0.095 A 
ATOM     23  C   LIG A   1      -4.021   5.751 128.722  0.00  0.00    +0.136 A 
ATOM     24  O   LIG A   1      -4.151   7.091 128.473  0.00  0.00    -0.456 OA
ATOM     25  C   LIG A   1      -4.133   7.942 129.619  0.00  0.00    +0.373 C 
ENDROOT
BRANCH  20  26
ATOM     26  O   LIG A   1      -3.770   1.619 129.091  0.00  0.00    -0.491 OA
ATOM     27  C   LIG A   1      -4.475   1.035 130.180  0.00  0.00    +0.277 C 
ENDBRANCH  20  26
BRANCH  25  28
ATOM     28  O   LIG A   1      -5.458   8.166 130.088  0.00  0.00    -0.352 OA
ATOM     29  H   LIG A   1      -5.473   9.072 130.438  0.00  0.00    +0.214 HD
ENDBRANCH  25  28
BRANCH  21  30
ATOM     30  O   LIG A   1      -4.748   2.639 126.860  0.00  0.00    -0.491 OA
ATOM     31  C   LIG A   1      -5.306   3.215 125.685  0.00  0.00    +0.277 C 
ENDBRANCH  21  30
TORSDOF 3
ENDMDL
MODEL 6
REMARK VINA RESULT:      -7.7      5.804      9.225
REMARK  Name = NuBBE_1459
REMARK  7 active torsions:
REMARK  status: ('A' for Active; 'I' for Inactive)
REMARK    1  A    between atoms: C_10  and  C_11
REMARK    2  A    between atoms: C_10  and  C_13
REMARK    3  A    between atoms: C_20  and  O_21
REMARK    4  A    between atoms: O_21  and  C_22
REMARK    5  A    between atoms: C_23  and  O_29
REMARK    6  A    between atoms: C_27  and  O_28
REMARK    7  A    between atoms: O_29  and  C_30
REMARK                            x       y       z     vdW  Elec       q    Type
REMARK                         _______ _______ _______ _____ _____    ______ ____
ROOT
ATOM      1  O   LIG A   1      -7.247   1.094 129.305  0.00  0.00    -0.286 OA
ATOM      2  C   LIG A   1      -7.014   2.232 128.917  0.00  0.00    +0.201 A 
ATOM      3  C   LIG A   1      -6.194   3.129 129.748  0.00  0.00    +0.065 A 
ATOM      4  C   LIG A   1      -5.585   2.652 130.913  0.00  0.00    +0.019 A 
ATOM      5  C   LIG A   1      -4.758   3.494 131.655  0.00  0.00    +0.047 A 
ATOM      6  C   LIG A   1      -4.533   4.802 131.225  0.00  0.00    +0.132 A 
ATOM      7  C   LIG A   1      -5.170   5.301 130.081  0.00  0.00    +0.059 A 
ATOM      8  C   LIG A   1      -4.940   6.693 129.702  0.00  0.00    +0.015 C 
ATOM      9  C   LIG A   1      -3.959   7.357 130.323  0.00  0.00    +0.020 C 
ATOM     10  C   LIG A   1      -3.106   6.727 131.401  0.00  0.00    +0.123 C 
ATOM     11  C   LIG A   1      -2.915   7.725 132.549  0.00  0.00    +0.060 C 
ATOM     12  O   LIG A   1      -3.685   5.547 131.999  0.00  0.00    -0.481 OA
ATOM     13  C   LIG A   1      -1.737   6.341 130.826  0.00  0.00    +0.060 C 
ATOM     14  C   LIG A   1      -6.005   4.447 129.340  0.00  0.00    +0.150 A 
ATOM     15  O   LIG A   1      -6.608   4.945 128.212  0.00  0.00    -0.452 OA
ATOM     16  C   LIG A   1      -7.259   4.069 127.361  0.00  0.00    +0.185 A 
ATOM     17  C   LIG A   1      -7.487   2.769 127.612  0.00  0.00    +0.077 A 
ATOM     18  C   LIG A   1      -8.151   1.986 126.552  0.00  0.00    +0.035 A 
ATOM     19  C   LIG A   1      -8.651   0.689 126.741  0.00  0.00    +0.061 A 
ATOM     20  C   LIG A   1      -9.180  -0.051 125.672  0.00  0.00    +0.162 A 
ATOM     21  C   LIG A   1      -9.236   0.515 124.390  0.00  0.00    +0.165 A 
ATOM     22  C   LIG A   1      -8.782   1.819 124.198  0.00  0.00    +0.095 A 
ATOM     23  C   LIG A   1      -8.253   2.544 125.270  0.00  0.00    +0.136 A 
ATOM     24  O   LIG A   1      -7.814   3.802 124.960  0.00  0.00    -0.456 OA
ATOM     25  C   LIG A   1      -7.676   4.702 126.060  0.00  0.00    +0.373 C 
ENDROOT
BRANCH  20  26
ATOM     26  O   LIG A   1      -9.674  -1.325 125.804  0.00  0.00    -0.491 OA
ATOM     27  C   LIG A   1      -8.724  -2.333 126.131  0.00  0.00    +0.277 C 
ENDBRANCH  20  26
BRANCH  25  28
ATOM     28  O   LIG A   1      -8.875   5.448 126.240  0.00  0.00    -0.352 OA
ATOM     29  H   LIG A   1      -9.485   4.869 126.726  0.00  0.00    +0.214 HD
ENDBRANCH  25  28
BRANCH  21  30
ATOM     30  O   LIG A   1      -9.771  -0.257 123.390  0.00  0.00    -0.491 OA
ATOM     31  C   LIG A   1     -10.271   0.452 122.263  0.00  0.00    +0.277 C 
ENDBRANCH  21  30
TORSDOF 3
ENDMDL
MODEL 7
REMARK VINA RESULT:      -7.7      6.089      9.904
REMARK  Name = NuBBE_1459
REMARK  7 active torsions:
REMARK  status: ('A' for Active; 'I' for Inactive)
REMARK    1  A    between atoms: C_10  and  C_11
REMARK    2  A    between atoms: C_10  and  C_13
REMARK    3  A    between atoms: C_20  and  O_21
REMARK    4  A    between atoms: O_21  and  C_22
REMARK    5  A    between atoms: C_23  and  O_29
REMARK    6  A    between atoms: C_27  and  O_28
REMARK    7  A    between atoms: O_29  and  C_30
REMARK                            x       y       z     vdW  Elec       q    Type
REMARK                         _______ _______ _______ _____ _____    ______ ____
ROOT
ATOM      1  O   LIG A   1      -4.223   4.224 125.992  0.00  0.00    -0.286 OA
ATOM      2  C   LIG A   1      -4.201   3.798 127.140  0.00  0.00    +0.201 A 
ATOM      3  C   LIG A   1      -3.470   4.543 128.178  0.00  0.00    +0.065 A 
ATOM      4  C   LIG A   1      -2.903   5.788 127.886  0.00  0.00    +0.019 A 
ATOM      5  C   LIG A   1      -2.271   6.513 128.894  0.00  0.00    +0.047 A 
ATOM      6  C   LIG A   1      -2.216   5.998 130.190  0.00  0.00    +0.132 A 
ATOM      7  C   LIG A   1      -2.746   4.735 130.483  0.00  0.00    +0.059 A 
ATOM      8  C   LIG A   1      -2.619   4.221 131.844  0.00  0.00    +0.015 C 
ATOM      9  C   LIG A   1      -2.214   5.067 132.798  0.00  0.00    +0.020 C 
ATOM     10  C   LIG A   1      -1.873   6.512 132.513  0.00  0.00    +0.123 C 
ATOM     11  C   LIG A   1      -0.597   6.894 133.270  0.00  0.00    +0.060 C 
ATOM     12  O   LIG A   1      -1.601   6.791 131.122  0.00  0.00    -0.481 OA
ATOM     13  C   LIG A   1      -3.025   7.420 132.960  0.00  0.00    +0.060 C 
ATOM     14  C   LIG A   1      -3.379   4.009 129.461  0.00  0.00    +0.150 A 
ATOM     15  O   LIG A   1      -3.909   2.780 129.767  0.00  0.00    -0.452 OA
ATOM     16  C   LIG A   1      -4.714   2.148 128.835  0.00  0.00    +0.185 A 
ATOM     17  C   LIG A   1      -4.914   2.566 127.573  0.00  0.00    +0.077 A 
ATOM     18  C   LIG A   1      -5.855   1.783 126.748  0.00  0.00    +0.035 A 
ATOM     19  C   LIG A   1      -6.002   1.955 125.364  0.00  0.00    +0.061 A 
ATOM     20  C   LIG A   1      -6.985   1.258 124.644  0.00  0.00    +0.162 A 
ATOM     21  C   LIG A   1      -7.826   0.351 125.306  0.00  0.00    +0.165 A 
ATOM     22  C   LIG A   1      -7.659   0.139 126.674  0.00  0.00    +0.095 A 
ATOM     23  C   LIG A   1      -6.681   0.843 127.380  0.00  0.00    +0.136 A 
ATOM     24  O   LIG A   1      -6.626   0.576 128.721  0.00  0.00    -0.456 OA
ATOM     25  C   LIG A   1      -5.407   0.927 129.377  0.00  0.00    +0.373 C 
ENDROOT
BRANCH  20  26
ATOM     26  O   LIG A   1      -7.174   1.397 123.291  0.00  0.00    -0.491 OA
ATOM     27  C   LIG A   1      -7.020   2.712 122.771  0.00  0.00    +0.277 C 
ENDBRANCH  20  26
BRANCH  25  28
ATOM     28  O   LIG A   1      -4.515  -0.181 129.385  0.00  0.00    -0.352 OA
ATOM     29  H   LIG A   1      -4.456  -0.490 128.466  0.00  0.00    +0.214 HD
ENDBRANCH  25  28
BRANCH  21  30
ATOM     30  O   LIG A   1      -8.760  -0.304 124.544  0.00  0.00    -0.491 OA
ATOM     31  C   LIG A   1      -8.632  -1.720 124.494  0.00  0.00    +0.277 C 
ENDBRANCH  21  30
TORSDOF 3
ENDMDL
MODEL 8
REMARK VINA RESULT:      -7.7      6.480     10.035
REMARK  Name = NuBBE_1459
REMARK  7 active torsions:
REMARK  status: ('A' for Active; 'I' for Inactive)
REMARK    1  A    between atoms: C_10  and  C_11
REMARK    2  A    between atoms: C_10  and  C_13
REMARK    3  A    between atoms: C_20  and  O_21
REMARK    4  A    between atoms: O_21  and  C_22
REMARK    5  A    between atoms: C_23  and  O_29
REMARK    6  A    between atoms: C_27  and  O_28
REMARK    7  A    between atoms: O_29  and  C_30
REMARK                            x       y       z     vdW  Elec       q    Type
REMARK                         _______ _______ _______ _____ _____    ______ ____
ROOT
ATOM      1  O   LIG A   1      -4.551   2.950 125.722  0.00  0.00    -0.286 OA
ATOM      2  C   LIG A   1      -4.555   2.782 126.935  0.00  0.00    +0.201 A 
ATOM      3  C   LIG A   1      -3.804   3.707 127.800  0.00  0.00    +0.065 A 
ATOM      4  C   LIG A   1      -3.186   4.837 127.255  0.00  0.00    +0.019 A 
ATOM      5  C   LIG A   1      -2.534   5.740 128.093  0.00  0.00    +0.047 A 
ATOM      6  C   LIG A   1      -2.509   5.516 129.470  0.00  0.00    +0.132 A 
ATOM      7  C   LIG A   1      -3.091   4.366 130.020  0.00  0.00    +0.059 A 
ATOM      8  C   LIG A   1      -2.996   4.155 131.462  0.00  0.00    +0.015 C 
ATOM      9  C   LIG A   1      -2.566   5.172 132.217  0.00  0.00    +0.020 C 
ATOM     10  C   LIG A   1      -2.165   6.507 131.632  0.00  0.00    +0.123 C 
ATOM     11  C   LIG A   1      -0.881   6.997 132.310  0.00  0.00    +0.060 C 
ATOM     12  O   LIG A   1      -1.872   6.468 130.218  0.00  0.00    -0.481 OA
ATOM     13  C   LIG A   1      -3.284   7.533 131.854  0.00  0.00    +0.060 C 
ATOM     14  C   LIG A   1      -3.745   3.460 129.169  0.00  0.00    +0.150 A 
ATOM     15  O   LIG A   1      -4.325   2.347 129.724  0.00  0.00    -0.452 OA
ATOM     16  C   LIG A   1      -5.147   1.559 128.938  0.00  0.00    +0.185 A 
ATOM     17  C   LIG A   1      -5.320   1.700 127.612  0.00  0.00    +0.077 A 
ATOM     18  C   LIG A   1      -6.284   0.792 126.961  0.00  0.00    +0.035 A 
ATOM     19  C   LIG A   1      -6.414   0.666 125.570  0.00  0.00    +0.061 A 
ATOM     20  C   LIG A   1      -7.418  -0.134 125.001  0.00  0.00    +0.162 A 
ATOM     21  C   LIG A   1      -8.299  -0.844 125.830  0.00  0.00    +0.165 A 
ATOM     22  C   LIG A   1      -8.152  -0.761 127.213  0.00  0.00    +0.095 A 
ATOM     23  C   LIG A   1      -7.152   0.043 127.767  0.00  0.00    +0.136 A 
ATOM     24  O   LIG A   1      -7.119   0.071 129.135  0.00  0.00    -0.456 OA
ATOM     25  C   LIG A   1      -5.892   0.510 129.719  0.00  0.00    +0.373 C 
ENDROOT
BRANCH  20  26
ATOM     26  O   LIG A   1      -7.590  -0.284 123.647  0.00  0.00    -0.491 OA
ATOM     27  C   LIG A   1      -6.664  -1.143 122.992  0.00  0.00    +0.277 C 
ENDBRANCH  20  26
BRANCH  25  28
ATOM     28  O   LIG A   1      -5.044  -0.602 129.981  0.00  0.00    -0.352 OA
ATOM     29  H   LIG A   1      -4.518  -0.365 130.762  0.00  0.00    +0.214 HD
ENDBRANCH  25  28
BRANCH  21  30
ATOM     30  O   LIG A   1      -9.252  -1.613 125.212  0.00  0.00    -0.491 OA
ATOM     31  C   LIG A   1      -9.476  -2.896 125.786  0.00  0.00    +0.277 C 
ENDBRANCH  21  30
TORSDOF 3
ENDMDL
MODEL 9
REMARK VINA RESULT:      -7.6      7.759     10.621
REMARK  Name = NuBBE_1459
REMARK  7 active torsions:
REMARK  status: ('A' for Active; 'I' for Inactive)
REMARK    1  A    between atoms: C_10  and  C_11
REMARK    2  A    between atoms: C_10  and  C_13
REMARK    3  A    between atoms: C_20  and  O_21
REMARK    4  A    between atoms: O_21  and  C_22
REMARK    5  A    between atoms: C_23  and  O_29
REMARK    6  A    between atoms: C_27  and  O_28
REMARK    7  A    between atoms: O_29  and  C_30
REMARK                            x       y       z     vdW  Elec       q    Type
REMARK                         _______ _______ _______ _____ _____    ______ ____
ROOT
ATOM      1  O   LIG A   1      -8.209  -0.262 124.987  0.00  0.00    -0.286 OA
ATOM      2  C   LIG A   1      -7.684   0.130 126.021  0.00  0.00    +0.201 A 
ATOM      3  C   LIG A   1      -7.705  -0.728 127.218  0.00  0.00    +0.065 A 
ATOM      4  C   LIG A   1      -8.215  -2.028 127.145  0.00  0.00    +0.019 A 
ATOM      5  C   LIG A   1      -8.169  -2.852 128.268  0.00  0.00    +0.047 A 
ATOM      6  C   LIG A   1      -7.606  -2.380 129.454  0.00  0.00    +0.132 A 
ATOM      7  C   LIG A   1      -7.129  -1.066 129.548  0.00  0.00    +0.059 A 
ATOM      8  C   LIG A   1      -6.594  -0.604 130.827  0.00  0.00    +0.015 C 
ATOM      9  C   LIG A   1      -6.370  -1.518 131.777  0.00  0.00    +0.020 C 
ATOM     10  C   LIG A   1      -6.664  -2.988 131.580  0.00  0.00    +0.123 C 
ATOM     11  C   LIG A   1      -7.330  -3.549 132.840  0.00  0.00    +0.060 C 
ATOM     12  O   LIG A   1      -7.577  -3.267 130.496  0.00  0.00    -0.481 OA
ATOM     13  C   LIG A   1      -5.361  -3.750 131.306  0.00  0.00    +0.060 C 
ATOM     14  C   LIG A   1      -7.181  -0.240 128.413  0.00  0.00    +0.150 A 
ATOM     15  O   LIG A   1      -6.695   1.039 128.514  0.00  0.00    -0.452 OA
ATOM     16  C   LIG A   1      -6.544   1.792 127.363  0.00  0.00    +0.185 A 
ATOM     17  C   LIG A   1      -6.976   1.433 126.141  0.00  0.00    +0.077 A 
ATOM     18  C   LIG A   1      -6.671   2.350 125.026  0.00  0.00    +0.035 A 
ATOM     19  C   LIG A   1      -7.234   2.232 123.746  0.00  0.00    +0.061 A 
ATOM     20  C   LIG A   1      -6.830   3.066 122.692  0.00  0.00    +0.162 A 
ATOM     21  C   LIG A   1      -5.864   4.058 122.917  0.00  0.00    +0.165 A 
ATOM     22  C   LIG A   1      -5.330   4.215 124.194  0.00  0.00    +0.095 A 
ATOM     23  C   LIG A   1      -5.736   3.373 125.234  0.00  0.00    +0.136 A 
ATOM     24  O   LIG A   1      -5.125   3.600 126.437  0.00  0.00    -0.456 OA
ATOM     25  C   LIG A   1      -5.797   3.079 127.584  0.00  0.00    +0.373 C 
ENDROOT
BRANCH  20  26
ATOM     26  O   LIG A   1      -7.345   2.985 121.422  0.00  0.00    -0.491 OA
ATOM     27  C   LIG A   1      -8.671   3.474 121.253  0.00  0.00    +0.277 C 
ENDBRANCH  20  26
BRANCH  25  28
ATOM     28  O   LIG A   1      -6.665   4.062 128.136  0.00  0.00    -0.352 OA
ATOM     29  H   LIG A   1      -7.126   4.470 127.385  0.00  0.00    +0.214 HD
ENDBRANCH  25  28
BRANCH  21  30
ATOM     30  O   LIG A   1      -5.520   4.846 121.848  0.00  0.00    -0.491 OA
ATOM     31  C   LIG A   1      -4.124   4.978 121.603  0.00  0.00    +0.277 C 
ENDBRANCH  21  30
TORSDOF 3
ENDMDL
