MODEL 1
REMARK VINA RESULT:      -7.0      0.000      0.000
REMARK  Name = NuBBE_1111
REMARK  11 active torsions:
REMARK  status: ('A' for Active; 'I' for Inactive)
REMARK    1  A    between atoms: C_1  and  O_2
REMARK    2  A    between atoms: C_1  and  C_15
REMARK    3  A    between atoms: O_2  and  C_3
REMARK    4  A    between atoms: C_3  and  C_5
REMARK    5  A    between atoms: C_6  and  C_7
REMARK    6  A    between atoms: C_9  and  O_10
REMARK    7  A    between atoms: C_11  and  O_14
REMARK    8  A    between atoms: C_17  and  O_19
REMARK    9  A    between atoms: C_20  and  O_22
REMARK   10  A    between atoms: C_23  and  O_29
REMARK   11  A    between atoms: C_25  and  O_28
REMARK                            x       y       z     vdW  Elec       q    Type
REMARK                         _______ _______ _______ _____ _____    ______ ____
ROOT
ATOM      1  C   LIG A   1      -7.914   1.643 126.923  0.00  0.00    +0.267 C 
ENDROOT
BRANCH   1   2
ATOM      2  C   LIG A   1      -8.839   1.020 125.856  0.00  0.00    +0.190 C 
ATOM      3  C   LIG A   1      -8.141  -0.057 125.018  0.00  0.00    +0.178 C 
ATOM      4  C   LIG A   1      -9.047  -0.591 123.910  0.00  0.00    +0.179 C 
ATOM      5  C   LIG A   1      -9.572   0.575 123.069  0.00  0.00    +0.201 C 
ATOM      6  C   LIG A   1     -10.196   1.651 123.981  0.00  0.00    +0.279 C 
ATOM      7  O   LIG A   1      -9.327   2.079 125.021  0.00  0.00    -0.340 OA
BRANCH   3   8
ATOM      8  O   LIG A   1      -7.724  -1.164 125.822  0.00  0.00    -0.386 OA
ATOM      9  H   LIG A   1      -7.547  -1.905 125.198  0.00  0.00    +0.210 HD
ENDBRANCH   3   8
BRANCH   4  10
ATOM     10  O   LIG A   1      -8.264  -1.491 123.106  0.00  0.00    -0.386 OA
ATOM     11  H   LIG A   1      -8.239  -1.088 122.217  0.00  0.00    +0.210 HD
ENDBRANCH   4  10
BRANCH   6  12
ATOM     12  O   LIG A   1     -11.454   1.235 124.507  0.00  0.00    -0.365 OA
ATOM     13  H   LIG A   1     -12.162   1.565 123.933  0.00  0.00    +0.213 HD
ENDBRANCH   6  12
BRANCH   5  14
ATOM     14  O   LIG A   1     -10.525   0.115 122.100  0.00  0.00    -0.384 OA
ATOM     15  H   LIG A   1     -10.467   0.703 121.325  0.00  0.00    +0.210 HD
ENDBRANCH   5  14
ENDBRANCH   1   2
BRANCH   1  16
ATOM     16  O   LIG A   1      -7.191   2.788 126.419  0.00  0.00    -0.459 OA
BRANCH  16  17
ATOM     17  C   LIG A   1      -5.883   2.601 126.129  0.00  0.00    +0.332 C 
ATOM     18  O   LIG A   1      -5.092   1.919 126.764  0.00  0.00    -0.246 OA
BRANCH  17  19
ATOM     19  C   LIG A   1      -5.591   3.269 124.851  0.00  0.00    +0.092 C 
ATOM     20  C   LIG A   1      -6.358   3.021 123.780  0.00  0.00    +0.015 C 
BRANCH  20  21
ATOM     21  C   LIG A   1      -6.093   3.693 122.508  0.00  0.00    -0.021 A 
ATOM     22  C   LIG A   1      -5.082   4.655 122.429  0.00  0.00    +0.057 A 
ATOM     23  C   LIG A   1      -4.815   5.261 121.206  0.00  0.00    +0.159 A 
ATOM     24  C   LIG A   1      -5.553   4.914 120.075  0.00  0.00    +0.158 A 
ATOM     25  C   LIG A   1      -6.559   3.965 120.142  0.00  0.00    +0.050 A 
ATOM     26  C   LIG A   1      -6.833   3.347 121.369  0.00  0.00    +0.012 A 
BRANCH  23  27
ATOM     27  O   LIG A   1      -3.836   6.204 121.061  0.00  0.00    -0.503 OA
ATOM     28  H   LIG A   1      -3.779   6.437 120.115  0.00  0.00    +0.292 HD
ENDBRANCH  23  27
BRANCH  24  29
ATOM     29  O   LIG A   1      -5.282   5.509 118.875  0.00  0.00    -0.503 OA
ATOM     30  H   LIG A   1      -6.136   5.490 118.392  0.00  0.00    +0.292 HD
ENDBRANCH  24  29
ENDBRANCH  20  21
ENDBRANCH  17  19
ENDBRANCH  16  17
ENDBRANCH   1  16
TORSDOF 11
ENDMDL
MODEL 2
REMARK VINA RESULT:      -7.0      2.038      4.057
REMARK  Name = NuBBE_1111
REMARK  11 active torsions:
REMARK  status: ('A' for Active; 'I' for Inactive)
REMARK    1  A    between atoms: C_1  and  O_2
REMARK    2  A    between atoms: C_1  and  C_15
REMARK    3  A    between atoms: O_2  and  C_3
REMARK    4  A    between atoms: C_3  and  C_5
REMARK    5  A    between atoms: C_6  and  C_7
REMARK    6  A    between atoms: C_9  and  O_10
REMARK    7  A    between atoms: C_11  and  O_14
REMARK    8  A    between atoms: C_17  and  O_19
REMARK    9  A    between atoms: C_20  and  O_22
REMARK   10  A    between atoms: C_23  and  O_29
REMARK   11  A    between atoms: C_25  and  O_28
REMARK                            x       y       z     vdW  Elec       q    Type
REMARK                         _______ _______ _______ _____ _____    ______ ____
ROOT
ATOM      1  C   LIG A   1      -8.962  -0.709 122.887  0.00  0.00    +0.267 C 
ENDROOT
BRANCH   1   2
ATOM      2  C   LIG A   1      -8.045  -1.513 123.832  0.00  0.00    +0.190 C 
ATOM      3  C   LIG A   1      -8.726  -1.877 125.156  0.00  0.00    +0.178 C 
ATOM      4  C   LIG A   1      -7.771  -2.590 126.111  0.00  0.00    +0.179 C 
ATOM      5  C   LIG A   1      -6.508  -1.746 126.299  0.00  0.00    +0.201 C 
ATOM      6  C   LIG A   1      -5.917  -1.358 124.927  0.00  0.00    +0.279 C 
ATOM      7  O   LIG A   1      -6.861  -0.739 124.064  0.00  0.00    -0.340 OA
BRANCH   3   8
ATOM      8  O   LIG A   1      -9.862  -2.722 124.951  0.00  0.00    -0.386 OA
ATOM      9  H   LIG A   1      -9.508  -3.633 124.833  0.00  0.00    +0.210 HD
ENDBRANCH   3   8
BRANCH   4  10
ATOM     10  O   LIG A   1      -8.459  -2.768 127.360  0.00  0.00    -0.386 OA
ATOM     11  H   LIG A   1      -8.788  -3.688 127.346  0.00  0.00    +0.210 HD
ENDBRANCH   4  10
BRANCH   6  12
ATOM     12  O   LIG A   1      -5.291  -2.468 124.287  0.00  0.00    -0.365 OA
ATOM     13  H   LIG A   1      -5.887  -3.231 124.321  0.00  0.00    +0.213 HD
ENDBRANCH   6  12
BRANCH   5  14
ATOM     14  O   LIG A   1      -5.539  -2.449 127.089  0.00  0.00    -0.384 OA
ATOM     15  H   LIG A   1      -5.419  -1.955 127.920  0.00  0.00    +0.210 HD
ENDBRANCH   5  14
ENDBRANCH   1   2
BRANCH   1  16
ATOM     16  O   LIG A   1      -9.990   0.010 123.603  0.00  0.00    -0.459 OA
BRANCH  16  17
ATOM     17  C   LIG A   1      -9.701   1.280 123.971  0.00  0.00    +0.332 C 
ATOM     18  O   LIG A   1      -9.892   1.774 125.072  0.00  0.00    -0.246 OA
BRANCH  17  19
ATOM     19  C   LIG A   1      -9.009   1.940 122.853  0.00  0.00    +0.092 C 
ATOM     20  C   LIG A   1      -7.958   2.736 123.096  0.00  0.00    +0.015 C 
BRANCH  20  21
ATOM     21  C   LIG A   1      -7.248   3.382 121.993  0.00  0.00    -0.021 A 
ATOM     22  C   LIG A   1      -7.918   3.645 120.795  0.00  0.00    +0.057 A 
ATOM     23  C   LIG A   1      -7.242   4.292 119.766  0.00  0.00    +0.159 A 
ATOM     24  C   LIG A   1      -5.910   4.669 119.930  0.00  0.00    +0.158 A 
ATOM     25  C   LIG A   1      -5.234   4.411 121.110  0.00  0.00    +0.050 A 
ATOM     26  C   LIG A   1      -5.908   3.762 122.153  0.00  0.00    +0.012 A 
BRANCH  23  27
ATOM     27  O   LIG A   1      -7.843   4.584 118.573  0.00  0.00    -0.503 OA
ATOM     28  H   LIG A   1      -8.298   5.442 118.666  0.00  0.00    +0.292 HD
ENDBRANCH  23  27
BRANCH  24  29
ATOM     29  O   LIG A   1      -5.253   5.310 118.917  0.00  0.00    -0.503 OA
ATOM     30  H   LIG A   1      -5.830   6.069 118.690  0.00  0.00    +0.292 HD
ENDBRANCH  24  29
ENDBRANCH  20  21
ENDBRANCH  17  19
ENDBRANCH  16  17
ENDBRANCH   1  16
TORSDOF 11
ENDMDL
MODEL 3
REMARK VINA RESULT:      -6.9      1.572      4.399
REMARK  Name = NuBBE_1111
REMARK  11 active torsions:
REMARK  status: ('A' for Active; 'I' for Inactive)
REMARK    1  A    between atoms: C_1  and  O_2
REMARK    2  A    between atoms: C_1  and  C_15
REMARK    3  A    between atoms: O_2  and  C_3
REMARK    4  A    between atoms: C_3  and  C_5
REMARK    5  A    between atoms: C_6  and  C_7
REMARK    6  A    between atoms: C_9  and  O_10
REMARK    7  A    between atoms: C_11  and  O_14
REMARK    8  A    between atoms: C_17  and  O_19
REMARK    9  A    between atoms: C_20  and  O_22
REMARK   10  A    between atoms: C_23  and  O_29
REMARK   11  A    between atoms: C_25  and  O_28
REMARK                            x       y       z     vdW  Elec       q    Type
REMARK                         _______ _______ _______ _____ _____    ______ ____
ROOT
ATOM      1  C   LIG A   1      -8.820   1.742 125.829  0.00  0.00    +0.267 C 
ENDROOT
BRANCH   1   2
ATOM      2  C   LIG A   1      -7.624   2.615 126.263  0.00  0.00    +0.190 C 
ATOM      3  C   LIG A   1      -7.559   3.951 125.513  0.00  0.00    +0.178 C 
ATOM      4  C   LIG A   1      -6.316   4.756 125.891  0.00  0.00    +0.179 C 
ATOM      5  C   LIG A   1      -5.067   3.895 125.690  0.00  0.00    +0.201 C 
ATOM      6  C   LIG A   1      -5.231   2.541 126.411  0.00  0.00    +0.279 C 
ATOM      7  O   LIG A   1      -6.424   1.857 126.056  0.00  0.00    -0.340 OA
BRANCH   3   8
ATOM      8  O   LIG A   1      -8.708   4.760 125.776  0.00  0.00    -0.386 OA
ATOM      9  H   LIG A   1      -8.734   5.439 125.063  0.00  0.00    +0.210 HD
ENDBRANCH   3   8
BRANCH   4  10
ATOM     10  O   LIG A   1      -6.279   5.918 125.046  0.00  0.00    -0.386 OA
ATOM     11  H   LIG A   1      -5.887   5.614 124.204  0.00  0.00    +0.210 HD
ENDBRANCH   4  10
BRANCH   6  12
ATOM     12  O   LIG A   1      -5.123   2.677 127.826  0.00  0.00    -0.365 OA
ATOM     13  H   LIG A   1      -5.661   1.994 128.253  0.00  0.00    +0.213 HD
ENDBRANCH   6  12
BRANCH   5  14
ATOM     14  O   LIG A   1      -3.896   4.580 126.157  0.00  0.00    -0.384 OA
ATOM     15  H   LIG A   1      -3.824   4.426 127.116  0.00  0.00    +0.210 HD
ENDBRANCH   5  14
ENDBRANCH   1   2
BRANCH   1  16
ATOM     16  O   LIG A   1      -9.486   2.269 124.661  0.00  0.00    -0.459 OA
BRANCH  16  17
ATOM     17  C   LIG A   1      -9.295   1.602 123.499  0.00  0.00    +0.332 C 
ATOM     18  O   LIG A   1      -9.600   0.440 123.274  0.00  0.00    -0.246 OA
BRANCH  17  19
ATOM     19  C   LIG A   1      -8.758   2.545 122.506  0.00  0.00    +0.092 C 
ATOM     20  C   LIG A   1      -7.434   2.720 122.400  0.00  0.00    +0.015 C 
BRANCH  20  21
ATOM     21  C   LIG A   1      -6.885   3.640 121.403  0.00  0.00    -0.021 A 
ATOM     22  C   LIG A   1      -5.714   4.349 121.684  0.00  0.00    +0.057 A 
ATOM     23  C   LIG A   1      -5.182   5.193 120.715  0.00  0.00    +0.159 A 
ATOM     24  C   LIG A   1      -5.816   5.332 119.481  0.00  0.00    +0.158 A 
ATOM     25  C   LIG A   1      -6.979   4.638 119.193  0.00  0.00    +0.050 A 
ATOM     26  C   LIG A   1      -7.520   3.783 120.162  0.00  0.00    +0.012 A 
BRANCH  23  27
ATOM     27  O   LIG A   1      -4.037   5.909 120.925  0.00  0.00    -0.503 OA
ATOM     28  H   LIG A   1      -4.290   6.804 121.221  0.00  0.00    +0.292 HD
ENDBRANCH  23  27
BRANCH  24  29
ATOM     29  O   LIG A   1      -5.286   6.159 118.531  0.00  0.00    -0.503 OA
ATOM     30  H   LIG A   1      -5.920   6.905 118.472  0.00  0.00    +0.292 HD
ENDBRANCH  24  29
ENDBRANCH  20  21
ENDBRANCH  17  19
ENDBRANCH  16  17
ENDBRANCH   1  16
TORSDOF 11
ENDMDL
MODEL 4
REMARK VINA RESULT:      -6.7      1.580      2.671
REMARK  Name = NuBBE_1111
REMARK  11 active torsions:
REMARK  status: ('A' for Active; 'I' for Inactive)
REMARK    1  A    between atoms: C_1  and  O_2
REMARK    2  A    between atoms: C_1  and  C_15
REMARK    3  A    between atoms: O_2  and  C_3
REMARK    4  A    between atoms: C_3  and  C_5
REMARK    5  A    between atoms: C_6  and  C_7
REMARK    6  A    between atoms: C_9  and  O_10
REMARK    7  A    between atoms: C_11  and  O_14
REMARK    8  A    between atoms: C_17  and  O_19
REMARK    9  A    between atoms: C_20  and  O_22
REMARK   10  A    between atoms: C_23  and  O_29
REMARK   11  A    between atoms: C_25  and  O_28
REMARK                            x       y       z     vdW  Elec       q    Type
REMARK                         _______ _______ _______ _____ _____    ______ ____
ROOT
ATOM      1  C   LIG A   1      -6.270   0.345 125.605  0.00  0.00    +0.267 C 
ENDROOT
BRANCH   1   2
ATOM      2  C   LIG A   1      -7.565  -0.391 125.202  0.00  0.00    +0.190 C 
ATOM      3  C   LIG A   1      -7.866  -1.599 126.097  0.00  0.00    +0.178 C 
ATOM      4  C   LIG A   1      -9.100  -2.365 125.623  0.00  0.00    +0.179 C 
ATOM      5  C   LIG A   1      -8.936  -2.739 124.148  0.00  0.00    +0.201 C 
ATOM      6  C   LIG A   1      -8.566  -1.491 123.321  0.00  0.00    +0.279 C 
ATOM      7  O   LIG A   1      -7.439  -0.792 123.832  0.00  0.00    -0.340 OA
BRANCH   3   8
ATOM      8  O   LIG A   1      -8.081  -1.208 127.456  0.00  0.00    -0.386 OA
ATOM      9  H   LIG A   1      -8.788  -0.523 127.436  0.00  0.00    +0.210 HD
ENDBRANCH   3   8
BRANCH   4  10
ATOM     10  O   LIG A   1      -9.219  -3.542 126.440  0.00  0.00    -0.386 OA
ATOM     11  H   LIG A   1      -8.325  -3.698 126.801  0.00  0.00    +0.210 HD
ENDBRANCH   4  10
BRANCH   6  12
ATOM     12  O   LIG A   1      -9.678  -0.614 123.156  0.00  0.00    -0.365 OA
ATOM     13  H   LIG A   1     -10.124  -0.503 124.009  0.00  0.00    +0.213 HD
ENDBRANCH   6  12
BRANCH   5  14
ATOM     14  O   LIG A   1     -10.133  -3.347 123.642  0.00  0.00    -0.384 OA
ATOM     15  H   LIG A   1     -10.325  -4.127 124.194  0.00  0.00    +0.210 HD
ENDBRANCH   5  14
ENDBRANCH   1   2
BRANCH   1  16
ATOM     16  O   LIG A   1      -6.526   1.692 126.061  0.00  0.00    -0.459 OA
BRANCH  16  17
ATOM     17  C   LIG A   1      -7.533   2.360 125.453  0.00  0.00    +0.332 C 
ATOM     18  O   LIG A   1      -8.697   2.403 125.822  0.00  0.00    -0.246 OA
BRANCH  17  19
ATOM     19  C   LIG A   1      -6.970   3.125 124.329  0.00  0.00    +0.092 C 
ATOM     20  C   LIG A   1      -7.195   2.724 123.070  0.00  0.00    +0.015 C 
BRANCH  20  21
ATOM     21  C   LIG A   1      -6.659   3.485 121.943  0.00  0.00    -0.021 A 
ATOM     22  C   LIG A   1      -7.409   3.610 120.770  0.00  0.00    +0.057 A 
ATOM     23  C   LIG A   1      -6.905   4.367 119.718  0.00  0.00    +0.159 A 
ATOM     24  C   LIG A   1      -5.662   4.988 119.833  0.00  0.00    +0.158 A 
ATOM     25  C   LIG A   1      -4.908   4.868 120.988  0.00  0.00    +0.050 A 
ATOM     26  C   LIG A   1      -5.410   4.111 122.055  0.00  0.00    +0.012 A 
BRANCH  23  27
ATOM     27  O   LIG A   1      -7.592   4.533 118.548  0.00  0.00    -0.503 OA
ATOM     28  H   LIG A   1      -7.551   5.477 118.305  0.00  0.00    +0.292 HD
ENDBRANCH  23  27
BRANCH  24  29
ATOM     29  O   LIG A   1      -5.174   5.735 118.798  0.00  0.00    -0.503 OA
ATOM     30  H   LIG A   1      -4.201   5.626 118.853  0.00  0.00    +0.292 HD
ENDBRANCH  24  29
ENDBRANCH  20  21
ENDBRANCH  17  19
ENDBRANCH  16  17
ENDBRANCH   1  16
TORSDOF 11
ENDMDL
MODEL 5
REMARK VINA RESULT:      -6.7      1.302      2.613
REMARK  Name = NuBBE_1111
REMARK  11 active torsions:
REMARK  status: ('A' for Active; 'I' for Inactive)
REMARK    1  A    between atoms: C_1  and  O_2
REMARK    2  A    between atoms: C_1  and  C_15
REMARK    3  A    between atoms: O_2  and  C_3
REMARK    4  A    between atoms: C_3  and  C_5
REMARK    5  A    between atoms: C_6  and  C_7
REMARK    6  A    between atoms: C_9  and  O_10
REMARK    7  A    between atoms: C_11  and  O_14
REMARK    8  A    between atoms: C_17  and  O_19
REMARK    9  A    between atoms: C_20  and  O_22
REMARK   10  A    between atoms: C_23  and  O_29
REMARK   11  A    between atoms: C_25  and  O_28
REMARK                            x       y       z     vdW  Elec       q    Type
REMARK                         _______ _______ _______ _____ _____    ______ ____
ROOT
ATOM      1  C   LIG A   1      -7.801   2.284 126.230  0.00  0.00    +0.267 C 
ENDROOT
BRANCH   1   2
ATOM      2  C   LIG A   1      -7.892   1.297 125.047  0.00  0.00    +0.190 C 
ATOM      3  C   LIG A   1      -9.219   1.401 124.286  0.00  0.00    +0.178 C 
ATOM      4  C   LIG A   1      -9.325   0.352 123.180  0.00  0.00    +0.179 C 
ATOM      5  C   LIG A   1      -9.079  -1.040 123.768  0.00  0.00    +0.201 C 
ATOM      6  C   LIG A   1      -7.766  -1.052 124.578  0.00  0.00    +0.279 C 
ATOM      7  O   LIG A   1      -7.703  -0.029 125.561  0.00  0.00    -0.340 OA
BRANCH   3   8
ATOM      8  O   LIG A   1      -9.387   2.691 123.692  0.00  0.00    -0.386 OA
ATOM      9  H   LIG A   1      -9.172   3.346 124.395  0.00  0.00    +0.210 HD
ENDBRANCH   3   8
BRANCH   4  10
ATOM     10  O   LIG A   1     -10.645   0.446 122.618  0.00  0.00    -0.386 OA
ATOM     11  H   LIG A   1     -10.803  -0.414 122.183  0.00  0.00    +0.210 HD
ENDBRANCH   4  10
BRANCH   6  12
ATOM     12  O   LIG A   1      -6.620  -1.016 123.730  0.00  0.00    -0.365 OA
ATOM     13  H   LIG A   1      -6.224  -1.900 123.695  0.00  0.00    +0.213 HD
ENDBRANCH   6  12
BRANCH   5  14
ATOM     14  O   LIG A   1      -9.046  -2.031 122.732  0.00  0.00    -0.384 OA
ATOM     15  H   LIG A   1      -8.527  -1.669 121.991  0.00  0.00    +0.210 HD
ENDBRANCH   5  14
ENDBRANCH   1   2
BRANCH   1  16
ATOM     16  O   LIG A   1      -7.325   3.585 125.820  0.00  0.00    -0.459 OA
BRANCH  16  17
ATOM     17  C   LIG A   1      -6.026   3.669 125.450  0.00  0.00    +0.332 C 
ATOM     18  O   LIG A   1      -5.068   3.233 126.071  0.00  0.00    -0.246 OA
BRANCH  17  19
ATOM     19  C   LIG A   1      -5.964   4.277 124.111  0.00  0.00    +0.092 C 
ATOM     20  C   LIG A   1      -5.950   3.494 123.024  0.00  0.00    +0.015 C 
BRANCH  20  21
ATOM     21  C   LIG A   1      -5.908   4.084 121.686  0.00  0.00    -0.021 A 
ATOM     22  C   LIG A   1      -6.964   3.864 120.797  0.00  0.00    +0.057 A 
ATOM     23  C   LIG A   1      -6.931   4.460 119.541  0.00  0.00    +0.159 A 
ATOM     24  C   LIG A   1      -5.853   5.263 119.175  0.00  0.00    +0.158 A 
ATOM     25  C   LIG A   1      -4.799   5.486 120.045  0.00  0.00    +0.050 A 
ATOM     26  C   LIG A   1      -4.825   4.892 121.313  0.00  0.00    +0.012 A 
BRANCH  23  27
ATOM     27  O   LIG A   1      -7.935   4.289 118.630  0.00  0.00    -0.503 OA
ATOM     28  H   LIG A   1      -8.276   5.171 118.387  0.00  0.00    +0.292 HD
ENDBRANCH  23  27
BRANCH  24  29
ATOM     29  O   LIG A   1      -5.828   5.851 117.941  0.00  0.00    -0.503 OA
ATOM     30  H   LIG A   1      -6.767   5.874 117.660  0.00  0.00    +0.292 HD
ENDBRANCH  24  29
ENDBRANCH  20  21
ENDBRANCH  17  19
ENDBRANCH  16  17
ENDBRANCH   1  16
TORSDOF 11
ENDMDL
MODEL 6
REMARK VINA RESULT:      -6.7      4.108      5.929
REMARK  Name = NuBBE_1111
REMARK  11 active torsions:
REMARK  status: ('A' for Active; 'I' for Inactive)
REMARK    1  A    between atoms: C_1  and  O_2
REMARK    2  A    between atoms: C_1  and  C_15
REMARK    3  A    between atoms: O_2  and  C_3
REMARK    4  A    between atoms: C_3  and  C_5
REMARK    5  A    between atoms: C_6  and  C_7
REMARK    6  A    between atoms: C_9  and  O_10
REMARK    7  A    between atoms: C_11  and  O_14
REMARK    8  A    between atoms: C_17  and  O_19
REMARK    9  A    between atoms: C_20  and  O_22
REMARK   10  A    between atoms: C_23  and  O_29
REMARK   11  A    between atoms: C_25  and  O_28
REMARK                            x       y       z     vdW  Elec       q    Type
REMARK                         _______ _______ _______ _____ _____    ______ ____
ROOT
ATOM      1  C   LIG A   1      -7.840   4.323 128.408  0.00  0.00    +0.267 C 
ENDROOT
BRANCH   1   2
ATOM      2  C   LIG A   1      -9.173   4.587 129.137  0.00  0.00    +0.190 C 
ATOM      3  C   LIG A   1      -9.599   6.060 129.086  0.00  0.00    +0.178 C 
ATOM      4  C   LIG A   1     -10.870   6.313 129.893  0.00  0.00    +0.179 C 
ATOM      5  C   LIG A   1     -10.685   5.792 131.321  0.00  0.00    +0.201 C 
ATOM      6  C   LIG A   1     -10.190   4.332 131.294  0.00  0.00    +0.279 C 
ATOM      7  O   LIG A   1      -9.031   4.146 130.494  0.00  0.00    -0.340 OA
BRANCH   3   8
ATOM      8  O   LIG A   1      -9.830   6.496 127.744  0.00  0.00    -0.386 OA
ATOM      9  H   LIG A   1      -9.909   7.477 127.784  0.00  0.00    +0.210 HD
ENDBRANCH   3   8
BRANCH   4  10
ATOM     10  O   LIG A   1     -11.110   7.731 129.891  0.00  0.00    -0.386 OA
ATOM     11  H   LIG A   1     -12.058   7.833 129.679  0.00  0.00    +0.210 HD
ENDBRANCH   4  10
BRANCH   6  12
ATOM     12  O   LIG A   1     -11.225   3.428 130.912  0.00  0.00    -0.365 OA
ATOM     13  H   LIG A   1     -12.022   3.933 130.692  0.00  0.00    +0.213 HD
ENDBRANCH   6  12
BRANCH   5  14
ATOM     14  O   LIG A   1     -11.907   5.902 132.064  0.00  0.00    -0.384 OA
ATOM     15  H   LIG A   1     -12.273   6.791 131.905  0.00  0.00    +0.210 HD
ENDBRANCH   5  14
ENDBRANCH   1   2
BRANCH   1  16
ATOM     16  O   LIG A   1      -7.976   4.405 126.972  0.00  0.00    -0.459 OA
BRANCH  16  17
ATOM     17  C   LIG A   1      -7.347   3.452 126.245  0.00  0.00    +0.332 C 
ATOM     18  O   LIG A   1      -6.816   2.443 126.684  0.00  0.00    -0.246 OA
BRANCH  17  19
ATOM     19  C   LIG A   1      -7.508   3.775 124.819  0.00  0.00    +0.092 C 
ATOM     20  C   LIG A   1      -6.686   3.226 123.914  0.00  0.00    +0.015 C 
BRANCH  20  21
ATOM     21  C   LIG A   1      -6.846   3.522 122.491  0.00  0.00    -0.021 A 
ATOM     22  C   LIG A   1      -8.116   3.462 121.908  0.00  0.00    +0.057 A 
ATOM     23  C   LIG A   1      -8.261   3.780 120.562  0.00  0.00    +0.159 A 
ATOM     24  C   LIG A   1      -7.151   4.150 119.805  0.00  0.00    +0.158 A 
ATOM     25  C   LIG A   1      -5.888   4.209 120.370  0.00  0.00    +0.050 A 
ATOM     26  C   LIG A   1      -5.732   3.893 121.726  0.00  0.00    +0.012 A 
BRANCH  23  27
ATOM     27  O   LIG A   1      -9.476   3.747 119.936  0.00  0.00    -0.503 OA
ATOM     28  H   LIG A   1      -9.698   2.813 119.758  0.00  0.00    +0.292 HD
ENDBRANCH  23  27
BRANCH  24  29
ATOM     29  O   LIG A   1      -7.301   4.467 118.484  0.00  0.00    -0.503 OA
ATOM     30  H   LIG A   1      -8.233   4.761 118.405  0.00  0.00    +0.292 HD
ENDBRANCH  24  29
ENDBRANCH  20  21
ENDBRANCH  17  19
ENDBRANCH  16  17
ENDBRANCH   1  16
TORSDOF 11
ENDMDL
MODEL 7
REMARK VINA RESULT:      -6.7      1.704      2.609
REMARK  Name = NuBBE_1111
REMARK  11 active torsions:
REMARK  status: ('A' for Active; 'I' for Inactive)
REMARK    1  A    between atoms: C_1  and  O_2
REMARK    2  A    between atoms: C_1  and  C_15
REMARK    3  A    between atoms: O_2  and  C_3
REMARK    4  A    between atoms: C_3  and  C_5
REMARK    5  A    between atoms: C_6  and  C_7
REMARK    6  A    between atoms: C_9  and  O_10
REMARK    7  A    between atoms: C_11  and  O_14
REMARK    8  A    between atoms: C_17  and  O_19
REMARK    9  A    between atoms: C_20  and  O_22
REMARK   10  A    between atoms: C_23  and  O_29
REMARK   11  A    between atoms: C_25  and  O_28
REMARK                            x       y       z     vdW  Elec       q    Type
REMARK                         _______ _______ _______ _____ _____    ______ ____
ROOT
ATOM      1  C   LIG A   1      -8.982   0.915 125.842  0.00  0.00    +0.267 C 
ENDROOT
BRANCH   1   2
ATOM      2  C   LIG A   1      -8.784  -0.615 125.886  0.00  0.00    +0.190 C 
ATOM      3  C   LIG A   1      -7.307  -1.026 125.864  0.00  0.00    +0.178 C 
ATOM      4  C   LIG A   1      -7.139  -2.543 125.814  0.00  0.00    +0.179 C 
ATOM      5  C   LIG A   1      -7.936  -3.109 124.637  0.00  0.00    +0.201 C 
ATOM      6  C   LIG A   1      -9.391  -2.599 124.684  0.00  0.00    +0.279 C 
ATOM      7  O   LIG A   1      -9.488  -1.185 124.775  0.00  0.00    -0.340 OA
BRANCH   3   8
ATOM      8  O   LIG A   1      -6.606  -0.538 127.012  0.00  0.00    -0.386 OA
ATOM      9  H   LIG A   1      -6.913  -1.084 127.772  0.00  0.00    +0.210 HD
ENDBRANCH   3   8
BRANCH   4  10
ATOM     10  O   LIG A   1      -5.735  -2.819 125.664  0.00  0.00    -0.386 OA
ATOM     11  H   LIG A   1      -5.630  -3.760 125.905  0.00  0.00    +0.210 HD
ENDBRANCH   4  10
BRANCH   6  12
ATOM     12  O   LIG A   1     -10.140  -3.229 125.720  0.00  0.00    -0.365 OA
ATOM     13  H   LIG A   1     -11.079  -3.019 125.606  0.00  0.00    +0.213 HD
ENDBRANCH   6  12
BRANCH   5  14
ATOM     14  O   LIG A   1      -7.899  -4.543 124.641  0.00  0.00    -0.384 OA
ATOM     15  H   LIG A   1      -7.835  -4.836 125.568  0.00  0.00    +0.210 HD
ENDBRANCH   5  14
ENDBRANCH   1   2
BRANCH   1  16
ATOM     16  O   LIG A   1      -7.862   1.594 125.232  0.00  0.00    -0.459 OA
BRANCH  16  17
ATOM     17  C   LIG A   1      -7.656   2.880 125.600  0.00  0.00    +0.332 C 
ATOM     18  O   LIG A   1      -7.709   3.322 126.738  0.00  0.00    -0.246 OA
BRANCH  17  19
ATOM     19  C   LIG A   1      -7.242   3.642 124.411  0.00  0.00    +0.092 C 
ATOM     20  C   LIG A   1      -6.728   2.999 123.353  0.00  0.00    +0.015 C 
BRANCH  20  21
ATOM     21  C   LIG A   1      -6.331   3.741 122.157  0.00  0.00    -0.021 A 
ATOM     22  C   LIG A   1      -5.241   4.614 122.212  0.00  0.00    +0.057 A 
ATOM     23  C   LIG A   1      -4.851   5.287 121.059  0.00  0.00    +0.159 A 
ATOM     24  C   LIG A   1      -5.545   5.095 119.866  0.00  0.00    +0.158 A 
ATOM     25  C   LIG A   1      -6.630   4.237 119.800  0.00  0.00    +0.050 A 
ATOM     26  C   LIG A   1      -7.028   3.552 120.956  0.00  0.00    +0.012 A 
BRANCH  23  27
ATOM     27  O   LIG A   1      -3.789   6.148 121.045  0.00  0.00    -0.503 OA
ATOM     28  H   LIG A   1      -3.291   6.026 121.876  0.00  0.00    +0.292 HD
ENDBRANCH  23  27
BRANCH  24  29
ATOM     29  O   LIG A   1      -5.154   5.755 118.735  0.00  0.00    -0.503 OA
ATOM     30  H   LIG A   1      -4.175   5.772 118.785  0.00  0.00    +0.292 HD
ENDBRANCH  24  29
ENDBRANCH  20  21
ENDBRANCH  17  19
ENDBRANCH  16  17
ENDBRANCH   1  16
TORSDOF 11
ENDMDL
MODEL 8
REMARK VINA RESULT:      -6.6      7.845      8.993
REMARK  Name = NuBBE_1111
REMARK  11 active torsions:
REMARK  status: ('A' for Active; 'I' for Inactive)
REMARK    1  A    between atoms: C_1  and  O_2
REMARK    2  A    between atoms: C_1  and  C_15
REMARK    3  A    between atoms: O_2  and  C_3
REMARK    4  A    between atoms: C_3  and  C_5
REMARK    5  A    between atoms: C_6  and  C_7
REMARK    6  A    between atoms: C_9  and  O_10
REMARK    7  A    between atoms: C_11  and  O_14
REMARK    8  A    between atoms: C_17  and  O_19
REMARK    9  A    between atoms: C_20  and  O_22
REMARK   10  A    between atoms: C_23  and  O_29
REMARK   11  A    between atoms: C_25  and  O_28
REMARK                            x       y       z     vdW  Elec       q    Type
REMARK                         _______ _______ _______ _____ _____    ______ ____
ROOT
ATOM      1  C   LIG A   1     -10.187   5.689 131.939  0.00  0.00    +0.267 C 
ENDROOT
BRANCH   1   2
ATOM      2  C   LIG A   1     -10.938   6.347 130.762  0.00  0.00    +0.190 C 
ATOM      3  C   LIG A   1     -10.032   7.234 129.899  0.00  0.00    +0.178 C 
ATOM      4  C   LIG A   1     -10.815   7.946 128.798  0.00  0.00    +0.179 C 
ATOM      5  C   LIG A   1     -11.990   8.710 129.416  0.00  0.00    +0.201 C 
ATOM      6  C   LIG A   1     -12.814   7.775 130.325  0.00  0.00    +0.279 C 
ATOM      7  O   LIG A   1     -12.029   7.105 131.301  0.00  0.00    -0.340 OA
BRANCH   3   8
ATOM      8  O   LIG A   1      -8.986   6.478 129.282  0.00  0.00    -0.386 OA
ATOM      9  H   LIG A   1      -9.172   6.492 128.315  0.00  0.00    +0.210 HD
ENDBRANCH   3   8
BRANCH   4  10
ATOM     10  O   LIG A   1      -9.910   8.846 128.135  0.00  0.00    -0.386 OA
ATOM     11  H   LIG A   1     -10.431   9.252 127.415  0.00  0.00    +0.210 HD
ENDBRANCH   4  10
BRANCH   6  12
ATOM     12  O   LIG A   1     -13.588   6.848 129.568  0.00  0.00    -0.365 OA
ATOM     13  H   LIG A   1     -14.527   7.071 129.658  0.00  0.00    +0.213 HD
ENDBRANCH   6  12
BRANCH   5  14
ATOM     14  O   LIG A   1     -12.816   9.284 128.394  0.00  0.00    -0.384 OA
ATOM     15  H   LIG A   1     -12.318   9.255 127.558  0.00  0.00    +0.210 HD
ENDBRANCH   5  14
ENDBRANCH   1   2
BRANCH   1  16
ATOM     16  O   LIG A   1      -9.037   6.459 132.353  0.00  0.00    -0.459 OA
BRANCH  16  17
ATOM     17  C   LIG A   1      -8.053   5.787 132.995  0.00  0.00    +0.332 C 
ATOM     18  O   LIG A   1      -8.136   5.265 134.097  0.00  0.00    -0.246 OA
BRANCH  17  19
ATOM     19  C   LIG A   1      -6.895   5.688 132.094  0.00  0.00    +0.092 C 
ATOM     20  C   LIG A   1      -6.399   6.794 131.522  0.00  0.00    +0.015 C 
BRANCH  20  21
ATOM     21  C   LIG A   1      -5.235   6.714 130.640  0.00  0.00    -0.021 A 
ATOM     22  C   LIG A   1      -4.696   5.467 130.314  0.00  0.00    +0.057 A 
ATOM     23  C   LIG A   1      -3.611   5.401 129.445  0.00  0.00    +0.159 A 
ATOM     24  C   LIG A   1      -3.067   6.569 128.914  0.00  0.00    +0.158 A 
ATOM     25  C   LIG A   1      -3.589   7.811 129.233  0.00  0.00    +0.050 A 
ATOM     26  C   LIG A   1      -4.684   7.886 130.104  0.00  0.00    +0.012 A 
BRANCH  23  27
ATOM     27  O   LIG A   1      -3.044   4.212 129.082  0.00  0.00    -0.503 OA
ATOM     28  H   LIG A   1      -3.586   3.824 128.369  0.00  0.00    +0.292 HD
ENDBRANCH  23  27
BRANCH  24  29
ATOM     29  O   LIG A   1      -2.004   6.498 128.057  0.00  0.00    -0.503 OA
ATOM     30  H   LIG A   1      -1.484   7.308 128.242  0.00  0.00    +0.292 HD
ENDBRANCH  24  29
ENDBRANCH  20  21
ENDBRANCH  17  19
ENDBRANCH  16  17
ENDBRANCH   1  16
TORSDOF 11
ENDMDL
MODEL 9
REMARK VINA RESULT:      -6.5      8.008     11.037
REMARK  Name = NuBBE_1111
REMARK  11 active torsions:
REMARK  status: ('A' for Active; 'I' for Inactive)
REMARK    1  A    between atoms: C_1  and  O_2
REMARK    2  A    between atoms: C_1  and  C_15
REMARK    3  A    between atoms: O_2  and  C_3
REMARK    4  A    between atoms: C_3  and  C_5
REMARK    5  A    between atoms: C_6  and  C_7
REMARK    6  A    between atoms: C_9  and  O_10
REMARK    7  A    between atoms: C_11  and  O_14
REMARK    8  A    between atoms: C_17  and  O_19
REMARK    9  A    between atoms: C_20  and  O_22
REMARK   10  A    between atoms: C_23  and  O_29
REMARK   11  A    between atoms: C_25  and  O_28
REMARK                            x       y       z     vdW  Elec       q    Type
REMARK                         _______ _______ _______ _____ _____    ______ ____
ROOT
ATOM      1  C   LIG A   1      -9.432   4.214 130.423  0.00  0.00    +0.267 C 
ENDROOT
BRANCH   1   2
ATOM      2  C   LIG A   1     -10.044   5.622 130.275  0.00  0.00    +0.190 C 
ATOM      3  C   LIG A   1     -11.320   5.808 131.105  0.00  0.00    +0.178 C 
ATOM      4  C   LIG A   1     -11.958   7.175 130.870  0.00  0.00    +0.179 C 
ATOM      5  C   LIG A   1     -12.183   7.386 129.370  0.00  0.00    +0.201 C 
ATOM      6  C   LIG A   1     -10.879   7.114 128.593  0.00  0.00    +0.279 C 
ATOM      7  O   LIG A   1     -10.306   5.848 128.883  0.00  0.00    -0.340 OA
BRANCH   3   8
ATOM      8  O   LIG A   1     -11.063   5.673 132.505  0.00  0.00    -0.386 OA
ATOM      9  H   LIG A   1     -11.890   5.947 132.964  0.00  0.00    +0.210 HD
ENDBRANCH   3   8
BRANCH   4  10
ATOM     10  O   LIG A   1     -13.206   7.200 131.585  0.00  0.00    -0.386 OA
ATOM     11  H   LIG A   1     -13.143   6.477 132.239  0.00  0.00    +0.210 HD
ENDBRANCH   4  10
BRANCH   6  12
ATOM     12  O   LIG A   1      -9.926   8.159 128.774  0.00  0.00    -0.365 OA
ATOM     13  H   LIG A   1     -10.246   8.764 129.461  0.00  0.00    +0.213 HD
ENDBRANCH   6  12
BRANCH   5  14
ATOM     14  O   LIG A   1     -12.664   8.712 129.110  0.00  0.00    -0.384 OA
ATOM     15  H   LIG A   1     -11.892   9.276 128.923  0.00  0.00    +0.210 HD
ENDBRANCH   5  14
ENDBRANCH   1   2
BRANCH   1  16
ATOM     16  O   LIG A   1     -10.354   3.276 131.020  0.00  0.00    -0.459 OA
BRANCH  16  17
ATOM     17  C   LIG A   1      -9.829   2.361 131.868  0.00  0.00    +0.332 C 
ATOM     18  O   LIG A   1     -10.174   1.194 131.974  0.00  0.00    -0.246 OA
BRANCH  17  19
ATOM     19  C   LIG A   1      -8.690   2.977 132.567  0.00  0.00    +0.092 C 
ATOM     20  C   LIG A   1      -8.840   3.424 133.821  0.00  0.00    +0.015 C 
BRANCH  20  21
ATOM     21  C   LIG A   1      -7.711   4.019 134.535  0.00  0.00    -0.021 A 
ATOM     22  C   LIG A   1      -6.462   3.391 134.506  0.00  0.00    +0.057 A 
ATOM     23  C   LIG A   1      -5.388   3.985 135.159  0.00  0.00    +0.159 A 
ATOM     24  C   LIG A   1      -5.559   5.190 135.838  0.00  0.00    +0.158 A 
ATOM     25  C   LIG A   1      -6.791   5.820 135.877  0.00  0.00    +0.050 A 
ATOM     26  C   LIG A   1      -7.879   5.230 135.220  0.00  0.00    +0.012 A 
BRANCH  23  27
ATOM     27  O   LIG A   1      -4.141   3.425 135.162  0.00  0.00    -0.503 OA
ATOM     28  H   LIG A   1      -3.490   4.137 135.312  0.00  0.00    +0.292 HD
ENDBRANCH  23  27
BRANCH  24  29
ATOM     29  O   LIG A   1      -4.498   5.772 136.473  0.00  0.00    -0.503 OA
ATOM     30  H   LIG A   1      -4.689   6.734 136.442  0.00  0.00    +0.292 HD
ENDBRANCH  24  29
ENDBRANCH  20  21
ENDBRANCH  17  19
ENDBRANCH  16  17
ENDBRANCH   1  16
TORSDOF 11
ENDMDL
