MODEL 1
REMARK VINA RESULT:      -7.7      0.000      0.000
REMARK  Name = NuBBE_2448
REMARK  2 active torsions:
REMARK  status: ('A' for Active; 'I' for Inactive)
REMARK    1  A    between atoms: C_6  and  C_9
REMARK    2  A    between atoms: C_16  and  O_19
REMARK                            x       y       z     vdW  Elec       q    Type
REMARK                         _______ _______ _______ _____ _____    ______ ____
ROOT
ATOM      1  O   LIG A   1     -10.821   0.214 122.489  0.00  0.00    -0.292 OA
ATOM      2  C   LIG A   1      -9.848   0.619 123.117  0.00  0.00    +0.171 C 
ATOM      3  C   LIG A   1      -8.643  -0.215 123.282  0.00  0.00    +0.059 A 
ATOM      4  C   LIG A   1      -7.566   0.297 124.005  0.00  0.00    +0.135 A 
ATOM      5  O   LIG A   1      -7.541   1.559 124.540  0.00  0.00    -0.483 OA
ATOM      6  C   LIG A   1      -8.421   2.496 123.885  0.00  0.00    +0.211 C 
ATOM      7  C   LIG A   1      -9.842   1.945 123.822  0.00  0.00    +0.129 C 
ATOM      8  C   LIG A   1      -6.442  -0.498 124.236  0.00  0.00    +0.091 A 
ATOM      9  C   LIG A   1      -6.402  -1.788 123.713  0.00  0.00    +0.120 A 
ATOM     10  C   LIG A   1      -7.466  -2.297 122.974  0.00  0.00    +0.046 A 
ATOM     11  C   LIG A   1      -8.597  -1.510 122.757  0.00  0.00    +0.018 A 
ENDROOT
BRANCH   6  12
ATOM     12  C   LIG A   1      -7.784   3.022 122.603  0.00  0.00    -0.007 A 
ATOM     13  C   LIG A   1      -6.397   3.109 122.406  0.00  0.00    +0.007 A 
ATOM     14  C   LIG A   1      -5.875   3.592 121.202  0.00  0.00    +0.000 A 
ATOM     15  C   LIG A   1      -6.727   3.985 120.174  0.00  0.00    +0.000 A 
ATOM     16  C   LIG A   1      -8.105   3.898 120.346  0.00  0.00    +0.000 A 
ATOM     17  C   LIG A   1      -8.627   3.419 121.548  0.00  0.00    +0.007 A 
ENDBRANCH   6  12
BRANCH   9  18
ATOM     18  O   LIG A   1      -5.321  -2.597 123.904  0.00  0.00    -0.507 OA
ATOM     19  H   LIG A   1      -5.220  -3.175 123.130  0.00  0.00    +0.292 HD
ENDBRANCH   9  18
TORSDOF 2
ENDMDL
MODEL 2
REMARK VINA RESULT:      -7.4      1.982      5.313
REMARK  Name = NuBBE_2448
REMARK  2 active torsions:
REMARK  status: ('A' for Active; 'I' for Inactive)
REMARK    1  A    between atoms: C_6  and  C_9
REMARK    2  A    between atoms: C_16  and  O_19
REMARK                            x       y       z     vdW  Elec       q    Type
REMARK                         _______ _______ _______ _____ _____    ______ ____
ROOT
ATOM      1  O   LIG A   1      -5.312   3.463 124.461  0.00  0.00    -0.292 OA
ATOM      2  C   LIG A   1      -6.426   3.335 123.964  0.00  0.00    +0.171 C 
ATOM      3  C   LIG A   1      -6.657   3.580 122.529  0.00  0.00    +0.059 A 
ATOM      4  C   LIG A   1      -7.945   3.417 122.017  0.00  0.00    +0.135 A 
ATOM      5  O   LIG A   1      -9.012   2.995 122.767  0.00  0.00    -0.483 OA
ATOM      6  C   LIG A   1      -8.647   2.231 123.936  0.00  0.00    +0.211 C 
ATOM      7  C   LIG A   1      -7.638   2.997 124.786  0.00  0.00    +0.129 C 
ATOM      8  C   LIG A   1      -8.205   3.712 120.679  0.00  0.00    +0.091 A 
ATOM      9  C   LIG A   1      -7.162   4.141 119.861  0.00  0.00    +0.120 A 
ATOM     10  C   LIG A   1      -5.871   4.286 120.361  0.00  0.00    +0.046 A 
ATOM     11  C   LIG A   1      -5.613   4.008 121.703  0.00  0.00    +0.018 A 
ENDROOT
BRANCH   6  12
ATOM     12  C   LIG A   1      -8.336   0.787 123.556  0.00  0.00    -0.007 A 
ATOM     13  C   LIG A   1      -7.060   0.214 123.665  0.00  0.00    +0.007 A 
ATOM     14  C   LIG A   1      -6.843  -1.121 123.309  0.00  0.00    +0.000 A 
ATOM     15  C   LIG A   1      -7.897  -1.906 122.848  0.00  0.00    +0.000 A 
ATOM     16  C   LIG A   1      -9.171  -1.359 122.741  0.00  0.00    +0.000 A 
ATOM     17  C   LIG A   1      -9.389  -0.026 123.093  0.00  0.00    +0.007 A 
ENDBRANCH   6  12
BRANCH   9  18
ATOM     18  O   LIG A   1      -7.366   4.431 118.544  0.00  0.00    -0.507 OA
ATOM     19  H   LIG A   1      -7.209   3.629 118.018  0.00  0.00    +0.292 HD
ENDBRANCH   9  18
TORSDOF 2
ENDMDL
MODEL 3
REMARK VINA RESULT:      -7.2      3.253      5.711
REMARK  Name = NuBBE_2448
REMARK  2 active torsions:
REMARK  status: ('A' for Active; 'I' for Inactive)
REMARK    1  A    between atoms: C_6  and  C_9
REMARK    2  A    between atoms: C_16  and  O_19
REMARK                            x       y       z     vdW  Elec       q    Type
REMARK                         _______ _______ _______ _____ _____    ______ ____
ROOT
ATOM      1  O   LIG A   1      -8.078  -2.271 127.950  0.00  0.00    -0.292 OA
ATOM      2  C   LIG A   1      -8.532  -2.067 126.829  0.00  0.00    +0.171 C 
ATOM      3  C   LIG A   1      -8.650  -0.701 126.287  0.00  0.00    +0.059 A 
ATOM      4  C   LIG A   1      -9.172  -0.529 125.005  0.00  0.00    +0.135 A 
ATOM      5  O   LIG A   1      -9.545  -1.567 124.191  0.00  0.00    -0.483 OA
ATOM      6  C   LIG A   1      -8.892  -2.818 124.493  0.00  0.00    +0.211 C 
ATOM      7  C   LIG A   1      -9.066  -3.174 125.966  0.00  0.00    +0.129 C 
ATOM      8  C   LIG A   1      -9.360   0.757 124.497  0.00  0.00    +0.091 A 
ATOM      9  C   LIG A   1      -8.996   1.856 125.272  0.00  0.00    +0.120 A 
ATOM     10  C   LIG A   1      -8.456   1.690 126.544  0.00  0.00    +0.046 A 
ATOM     11  C   LIG A   1      -8.283   0.405 127.060  0.00  0.00    +0.018 A 
ENDROOT
BRANCH   6  12
ATOM     12  C   LIG A   1      -7.489  -2.847 123.895  0.00  0.00    -0.007 A 
ATOM     13  C   LIG A   1      -7.071  -1.999 122.858  0.00  0.00    +0.007 A 
ATOM     14  C   LIG A   1      -5.766  -2.069 122.360  0.00  0.00    +0.000 A 
ATOM     15  C   LIG A   1      -4.857  -2.978 122.895  0.00  0.00    +0.000 A 
ATOM     16  C   LIG A   1      -5.249  -3.820 123.930  0.00  0.00    +0.000 A 
ATOM     17  C   LIG A   1      -6.552  -3.754 124.426  0.00  0.00    +0.007 A 
ENDBRANCH   6  12
BRANCH   9  18
ATOM     18  O   LIG A   1      -9.152   3.131 124.813  0.00  0.00    -0.507 OA
ATOM     19  H   LIG A   1      -8.841   3.174 123.893  0.00  0.00    +0.292 HD
ENDBRANCH   9  18
TORSDOF 2
ENDMDL
MODEL 4
REMARK VINA RESULT:      -7.1      2.333      5.389
REMARK  Name = NuBBE_2448
REMARK  2 active torsions:
REMARK  status: ('A' for Active; 'I' for Inactive)
REMARK    1  A    between atoms: C_6  and  C_9
REMARK    2  A    between atoms: C_16  and  O_19
REMARK                            x       y       z     vdW  Elec       q    Type
REMARK                         _______ _______ _______ _____ _____    ______ ____
ROOT
ATOM      1  O   LIG A   1      -8.163  -0.029 127.295  0.00  0.00    -0.292 OA
ATOM      2  C   LIG A   1      -8.586  -0.293 126.174  0.00  0.00    +0.171 C 
ATOM      3  C   LIG A   1      -8.600   0.720 125.102  0.00  0.00    +0.059 A 
ATOM      4  C   LIG A   1      -9.091   0.363 123.847  0.00  0.00    +0.135 A 
ATOM      5  O   LIG A   1      -9.526  -0.899 123.532  0.00  0.00    -0.483 OA
ATOM      6  C   LIG A   1      -8.967  -1.940 124.360  0.00  0.00    +0.211 C 
ATOM      7  C   LIG A   1      -9.186  -1.628 125.837  0.00  0.00    +0.129 C 
ATOM      8  C   LIG A   1      -9.181   1.321 122.836  0.00  0.00    +0.091 A 
ATOM      9  C   LIG A   1      -8.750   2.621 123.090  0.00  0.00    +0.120 A 
ATOM     10  C   LIG A   1      -8.240   2.978 124.335  0.00  0.00    +0.046 A 
ATOM     11  C   LIG A   1      -8.166   2.025 125.352  0.00  0.00    +0.018 A 
ENDROOT
BRANCH   6  12
ATOM     12  C   LIG A   1      -7.562  -2.302 123.890  0.00  0.00    -0.007 A 
ATOM     13  C   LIG A   1      -6.981  -1.792 122.719  0.00  0.00    +0.007 A 
ATOM     14  C   LIG A   1      -5.682  -2.155 122.348  0.00  0.00    +0.000 A 
ATOM     15  C   LIG A   1      -4.942  -3.025 123.144  0.00  0.00    +0.000 A 
ATOM     16  C   LIG A   1      -5.496  -3.534 124.314  0.00  0.00    +0.000 A 
ATOM     17  C   LIG A   1      -6.793  -3.174 124.683  0.00  0.00    +0.007 A 
ENDBRANCH   6  12
BRANCH   9  18
ATOM     18  O   LIG A   1      -8.809   3.588 122.130  0.00  0.00    -0.507 OA
ATOM     19  H   LIG A   1      -9.637   3.486 121.632  0.00  0.00    +0.292 HD
ENDBRANCH   9  18
TORSDOF 2
ENDMDL
MODEL 5
REMARK VINA RESULT:      -7.1      3.872      6.307
REMARK  Name = NuBBE_2448
REMARK  2 active torsions:
REMARK  status: ('A' for Active; 'I' for Inactive)
REMARK    1  A    between atoms: C_6  and  C_9
REMARK    2  A    between atoms: C_16  and  O_19
REMARK                            x       y       z     vdW  Elec       q    Type
REMARK                         _______ _______ _______ _____ _____    ______ ____
ROOT
ATOM      1  O   LIG A   1      -7.336  -0.125 123.788  0.00  0.00    -0.292 OA
ATOM      2  C   LIG A   1      -7.637  -1.281 124.068  0.00  0.00    +0.171 C 
ATOM      3  C   LIG A   1      -6.647  -2.370 123.986  0.00  0.00    +0.059 A 
ATOM      4  C   LIG A   1      -7.044  -3.665 124.319  0.00  0.00    +0.135 A 
ATOM      5  O   LIG A   1      -8.301  -3.984 124.764  0.00  0.00    -0.483 OA
ATOM      6  C   LIG A   1      -9.008  -2.883 125.372  0.00  0.00    +0.211 C 
ATOM      7  C   LIG A   1      -9.037  -1.679 124.436  0.00  0.00    +0.129 C 
ATOM      8  C   LIG A   1      -6.147  -4.725 124.181  0.00  0.00    +0.091 A 
ATOM      9  C   LIG A   1      -4.852  -4.468 123.738  0.00  0.00    +0.120 A 
ATOM     10  C   LIG A   1      -4.444  -3.175 123.424  0.00  0.00    +0.046 A 
ATOM     11  C   LIG A   1      -5.345  -2.117 123.544  0.00  0.00    +0.018 A 
ENDROOT
BRANCH   6  12
ATOM     12  C   LIG A   1      -8.544  -2.679 126.811  0.00  0.00    -0.007 A 
ATOM     13  C   LIG A   1      -7.956  -1.493 127.275  0.00  0.00    +0.007 A 
ATOM     14  C   LIG A   1      -7.561  -1.365 128.611  0.00  0.00    +0.000 A 
ATOM     15  C   LIG A   1      -7.755  -2.415 129.504  0.00  0.00    +0.000 A 
ATOM     16  C   LIG A   1      -8.345  -3.596 129.066  0.00  0.00    +0.000 A 
ATOM     17  C   LIG A   1      -8.737  -3.725 127.733  0.00  0.00    +0.007 A 
ENDBRANCH   6  12
BRANCH   9  18
ATOM     18  O   LIG A   1      -3.938  -5.471 123.599  0.00  0.00    -0.507 OA
ATOM     19  H   LIG A   1      -3.148  -5.117 123.156  0.00  0.00    +0.292 HD
ENDBRANCH   9  18
TORSDOF 2
ENDMDL
MODEL 6
REMARK VINA RESULT:      -7.0      2.756      6.172
REMARK  Name = NuBBE_2448
REMARK  2 active torsions:
REMARK  status: ('A' for Active; 'I' for Inactive)
REMARK    1  A    between atoms: C_6  and  C_9
REMARK    2  A    between atoms: C_16  and  O_19
REMARK                            x       y       z     vdW  Elec       q    Type
REMARK                         _______ _______ _______ _____ _____    ______ ____
ROOT
ATOM      1  O   LIG A   1      -8.485  -2.197 122.342  0.00  0.00    -0.292 OA
ATOM      2  C   LIG A   1      -7.807  -1.619 123.184  0.00  0.00    +0.171 C 
ATOM      3  C   LIG A   1      -8.196  -0.295 123.703  0.00  0.00    +0.059 A 
ATOM      4  C   LIG A   1      -7.387   0.315 124.662  0.00  0.00    +0.135 A 
ATOM      5  O   LIG A   1      -6.264  -0.267 125.190  0.00  0.00    -0.483 OA
ATOM      6  C   LIG A   1      -6.255  -1.708 125.116  0.00  0.00    +0.211 C 
ATOM      7  C   LIG A   1      -6.505  -2.175 123.686  0.00  0.00    +0.129 C 
ATOM      8  C   LIG A   1      -7.694   1.598 125.117  0.00  0.00    +0.091 A 
ATOM      9  C   LIG A   1      -8.826   2.243 124.624  0.00  0.00    +0.120 A 
ATOM     10  C   LIG A   1      -9.648   1.631 123.683  0.00  0.00    +0.046 A 
ATOM     11  C   LIG A   1      -9.333   0.355 123.214  0.00  0.00    +0.018 A 
ENDROOT
BRANCH   6  12
ATOM     12  C   LIG A   1      -7.098  -2.305 126.239  0.00  0.00    -0.007 A 
ATOM     13  C   LIG A   1      -8.173  -3.180 126.020  0.00  0.00    +0.007 A 
ATOM     14  C   LIG A   1      -8.900  -3.702 127.094  0.00  0.00    +0.000 A 
ATOM     15  C   LIG A   1      -8.560  -3.367 128.402  0.00  0.00    +0.000 A 
ATOM     16  C   LIG A   1      -7.492  -2.509 128.641  0.00  0.00    +0.000 A 
ATOM     17  C   LIG A   1      -6.767  -1.985 127.569  0.00  0.00    +0.007 A 
ENDBRANCH   6  12
BRANCH   9  18
ATOM     18  O   LIG A   1      -9.172   3.493 125.048  0.00  0.00    -0.507 OA
ATOM     19  H   LIG A   1      -9.403   4.033 124.274  0.00  0.00    +0.292 HD
ENDBRANCH   9  18
TORSDOF 2
ENDMDL
MODEL 7
REMARK VINA RESULT:      -6.8      8.713     10.960
REMARK  Name = NuBBE_2448
REMARK  2 active torsions:
REMARK  status: ('A' for Active; 'I' for Inactive)
REMARK    1  A    between atoms: C_6  and  C_9
REMARK    2  A    between atoms: C_16  and  O_19
REMARK                            x       y       z     vdW  Elec       q    Type
REMARK                         _______ _______ _______ _____ _____    ______ ____
ROOT
ATOM      1  O   LIG A   1      -6.937   6.997 130.487  0.00  0.00    -0.292 OA
ATOM      2  C   LIG A   1      -7.764   6.563 131.281  0.00  0.00    +0.171 C 
ATOM      3  C   LIG A   1      -9.211   6.703 131.034  0.00  0.00    +0.059 A 
ATOM      4  C   LIG A   1     -10.106   6.188 131.971  0.00  0.00    +0.135 A 
ATOM      5  O   LIG A   1      -9.719   5.513 133.100  0.00  0.00    -0.483 OA
ATOM      6  C   LIG A   1      -8.414   4.904 133.006  0.00  0.00    +0.211 C 
ATOM      7  C   LIG A   1      -7.369   5.932 132.586  0.00  0.00    +0.129 C 
ATOM      8  C   LIG A   1     -11.478   6.370 131.797  0.00  0.00    +0.091 A 
ATOM      9  C   LIG A   1     -11.938   7.042 130.667  0.00  0.00    +0.120 A 
ATOM     10  C   LIG A   1     -11.050   7.541 129.718  0.00  0.00    +0.046 A 
ATOM     11  C   LIG A   1      -9.677   7.375 129.900  0.00  0.00    +0.018 A 
ENDROOT
BRANCH   6  12
ATOM     12  C   LIG A   1      -8.493   3.587 132.240  0.00  0.00    -0.007 A 
ATOM     13  C   LIG A   1      -7.641   3.257 131.175  0.00  0.00    +0.007 A 
ATOM     14  C   LIG A   1      -7.758   2.028 130.520  0.00  0.00    +0.000 A 
ATOM     15  C   LIG A   1      -8.720   1.106 130.922  0.00  0.00    +0.000 A 
ATOM     16  C   LIG A   1      -9.569   1.409 131.982  0.00  0.00    +0.000 A 
ATOM     17  C   LIG A   1      -9.455   2.638 132.635  0.00  0.00    +0.007 A 
ENDBRANCH   6  12
BRANCH   9  18
ATOM     18  O   LIG A   1     -13.270   7.235 130.448  0.00  0.00    -0.507 OA
ATOM     19  H   LIG A   1     -13.736   7.205 131.300  0.00  0.00    +0.292 HD
ENDBRANCH   9  18
TORSDOF 2
ENDMDL
MODEL 8
REMARK VINA RESULT:      -6.5      2.079      5.270
REMARK  Name = NuBBE_2448
REMARK  2 active torsions:
REMARK  status: ('A' for Active; 'I' for Inactive)
REMARK    1  A    between atoms: C_6  and  C_9
REMARK    2  A    between atoms: C_16  and  O_19
REMARK                            x       y       z     vdW  Elec       q    Type
REMARK                         _______ _______ _______ _____ _____    ______ ____
ROOT
ATOM      1  O   LIG A   1      -7.512   1.456 127.241  0.00  0.00    -0.292 OA
ATOM      2  C   LIG A   1      -7.756   1.298 126.049  0.00  0.00    +0.171 C 
ATOM      3  C   LIG A   1      -7.101   2.123 125.018  0.00  0.00    +0.059 A 
ATOM      4  C   LIG A   1      -7.415   1.897 123.677  0.00  0.00    +0.135 A 
ATOM      5  O   LIG A   1      -8.271   0.914 123.253  0.00  0.00    -0.483 OA
ATOM      6  C   LIG A   1      -8.409  -0.188 124.174  0.00  0.00    +0.211 C 
ATOM      7  C   LIG A   1      -8.784   0.316 125.564  0.00  0.00    +0.129 C 
ATOM      8  C   LIG A   1      -6.864   2.711 122.687  0.00  0.00    +0.091 A 
ATOM      9  C   LIG A   1      -5.981   3.725 123.051  0.00  0.00    +0.120 A 
ATOM     10  C   LIG A   1      -5.649   3.942 124.385  0.00  0.00    +0.046 A 
ATOM     11  C   LIG A   1      -6.212   3.140 125.378  0.00  0.00    +0.018 A 
ENDROOT
BRANCH   6  12
ATOM     12  C   LIG A   1      -7.231  -1.148 124.038  0.00  0.00    -0.007 A 
ATOM     13  C   LIG A   1      -6.615  -1.779 125.129  0.00  0.00    +0.007 A 
ATOM     14  C   LIG A   1      -5.545  -2.658 124.936  0.00  0.00    +0.000 A 
ATOM     15  C   LIG A   1      -5.080  -2.928 123.651  0.00  0.00    +0.000 A 
ATOM     16  C   LIG A   1      -5.684  -2.320 122.555  0.00  0.00    +0.000 A 
ATOM     17  C   LIG A   1      -6.750  -1.440 122.747  0.00  0.00    +0.007 A 
ENDBRANCH   6  12
BRANCH   9  18
ATOM     18  O   LIG A   1      -5.410   4.538 122.117  0.00  0.00    -0.507 OA
ATOM     19  H   LIG A   1      -5.957   5.334 122.017  0.00  0.00    +0.292 HD
ENDBRANCH   9  18
TORSDOF 2
ENDMDL
MODEL 9
REMARK VINA RESULT:      -6.5      2.365      3.956
REMARK  Name = NuBBE_2448
REMARK  2 active torsions:
REMARK  status: ('A' for Active; 'I' for Inactive)
REMARK    1  A    between atoms: C_6  and  C_9
REMARK    2  A    between atoms: C_16  and  O_19
REMARK                            x       y       z     vdW  Elec       q    Type
REMARK                         _______ _______ _______ _____ _____    ______ ____
ROOT
ATOM      1  O   LIG A   1      -6.692  -0.050 124.107  0.00  0.00    -0.292 OA
ATOM      2  C   LIG A   1      -7.274   1.028 124.174  0.00  0.00    +0.171 C 
ATOM      3  C   LIG A   1      -6.704   2.161 124.926  0.00  0.00    +0.059 A 
ATOM      4  C   LIG A   1      -7.409   3.364 124.966  0.00  0.00    +0.135 A 
ATOM      5  O   LIG A   1      -8.592   3.573 124.305  0.00  0.00    -0.483 OA
ATOM      6  C   LIG A   1      -8.794   2.709 123.168  0.00  0.00    +0.211 C 
ATOM      7  C   LIG A   1      -8.631   1.246 123.567  0.00  0.00    +0.129 C 
ATOM      8  C   LIG A   1      -6.927   4.428 125.729  0.00  0.00    +0.091 A 
ATOM      9  C   LIG A   1      -5.727   4.282 126.420  0.00  0.00    +0.120 A 
ATOM     10  C   LIG A   1      -5.008   3.091 126.367  0.00  0.00    +0.046 A 
ATOM     11  C   LIG A   1      -5.498   2.020 125.619  0.00  0.00    +0.018 A 
ENDROOT
BRANCH   6  12
ATOM     12  C   LIG A   1      -8.022   3.227 121.959  0.00  0.00    -0.007 A 
ATOM     13  C   LIG A   1      -6.621   3.246 121.883  0.00  0.00    +0.007 A 
ATOM     14  C   LIG A   1      -5.973   3.725 120.741  0.00  0.00    +0.000 A 
ATOM     15  C   LIG A   1      -6.712   4.184 119.654  0.00  0.00    +0.000 A 
ATOM     16  C   LIG A   1      -8.102   4.166 119.705  0.00  0.00    +0.000 A 
ATOM     17  C   LIG A   1      -8.750   3.690 120.846  0.00  0.00    +0.007 A 
ENDBRANCH   6  12
BRANCH   9  18
ATOM     18  O   LIG A   1      -5.211   5.298 127.169  0.00  0.00    -0.507 OA
ATOM     19  H   LIG A   1      -4.826   4.926 127.980  0.00  0.00    +0.292 HD
ENDBRANCH   9  18
TORSDOF 2
ENDMDL
