MODEL 1
REMARK VINA RESULT:      -8.6      0.000      0.000
REMARK  Name = NuBBE_1044
REMARK  15 active torsions:
REMARK  status: ('A' for Active; 'I' for Inactive)
REMARK    1  A    between atoms: C_1  and  C_2
REMARK    2  A    between atoms: C_8  and  C_31
REMARK    3  A    between atoms: C_13  and  C_14
REMARK    4  A    between atoms: C_15  and  C_19
REMARK    5  A    between atoms: C_19  and  C_21
REMARK    6  A    between atoms: C_19  and  C_30
REMARK    7  A    between atoms: C_21  and  C_22
REMARK    8  A    between atoms: C_22  and  C_23
REMARK    9  A    between atoms: C_24  and  C_25
REMARK   10  A    between atoms: C_24  and  C_29
REMARK   11  A    between atoms: C_25  and  O_27
REMARK   12  A    between atoms: O_27  and  C_28
REMARK   13  A    between atoms: N_35  and  O_36
REMARK   14  A    between atoms: C_37  and  C_38
REMARK   15  A    between atoms: C_37  and  C_39
REMARK                            x       y       z     vdW  Elec       q    Type
REMARK                         _______ _______ _______ _____ _____    ______ ____
ROOT
ATOM      1  C   LIG A   1      -8.846   2.461 127.530  0.00  0.00    +0.016 C 
ATOM      2  C   LIG A   1      -7.613   2.147 128.413  0.00  0.00    -0.005 C 
ATOM      3  C   LIG A   1      -6.960   0.889 127.783  0.00  0.00    -0.063 C 
ATOM      4  C   LIG A   1      -5.958   0.918 126.885  0.00  0.00    -0.026 C 
ATOM      5  C   LIG A   1      -5.484  -0.279 126.131  0.00  0.00    +0.032 C 
ATOM      6  C   LIG A   1      -6.577  -1.345 125.931  0.00  0.00    +0.011 C 
ATOM      7  C   LIG A   1      -7.231  -1.708 127.318  0.00  0.00    -0.021 C 
ATOM      8  C   LIG A   1      -7.615  -0.423 128.175  0.00  0.00    +0.021 C 
ATOM      9  C   LIG A   1      -7.405  -0.548 129.693  0.00  0.00    +0.009 C 
ATOM     10  C   LIG A   1      -8.169   0.546 130.443  0.00  0.00    +0.008 C 
ATOM     11  C   LIG A   1      -7.927   2.014 129.979  0.00  0.00    -0.020 C 
ATOM     12  C   LIG A   1      -9.238   2.783 130.308  0.00  0.00    +0.012 C 
ATOM     13  C   LIG A   1      -6.630   2.633 130.717  0.00  0.00    -0.001 C 
ATOM     14  C   LIG A   1      -5.759   3.164 129.558  0.00  0.00    +0.005 C 
ATOM     15  C   LIG A   1      -6.711   3.394 128.404  0.00  0.00    +0.012 C 
ATOM     16  C   LIG A   1      -6.213  -2.615 128.071  0.00  0.00    +0.012 C 
ATOM     17  C   LIG A   1      -8.524  -2.558 127.093  0.00  0.00    +0.013 C 
ATOM     18  C   LIG A   1      -8.528  -3.315 125.771  0.00  0.00    +0.055 C 
ATOM     19  C   LIG A   1      -8.531  -2.311 124.629  0.00  0.00    +0.063 C 
ATOM     20  N   LIG A   1      -9.280  -2.410 123.568  0.00  0.00    -0.096 NA
ATOM     21  C   LIG A   1      -7.589  -1.088 124.749  0.00  0.00    +0.010 C 
ATOM     22  C   LIG A   1      -6.821  -0.943 123.413  0.00  0.00    +0.017 C 
ATOM     23  C   LIG A   1      -8.476   0.152 124.901  0.00  0.00    +0.017 C 
ENDROOT
BRANCH  13  24
ATOM     24  C   LIG A   1      -6.862   3.710 131.851  0.00  0.00    -0.010 C 
ATOM     25  C   LIG A   1      -6.486   3.167 133.243  0.00  0.00    +0.008 C 
BRANCH  24  26
ATOM     26  C   LIG A   1      -6.056   5.038 131.648  0.00  0.00    +0.007 C 
BRANCH  26  27
ATOM     27  C   LIG A   1      -6.911   6.223 131.158  0.00  0.00    +0.028 C 
BRANCH  27  28
ATOM     28  C   LIG A   1      -8.323   6.174 131.689  0.00  0.00    -0.017 C 
ATOM     29  C   LIG A   1      -9.480   6.358 131.020  0.00  0.00    +0.030 C 
ATOM     30  C   LIG A   1     -10.804   6.365 131.745  0.00  0.00    +0.051 C 
BRANCH  29  31
ATOM     31  C   LIG A   1      -9.521   6.604 129.543  0.00  0.00    +0.334 C 
ATOM     32  O   LIG A   1      -9.410   5.765 128.677  0.00  0.00    -0.245 OA
BRANCH  31  33
ATOM     33  O   LIG A   1      -9.569   7.952 129.358  0.00  0.00    -0.465 OA
ATOM     34  C   LIG A   1     -10.470   8.411 128.354  0.00  0.00    +0.280 C 
ENDBRANCH  31  33
ENDBRANCH  29  31
ENDBRANCH  27  28
ENDBRANCH  26  27
ENDBRANCH  24  26
ENDBRANCH  13  24
BRANCH  20  35
ATOM     35  O   LIG A   1     -10.079  -3.555 123.580  0.00  0.00    -0.409 OA
ATOM     36  H   LIG A   1      -9.673  -4.081 124.295  0.00  0.00    +0.328 HD
ENDBRANCH  20  35
TORSDOF 7
ENDMDL
MODEL 2
REMARK VINA RESULT:      -8.3      4.160      5.960
REMARK  Name = NuBBE_1044
REMARK  15 active torsions:
REMARK  status: ('A' for Active; 'I' for Inactive)
REMARK    1  A    between atoms: C_1  and  C_2
REMARK    2  A    between atoms: C_8  and  C_31
REMARK    3  A    between atoms: C_13  and  C_14
REMARK    4  A    between atoms: C_15  and  C_19
REMARK    5  A    between atoms: C_19  and  C_21
REMARK    6  A    between atoms: C_19  and  C_30
REMARK    7  A    between atoms: C_21  and  C_22
REMARK    8  A    between atoms: C_22  and  C_23
REMARK    9  A    between atoms: C_24  and  C_25
REMARK   10  A    between atoms: C_24  and  C_29
REMARK   11  A    between atoms: C_25  and  O_27
REMARK   12  A    between atoms: O_27  and  C_28
REMARK   13  A    between atoms: N_35  and  O_36
REMARK   14  A    between atoms: C_37  and  C_38
REMARK   15  A    between atoms: C_37  and  C_39
REMARK                            x       y       z     vdW  Elec       q    Type
REMARK                         _______ _______ _______ _____ _____    ______ ____
ROOT
ATOM      1  C   LIG A   1      -7.294  -0.075 128.729  0.00  0.00    +0.016 C 
ATOM      2  C   LIG A   1      -6.451  -1.370 128.637  0.00  0.00    -0.005 C 
ATOM      3  C   LIG A   1      -6.433  -1.749 127.133  0.00  0.00    -0.063 C 
ATOM      4  C   LIG A   1      -5.468  -1.392 126.266  0.00  0.00    -0.026 C 
ATOM      5  C   LIG A   1      -5.566  -1.579 124.789  0.00  0.00    +0.032 C 
ATOM      6  C   LIG A   1      -7.016  -1.568 124.269  0.00  0.00    +0.011 C 
ATOM      7  C   LIG A   1      -7.884  -2.602 125.082  0.00  0.00    -0.021 C 
ATOM      8  C   LIG A   1      -7.674  -2.484 126.655  0.00  0.00    +0.021 C 
ATOM      9  C   LIG A   1      -7.686  -3.812 127.429  0.00  0.00    +0.009 C 
ATOM     10  C   LIG A   1      -7.889  -3.570 128.928  0.00  0.00    +0.008 C 
ATOM     11  C   LIG A   1      -6.927  -2.550 129.609  0.00  0.00    -0.020 C 
ATOM     12  C   LIG A   1      -7.726  -1.946 130.799  0.00  0.00    +0.012 C 
ATOM     13  C   LIG A   1      -5.563  -3.283 130.073  0.00  0.00    -0.001 C 
ATOM     14  C   LIG A   1      -4.445  -2.420 129.448  0.00  0.00    +0.005 C 
ATOM     15  C   LIG A   1      -5.061  -1.057 129.220  0.00  0.00    +0.012 C 
ATOM     16  C   LIG A   1      -7.503  -4.018 124.558  0.00  0.00    +0.012 C 
ATOM     17  C   LIG A   1      -9.402  -2.390 124.768  0.00  0.00    +0.013 C 
ATOM     18  C   LIG A   1      -9.653  -1.736 123.416  0.00  0.00    +0.055 C 
ATOM     19  C   LIG A   1      -9.070  -0.332 123.430  0.00  0.00    +0.063 C 
ATOM     20  N   LIG A   1      -9.676   0.719 122.957  0.00  0.00    -0.096 NA
ATOM     21  C   LIG A   1      -7.669  -0.147 124.064  0.00  0.00    +0.010 C 
ATOM     22  C   LIG A   1      -6.812   0.696 123.088  0.00  0.00    +0.017 C 
ATOM     23  C   LIG A   1      -7.855   0.682 125.339  0.00  0.00    +0.017 C 
ENDROOT
BRANCH  13  24
ATOM     24  C   LIG A   1      -5.346  -3.542 131.618  0.00  0.00    -0.010 C 
ATOM     25  C   LIG A   1      -5.584  -5.018 131.990  0.00  0.00    +0.008 C 
BRANCH  24  26
ATOM     26  C   LIG A   1      -3.915  -3.168 132.134  0.00  0.00    +0.007 C 
BRANCH  26  27
ATOM     27  C   LIG A   1      -3.904  -2.070 133.215  0.00  0.00    +0.028 C 
BRANCH  27  28
ATOM     28  C   LIG A   1      -4.592  -0.805 132.760  0.00  0.00    -0.017 C 
ATOM     29  C   LIG A   1      -5.665  -0.191 133.299  0.00  0.00    +0.030 C 
ATOM     30  C   LIG A   1      -6.275   1.024 132.644  0.00  0.00    +0.051 C 
BRANCH  29  31
ATOM     31  C   LIG A   1      -6.334  -0.691 134.542  0.00  0.00    +0.334 C 
ATOM     32  O   LIG A   1      -6.015  -0.426 135.680  0.00  0.00    -0.245 OA
BRANCH  31  33
ATOM     33  O   LIG A   1      -7.273  -1.600 134.160  0.00  0.00    -0.465 OA
ATOM     34  C   LIG A   1      -7.213  -2.868 134.808  0.00  0.00    +0.280 C 
ENDBRANCH  31  33
ENDBRANCH  29  31
ENDBRANCH  27  28
ENDBRANCH  26  27
ENDBRANCH  24  26
ENDBRANCH  13  24
BRANCH  20  35
ATOM     35  O   LIG A   1     -10.926   0.418 122.413  0.00  0.00    -0.409 OA
ATOM     36  H   LIG A   1     -10.874  -0.550 122.303  0.00  0.00    +0.328 HD
ENDBRANCH  20  35
TORSDOF 7
ENDMDL
MODEL 3
REMARK VINA RESULT:      -8.0      5.925      9.782
REMARK  Name = NuBBE_1044
REMARK  15 active torsions:
REMARK  status: ('A' for Active; 'I' for Inactive)
REMARK    1  A    between atoms: C_1  and  C_2
REMARK    2  A    between atoms: C_8  and  C_31
REMARK    3  A    between atoms: C_13  and  C_14
REMARK    4  A    between atoms: C_15  and  C_19
REMARK    5  A    between atoms: C_19  and  C_21
REMARK    6  A    between atoms: C_19  and  C_30
REMARK    7  A    between atoms: C_21  and  C_22
REMARK    8  A    between atoms: C_22  and  C_23
REMARK    9  A    between atoms: C_24  and  C_25
REMARK   10  A    between atoms: C_24  and  C_29
REMARK   11  A    between atoms: C_25  and  O_27
REMARK   12  A    between atoms: O_27  and  C_28
REMARK   13  A    between atoms: N_35  and  O_36
REMARK   14  A    between atoms: C_37  and  C_38
REMARK   15  A    between atoms: C_37  and  C_39
REMARK                            x       y       z     vdW  Elec       q    Type
REMARK                         _______ _______ _______ _____ _____    ______ ____
ROOT
ATOM      1  C   LIG A   1      -3.498  -1.564 130.828  0.00  0.00    +0.016 C 
ATOM      2  C   LIG A   1      -4.901  -2.164 131.092  0.00  0.00    -0.005 C 
ATOM      3  C   LIG A   1      -4.858  -2.699 132.548  0.00  0.00    -0.063 C 
ATOM      4  C   LIG A   1      -5.260  -2.005 133.628  0.00  0.00    -0.026 C 
ATOM      5  C   LIG A   1      -5.019  -2.442 135.034  0.00  0.00    +0.032 C 
ATOM      6  C   LIG A   1      -3.765  -3.322 135.191  0.00  0.00    +0.011 C 
ATOM      7  C   LIG A   1      -3.822  -4.523 134.172  0.00  0.00    -0.021 C 
ATOM      8  C   LIG A   1      -4.209  -4.064 132.698  0.00  0.00    +0.021 C 
ATOM      9  C   LIG A   1      -5.110  -5.033 131.915  0.00  0.00    +0.009 C 
ATOM     10  C   LIG A   1      -5.083  -4.715 130.417  0.00  0.00    +0.008 C 
ATOM     11  C   LIG A   1      -5.383  -3.241 130.008  0.00  0.00    -0.020 C 
ATOM     12  C   LIG A   1      -4.616  -3.008 128.675  0.00  0.00    +0.012 C 
ATOM     13  C   LIG A   1      -6.976  -3.007 129.869  0.00  0.00    -0.001 C 
ATOM     14  C   LIG A   1      -7.251  -1.778 130.762  0.00  0.00    +0.005 C 
ATOM     15  C   LIG A   1      -5.931  -1.044 130.865  0.00  0.00    +0.012 C 
ATOM     16  C   LIG A   1      -4.848  -5.546 134.741  0.00  0.00    +0.012 C 
ATOM     17  C   LIG A   1      -2.435  -5.244 134.117  0.00  0.00    +0.013 C 
ATOM     18  C   LIG A   1      -1.609  -5.062 135.384  0.00  0.00    +0.055 C 
ATOM     19  C   LIG A   1      -1.264  -3.590 135.540  0.00  0.00    +0.063 C 
ATOM     20  N   LIG A   1      -0.087  -3.144 135.878  0.00  0.00    -0.096 NA
ATOM     21  C   LIG A   1      -2.386  -2.559 135.265  0.00  0.00    +0.010 C 
ATOM     22  C   LIG A   1      -2.402  -1.546 136.436  0.00  0.00    +0.017 C 
ATOM     23  C   LIG A   1      -1.993  -1.788 134.001  0.00  0.00    +0.017 C 
ENDROOT
BRANCH  13  24
ATOM     24  C   LIG A   1      -7.582  -2.856 128.416  0.00  0.00    -0.010 C 
ATOM     25  C   LIG A   1      -8.838  -3.728 128.227  0.00  0.00    +0.008 C 
BRANCH  24  26
ATOM     26  C   LIG A   1      -7.985  -1.390 128.040  0.00  0.00    +0.007 C 
BRANCH  26  27
ATOM     27  C   LIG A   1      -7.986  -1.108 126.525  0.00  0.00    +0.028 C 
BRANCH  27  28
ATOM     28  C   LIG A   1      -6.729  -1.596 125.846  0.00  0.00    -0.017 C 
ATOM     29  C   LIG A   1      -6.605  -2.512 124.865  0.00  0.00    +0.030 C 
ATOM     30  C   LIG A   1      -5.246  -2.944 124.372  0.00  0.00    +0.051 C 
BRANCH  29  31
ATOM     31  C   LIG A   1      -7.790  -3.181 124.238  0.00  0.00    +0.334 C 
ATOM     32  O   LIG A   1      -8.385  -4.139 124.680  0.00  0.00    -0.245 OA
BRANCH  31  33
ATOM     33  O   LIG A   1      -7.985  -2.603 123.020  0.00  0.00    -0.465 OA
ATOM     34  C   LIG A   1      -8.997  -1.601 122.962  0.00  0.00    +0.280 C 
ENDBRANCH  31  33
ENDBRANCH  29  31
ENDBRANCH  27  28
ENDBRANCH  26  27
ENDBRANCH  24  26
ENDBRANCH  13  24
BRANCH  20  35
ATOM     35  O   LIG A   1       0.832  -4.170 136.099  0.00  0.00    -0.409 OA
ATOM     36  H   LIG A   1       0.928  -4.557 135.208  0.00  0.00    +0.328 HD
ENDBRANCH  20  35
TORSDOF 7
ENDMDL
MODEL 4
REMARK VINA RESULT:      -7.9      9.030     14.140
REMARK  Name = NuBBE_1044
REMARK  15 active torsions:
REMARK  status: ('A' for Active; 'I' for Inactive)
REMARK    1  A    between atoms: C_1  and  C_2
REMARK    2  A    between atoms: C_8  and  C_31
REMARK    3  A    between atoms: C_13  and  C_14
REMARK    4  A    between atoms: C_15  and  C_19
REMARK    5  A    between atoms: C_19  and  C_21
REMARK    6  A    between atoms: C_19  and  C_30
REMARK    7  A    between atoms: C_21  and  C_22
REMARK    8  A    between atoms: C_22  and  C_23
REMARK    9  A    between atoms: C_24  and  C_25
REMARK   10  A    between atoms: C_24  and  C_29
REMARK   11  A    between atoms: C_25  and  O_27
REMARK   12  A    between atoms: O_27  and  C_28
REMARK   13  A    between atoms: N_35  and  O_36
REMARK   14  A    between atoms: C_37  and  C_38
REMARK   15  A    between atoms: C_37  and  C_39
REMARK                            x       y       z     vdW  Elec       q    Type
REMARK                         _______ _______ _______ _____ _____    ______ ____
ROOT
ATOM      1  C   LIG A   1       0.735   8.921 135.809  0.00  0.00    +0.016 C 
ATOM      2  C   LIG A   1      -0.241   8.838 134.610  0.00  0.00    -0.005 C 
ATOM      3  C   LIG A   1      -0.287  10.268 134.011  0.00  0.00    -0.063 C 
ATOM      4  C   LIG A   1       0.483  10.695 132.994  0.00  0.00    -0.026 C 
ATOM      5  C   LIG A   1       0.583  12.122 132.568  0.00  0.00    +0.032 C 
ATOM      6  C   LIG A   1       0.313  13.118 133.711  0.00  0.00    +0.011 C 
ATOM      7  C   LIG A   1      -1.059  12.775 134.408  0.00  0.00    -0.021 C 
ATOM      8  C   LIG A   1      -1.212  11.227 134.741  0.00  0.00    +0.021 C 
ATOM      9  C   LIG A   1      -2.625  10.645 134.565  0.00  0.00    +0.009 C 
ATOM     10  C   LIG A   1      -2.757   9.300 135.284  0.00  0.00    +0.008 C 
ATOM     11  C   LIG A   1      -1.679   8.222 134.958  0.00  0.00    -0.020 C 
ATOM     12  C   LIG A   1      -1.565   7.339 136.234  0.00  0.00    +0.012 C 
ATOM     13  C   LIG A   1      -2.101   7.381 133.644  0.00  0.00    -0.001 C 
ATOM     14  C   LIG A   1      -0.863   7.479 132.726  0.00  0.00    +0.005 C 
ATOM     15  C   LIG A   1       0.304   7.771 133.645  0.00  0.00    +0.012 C 
ATOM     16  C   LIG A   1      -2.184  13.270 133.452  0.00  0.00    +0.012 C 
ATOM     17  C   LIG A   1      -1.199  13.583 135.740  0.00  0.00    +0.013 C 
ATOM     18  C   LIG A   1      -0.374  14.864 135.759  0.00  0.00    +0.055 C 
ATOM     19  C   LIG A   1       1.101  14.502 135.690  0.00  0.00    +0.063 C 
ATOM     20  N   LIG A   1       2.027  15.051 136.424  0.00  0.00    -0.096 NA
ATOM     21  C   LIG A   1       1.519  13.397 134.688  0.00  0.00    +0.010 C 
ATOM     22  C   LIG A   1       2.741  13.914 133.890  0.00  0.00    +0.017 C 
ATOM     23  C   LIG A   1       1.991  12.194 135.512  0.00  0.00    +0.017 C 
ENDROOT
BRANCH  13  24
ATOM     24  C   LIG A   1      -2.602   5.895 133.841  0.00  0.00    -0.010 C 
ATOM     25  C   LIG A   1      -4.140   5.808 133.863  0.00  0.00    +0.008 C 
BRANCH  24  26
ATOM     26  C   LIG A   1      -2.106   4.901 132.737  0.00  0.00    +0.007 C 
BRANCH  26  27
ATOM     27  C   LIG A   1      -3.108   4.691 131.584  0.00  0.00    +0.028 C 
BRANCH  27  28
ATOM     28  C   LIG A   1      -2.589   5.218 130.267  0.00  0.00    -0.017 C 
ATOM     29  C   LIG A   1      -2.944   6.342 129.614  0.00  0.00    +0.030 C 
ATOM     30  C   LIG A   1      -2.381   6.659 128.250  0.00  0.00    +0.051 C 
BRANCH  29  31
ATOM     31  C   LIG A   1      -3.937   7.315 130.172  0.00  0.00    +0.334 C 
ATOM     32  O   LIG A   1      -3.679   8.295 130.837  0.00  0.00    -0.245 OA
BRANCH  31  33
ATOM     33  O   LIG A   1      -5.179   6.821 129.914  0.00  0.00    -0.465 OA
ATOM     34  C   LIG A   1      -6.137   6.968 130.959  0.00  0.00    +0.280 C 
ENDBRANCH  31  33
ENDBRANCH  29  31
ENDBRANCH  27  28
ENDBRANCH  26  27
ENDBRANCH  24  26
ENDBRANCH  13  24
BRANCH  20  35
ATOM     35  O   LIG A   1       1.521  16.029 137.280  0.00  0.00    -0.409 OA
ATOM     36  H   LIG A   1       2.326  16.343 137.733  0.00  0.00    +0.328 HD
ENDBRANCH  20  35
TORSDOF 7
ENDMDL
MODEL 5
REMARK VINA RESULT:      -7.7      5.021      9.722
REMARK  Name = NuBBE_1044
REMARK  15 active torsions:
REMARK  status: ('A' for Active; 'I' for Inactive)
REMARK    1  A    between atoms: C_1  and  C_2
REMARK    2  A    between atoms: C_8  and  C_31
REMARK    3  A    between atoms: C_13  and  C_14
REMARK    4  A    between atoms: C_15  and  C_19
REMARK    5  A    between atoms: C_19  and  C_21
REMARK    6  A    between atoms: C_19  and  C_30
REMARK    7  A    between atoms: C_21  and  C_22
REMARK    8  A    between atoms: C_22  and  C_23
REMARK    9  A    between atoms: C_24  and  C_25
REMARK   10  A    between atoms: C_24  and  C_29
REMARK   11  A    between atoms: C_25  and  O_27
REMARK   12  A    between atoms: O_27  and  C_28
REMARK   13  A    between atoms: N_35  and  O_36
REMARK   14  A    between atoms: C_37  and  C_38
REMARK   15  A    between atoms: C_37  and  C_39
REMARK                            x       y       z     vdW  Elec       q    Type
REMARK                         _______ _______ _______ _____ _____    ______ ____
ROOT
ATOM      1  C   LIG A   1      -6.004  -0.017 134.040  0.00  0.00    +0.016 C 
ATOM      2  C   LIG A   1      -6.294   0.079 132.522  0.00  0.00    -0.005 C 
ATOM      3  C   LIG A   1      -6.540   1.584 132.239  0.00  0.00    -0.063 C 
ATOM      4  C   LIG A   1      -5.594   2.448 131.828  0.00  0.00    -0.026 C 
ATOM      5  C   LIG A   1      -5.788   3.926 131.764  0.00  0.00    +0.032 C 
ATOM      6  C   LIG A   1      -6.823   4.448 132.778  0.00  0.00    +0.011 C 
ATOM      7  C   LIG A   1      -8.169   3.640 132.634  0.00  0.00    -0.021 C 
ATOM      8  C   LIG A   1      -7.941   2.066 132.571  0.00  0.00    +0.021 C 
ATOM      9  C   LIG A   1      -8.873   1.296 131.621  0.00  0.00    +0.009 C 
ATOM     10  C   LIG A   1      -8.857  -0.202 131.934  0.00  0.00    +0.008 C 
ATOM     11  C   LIG A   1      -7.459  -0.889 132.000  0.00  0.00    -0.020 C 
ATOM     12  C   LIG A   1      -7.620  -2.080 132.989  0.00  0.00    +0.012 C 
ATOM     13  C   LIG A   1      -6.987  -1.352 130.526  0.00  0.00    -0.001 C 
ATOM     14  C   LIG A   1      -5.581  -0.732 130.373  0.00  0.00    +0.005 C 
ATOM     15  C   LIG A   1      -5.078  -0.508 131.783  0.00  0.00    +0.012 C 
ATOM     16  C   LIG A   1      -8.874   4.168 131.350  0.00  0.00    +0.012 C 
ATOM     17  C   LIG A   1      -9.114   3.955 133.840  0.00  0.00    +0.013 C 
ATOM     18  C   LIG A   1      -8.837   5.306 134.488  0.00  0.00    +0.055 C 
ATOM     19  C   LIG A   1      -7.443   5.285 135.094  0.00  0.00    +0.063 C 
ATOM     20  N   LIG A   1      -7.149   5.756 136.273  0.00  0.00    -0.096 NA
ATOM     21  C   LIG A   1      -6.308   4.649 134.255  0.00  0.00    +0.010 C 
ATOM     22  C   LIG A   1      -5.102   5.620 134.269  0.00  0.00    +0.017 C 
ATOM     23  C   LIG A   1      -5.871   3.372 134.980  0.00  0.00    +0.017 C 
ENDROOT
BRANCH  13  24
ATOM     24  C   LIG A   1      -7.015  -2.896 130.187  0.00  0.00    -0.010 C 
ATOM     25  C   LIG A   1      -8.218  -3.265 129.297  0.00  0.00    +0.008 C 
BRANCH  24  26
ATOM     26  C   LIG A   1      -5.732  -3.414 129.454  0.00  0.00    +0.007 C 
BRANCH  26  27
ATOM     27  C   LIG A   1      -4.808  -4.276 130.337  0.00  0.00    +0.028 C 
BRANCH  27  28
ATOM     28  C   LIG A   1      -5.505  -4.784 131.576  0.00  0.00    -0.017 C 
ATOM     29  C   LIG A   1      -5.061  -4.785 132.850  0.00  0.00    +0.030 C 
ATOM     30  C   LIG A   1      -5.866  -5.427 133.953  0.00  0.00    +0.051 C 
BRANCH  29  31
ATOM     31  C   LIG A   1      -3.740  -4.194 133.239  0.00  0.00    +0.334 C 
ATOM     32  O   LIG A   1      -2.651  -4.680 133.027  0.00  0.00    -0.245 OA
BRANCH  31  33
ATOM     33  O   LIG A   1      -3.996  -3.087 133.990  0.00  0.00    -0.465 OA
ATOM     34  C   LIG A   1      -2.889  -2.219 134.217  0.00  0.00    +0.280 C 
ENDBRANCH  31  33
ENDBRANCH  29  31
ENDBRANCH  27  28
ENDBRANCH  26  27
ENDBRANCH  24  26
ENDBRANCH  13  24
BRANCH  20  35
ATOM     35  O   LIG A   1      -8.256   6.302 136.923  0.00  0.00    -0.409 OA
ATOM     36  H   LIG A   1      -8.760   6.690 136.182  0.00  0.00    +0.328 HD
ENDBRANCH  20  35
TORSDOF 7
ENDMDL
MODEL 6
REMARK VINA RESULT:      -7.6      1.786      2.578
REMARK  Name = NuBBE_1044
REMARK  15 active torsions:
REMARK  status: ('A' for Active; 'I' for Inactive)
REMARK    1  A    between atoms: C_1  and  C_2
REMARK    2  A    between atoms: C_8  and  C_31
REMARK    3  A    between atoms: C_13  and  C_14
REMARK    4  A    between atoms: C_15  and  C_19
REMARK    5  A    between atoms: C_19  and  C_21
REMARK    6  A    between atoms: C_19  and  C_30
REMARK    7  A    between atoms: C_21  and  C_22
REMARK    8  A    between atoms: C_22  and  C_23
REMARK    9  A    between atoms: C_24  and  C_25
REMARK   10  A    between atoms: C_24  and  C_29
REMARK   11  A    between atoms: C_25  and  O_27
REMARK   12  A    between atoms: O_27  and  C_28
REMARK   13  A    between atoms: N_35  and  O_36
REMARK   14  A    between atoms: C_37  and  C_38
REMARK   15  A    between atoms: C_37  and  C_39
REMARK                            x       y       z     vdW  Elec       q    Type
REMARK                         _______ _______ _______ _____ _____    ______ ____
ROOT
ATOM      1  C   LIG A   1      -8.891   2.437 128.739  0.00  0.00    +0.016 C 
ATOM      2  C   LIG A   1      -8.135   2.315 130.085  0.00  0.00    -0.005 C 
ATOM      3  C   LIG A   1      -7.282   1.024 129.968  0.00  0.00    -0.063 C 
ATOM      4  C   LIG A   1      -5.999   0.991 129.565  0.00  0.00    -0.026 C 
ATOM      5  C   LIG A   1      -5.258  -0.266 129.253  0.00  0.00    +0.032 C 
ATOM      6  C   LIG A   1      -6.173  -1.411 128.780  0.00  0.00    +0.011 C 
ATOM      7  C   LIG A   1      -7.343  -1.623 129.814  0.00  0.00    -0.021 C 
ATOM      8  C   LIG A   1      -8.044  -0.260 130.242  0.00  0.00    +0.021 C 
ATOM      9  C   LIG A   1      -8.481  -0.170 131.713  0.00  0.00    +0.009 C 
ATOM     10  C   LIG A   1      -9.484   0.968 131.918  0.00  0.00    +0.008 C 
ATOM     11  C   LIG A   1      -9.068   2.373 131.386  0.00  0.00    -0.020 C 
ATOM     12  C   LIG A   1     -10.396   3.102 131.034  0.00  0.00    +0.012 C 
ATOM     13  C   LIG A   1      -8.191   3.159 132.493  0.00  0.00    -0.001 C 
ATOM     14  C   LIG A   1      -6.917   3.580 131.728  0.00  0.00    +0.005 C 
ATOM     15  C   LIG A   1      -7.306   3.599 130.266  0.00  0.00    +0.012 C 
ATOM     16  C   LIG A   1      -6.730  -2.361 131.041  0.00  0.00    +0.012 C 
ATOM     17  C   LIG A   1      -8.430  -2.569 129.205  0.00  0.00    +0.013 C 
ATOM     18  C   LIG A   1      -7.889  -3.493 128.122  0.00  0.00    +0.055 C 
ATOM     19  C   LIG A   1      -7.416  -2.653 126.947  0.00  0.00    +0.063 C 
ATOM     20  N   LIG A   1      -7.659  -2.935 125.698  0.00  0.00    -0.096 NA
ATOM     21  C   LIG A   1      -6.605  -1.372 127.264  0.00  0.00    +0.010 C 
ATOM     22  C   LIG A   1      -5.353  -1.362 126.354  0.00  0.00    +0.017 C 
ATOM     23  C   LIG A   1      -7.472  -0.176 126.857  0.00  0.00    +0.017 C 
ENDROOT
BRANCH  13  24
ATOM     24  C   LIG A   1      -8.869   4.362 133.263  0.00  0.00    -0.010 C 
ATOM     25  C   LIG A   1      -8.486   4.375 134.755  0.00  0.00    +0.008 C 
BRANCH  24  26
ATOM     26  C   LIG A   1      -8.509   5.774 132.688  0.00  0.00    +0.007 C 
BRANCH  26  27
ATOM     27  C   LIG A   1      -9.611   6.392 131.805  0.00  0.00    +0.028 C 
BRANCH  27  28
ATOM     28  C   LIG A   1      -9.287   6.304 130.333  0.00  0.00    -0.017 C 
ATOM     29  C   LIG A   1     -10.087   6.565 129.279  0.00  0.00    +0.030 C 
ATOM     30  C   LIG A   1      -9.613   6.328 127.866  0.00  0.00    +0.051 C 
BRANCH  29  31
ATOM     31  C   LIG A   1     -11.491   7.061 129.442  0.00  0.00    +0.334 C 
ATOM     32  O   LIG A   1     -11.881   7.836 130.288  0.00  0.00    -0.245 OA
BRANCH  31  33
ATOM     33  O   LIG A   1     -12.268   6.377 128.557  0.00  0.00    -0.465 OA
ATOM     34  C   LIG A   1     -13.619   6.816 128.446  0.00  0.00    +0.280 C 
ENDBRANCH  31  33
ENDBRANCH  29  31
ENDBRANCH  27  28
ENDBRANCH  26  27
ENDBRANCH  24  26
ENDBRANCH  13  24
BRANCH  20  35
ATOM     35  O   LIG A   1      -8.394  -4.112 125.548  0.00  0.00    -0.409 OA
ATOM     36  H   LIG A   1      -9.297  -3.822 125.781  0.00  0.00    +0.328 HD
ENDBRANCH  20  35
TORSDOF 7
ENDMDL
MODEL 7
REMARK VINA RESULT:      -7.6      3.906      8.542
REMARK  Name = NuBBE_1044
REMARK  15 active torsions:
REMARK  status: ('A' for Active; 'I' for Inactive)
REMARK    1  A    between atoms: C_1  and  C_2
REMARK    2  A    between atoms: C_8  and  C_31
REMARK    3  A    between atoms: C_13  and  C_14
REMARK    4  A    between atoms: C_15  and  C_19
REMARK    5  A    between atoms: C_19  and  C_21
REMARK    6  A    between atoms: C_19  and  C_30
REMARK    7  A    between atoms: C_21  and  C_22
REMARK    8  A    between atoms: C_22  and  C_23
REMARK    9  A    between atoms: C_24  and  C_25
REMARK   10  A    between atoms: C_24  and  C_29
REMARK   11  A    between atoms: C_25  and  O_27
REMARK   12  A    between atoms: O_27  and  C_28
REMARK   13  A    between atoms: N_35  and  O_36
REMARK   14  A    between atoms: C_37  and  C_38
REMARK   15  A    between atoms: C_37  and  C_39
REMARK                            x       y       z     vdW  Elec       q    Type
REMARK                         _______ _______ _______ _____ _____    ______ ____
ROOT
ATOM      1  C   LIG A   1      -4.293   1.266 128.873  0.00  0.00    +0.016 C 
ATOM      2  C   LIG A   1      -5.254   0.840 130.010  0.00  0.00    -0.005 C 
ATOM      3  C   LIG A   1      -5.206   1.990 131.050  0.00  0.00    -0.063 C 
ATOM      4  C   LIG A   1      -6.069   3.021 131.087  0.00  0.00    -0.026 C 
ATOM      5  C   LIG A   1      -5.890   4.225 131.950  0.00  0.00    +0.032 C 
ATOM      6  C   LIG A   1      -4.414   4.533 132.266  0.00  0.00    +0.011 C 
ATOM      7  C   LIG A   1      -3.711   3.247 132.845  0.00  0.00    -0.021 C 
ATOM      8  C   LIG A   1      -4.015   1.939 131.991  0.00  0.00    +0.021 C 
ATOM      9  C   LIG A   1      -4.189   0.643 132.799  0.00  0.00    +0.009 C 
ATOM     10  C   LIG A   1      -4.065  -0.587 131.894  0.00  0.00    +0.008 C 
ATOM     11  C   LIG A   1      -4.965  -0.613 130.622  0.00  0.00    -0.020 C 
ATOM     12  C   LIG A   1      -4.192  -1.467 129.576  0.00  0.00    +0.012 C 
ATOM     13  C   LIG A   1      -6.423  -1.214 130.973  0.00  0.00    -0.001 C 
ATOM     14  C   LIG A   1      -7.404  -0.146 130.443  0.00  0.00    +0.005 C 
ATOM     15  C   LIG A   1      -6.641   0.619 129.383  0.00  0.00    +0.012 C 
ATOM     16  C   LIG A   1      -4.195   3.095 134.317  0.00  0.00    +0.012 C 
ATOM     17  C   LIG A   1      -2.162   3.459 132.890  0.00  0.00    +0.013 C 
ATOM     18  C   LIG A   1      -1.755   4.925 132.963  0.00  0.00    +0.055 C 
ATOM     19  C   LIG A   1      -2.195   5.623 131.686  0.00  0.00    +0.063 C 
ATOM     20  N   LIG A   1      -1.456   6.461 131.016  0.00  0.00    -0.096 NA
ATOM     21  C   LIG A   1      -3.610   5.301 131.147  0.00  0.00    +0.010 C 
ATOM     22  C   LIG A   1      -4.311   6.640 130.813  0.00  0.00    +0.017 C 
ATOM     23  C   LIG A   1      -3.430   4.541 129.828  0.00  0.00    +0.017 C 
ENDROOT
BRANCH  13  24
ATOM     24  C   LIG A   1      -6.770  -2.670 130.464  0.00  0.00    -0.010 C 
ATOM     25  C   LIG A   1      -6.590  -3.723 131.575  0.00  0.00    +0.008 C 
BRANCH  24  26
ATOM     26  C   LIG A   1      -8.231  -2.827 129.921  0.00  0.00    +0.007 C 
BRANCH  26  27
ATOM     27  C   LIG A   1      -8.309  -3.212 128.431  0.00  0.00    +0.028 C 
BRANCH  27  28
ATOM     28  C   LIG A   1      -7.153  -2.660 127.631  0.00  0.00    -0.017 C 
ATOM     29  C   LIG A   1      -7.187  -1.853 126.552  0.00  0.00    +0.030 C 
ATOM     30  C   LIG A   1      -5.921  -1.477 125.822  0.00  0.00    +0.051 C 
BRANCH  29  31
ATOM     31  C   LIG A   1      -8.469  -1.317 125.991  0.00  0.00    +0.334 C 
ATOM     32  O   LIG A   1      -9.380  -1.976 125.539  0.00  0.00    -0.245 OA
BRANCH  31  33
ATOM     33  O   LIG A   1      -8.362   0.040 125.957  0.00  0.00    -0.465 OA
ATOM     34  C   LIG A   1      -9.587   0.758 125.843  0.00  0.00    +0.280 C 
ENDBRANCH  31  33
ENDBRANCH  29  31
ENDBRANCH  27  28
ENDBRANCH  26  27
ENDBRANCH  24  26
ENDBRANCH  13  24
BRANCH  20  35
ATOM     35  O   LIG A   1      -0.209   6.667 131.606  0.00  0.00    -0.409 OA
ATOM     36  H   LIG A   1       0.220   7.276 130.976  0.00  0.00    +0.328 HD
ENDBRANCH  20  35
TORSDOF 7
ENDMDL
MODEL 8
REMARK VINA RESULT:      -7.5      4.636      8.413
REMARK  Name = NuBBE_1044
REMARK  15 active torsions:
REMARK  status: ('A' for Active; 'I' for Inactive)
REMARK    1  A    between atoms: C_1  and  C_2
REMARK    2  A    between atoms: C_8  and  C_31
REMARK    3  A    between atoms: C_13  and  C_14
REMARK    4  A    between atoms: C_15  and  C_19
REMARK    5  A    between atoms: C_19  and  C_21
REMARK    6  A    between atoms: C_19  and  C_30
REMARK    7  A    between atoms: C_21  and  C_22
REMARK    8  A    between atoms: C_22  and  C_23
REMARK    9  A    between atoms: C_24  and  C_25
REMARK   10  A    between atoms: C_24  and  C_29
REMARK   11  A    between atoms: C_25  and  O_27
REMARK   12  A    between atoms: O_27  and  C_28
REMARK   13  A    between atoms: N_35  and  O_36
REMARK   14  A    between atoms: C_37  and  C_38
REMARK   15  A    between atoms: C_37  and  C_39
REMARK                            x       y       z     vdW  Elec       q    Type
REMARK                         _______ _______ _______ _____ _____    ______ ____
ROOT
ATOM      1  C   LIG A   1      -8.324  -1.582 130.217  0.00  0.00    +0.016 C 
ATOM      2  C   LIG A   1      -6.905  -1.734 129.616  0.00  0.00    -0.005 C 
ATOM      3  C   LIG A   1      -6.017  -2.265 130.772  0.00  0.00    -0.063 C 
ATOM      4  C   LIG A   1      -5.755  -3.564 130.999  0.00  0.00    -0.026 C 
ATOM      5  C   LIG A   1      -5.082  -4.075 132.229  0.00  0.00    +0.032 C 
ATOM      6  C   LIG A   1      -5.303  -3.177 133.461  0.00  0.00    +0.011 C 
ATOM      7  C   LIG A   1      -4.915  -1.689 133.116  0.00  0.00    -0.021 C 
ATOM      8  C   LIG A   1      -5.532  -1.195 131.735  0.00  0.00    +0.021 C 
ATOM      9  C   LIG A   1      -4.633  -0.270 130.898  0.00  0.00    +0.009 C 
ATOM     10  C   LIG A   1      -5.446   0.463 129.827  0.00  0.00    +0.008 C 
ATOM     11  C   LIG A   1      -6.336  -0.418 128.899  0.00  0.00    -0.020 C 
ATOM     12  C   LIG A   1      -7.526   0.488 128.470  0.00  0.00    +0.012 C 
ATOM     13  C   LIG A   1      -5.476  -0.966 127.646  0.00  0.00    -0.001 C 
ATOM     14  C   LIG A   1      -5.710  -2.492 127.671  0.00  0.00    +0.005 C 
ATOM     15  C   LIG A   1      -7.012  -2.693 128.417  0.00  0.00    +0.012 C 
ATOM     16  C   LIG A   1      -3.359  -1.621 133.105  0.00  0.00    +0.012 C 
ATOM     17  C   LIG A   1      -5.408  -0.732 134.249  0.00  0.00    +0.013 C 
ATOM     18  C   LIG A   1      -5.570  -1.423 135.597  0.00  0.00    +0.055 C 
ATOM     19  C   LIG A   1      -6.665  -2.472 135.484  0.00  0.00    +0.063 C 
ATOM     20  N   LIG A   1      -7.596  -2.659 136.376  0.00  0.00    -0.096 NA
ATOM     21  C   LIG A   1      -6.673  -3.364 134.218  0.00  0.00    +0.010 C 
ATOM     22  C   LIG A   1      -6.835  -4.835 134.672  0.00  0.00    +0.017 C 
ATOM     23  C   LIG A   1      -7.925  -2.995 133.414  0.00  0.00    +0.017 C 
ENDROOT
BRANCH  13  24
ATOM     24  C   LIG A   1      -5.745  -0.329 126.223  0.00  0.00    -0.010 C 
ATOM     25  C   LIG A   1      -4.908   0.945 126.000  0.00  0.00    +0.008 C 
BRANCH  24  26
ATOM     26  C   LIG A   1      -5.441  -1.289 125.024  0.00  0.00    +0.007 C 
BRANCH  26  27
ATOM     27  C   LIG A   1      -6.392  -1.115 123.823  0.00  0.00    +0.028 C 
BRANCH  27  28
ATOM     28  C   LIG A   1      -7.365  -2.262 123.688  0.00  0.00    -0.017 C 
ATOM     29  C   LIG A   1      -8.711  -2.219 123.625  0.00  0.00    +0.030 C 
ATOM     30  C   LIG A   1      -9.529  -3.486 123.585  0.00  0.00    +0.051 C 
BRANCH  29  31
ATOM     31  C   LIG A   1      -9.473  -0.929 123.633  0.00  0.00    +0.334 C 
ATOM     32  O   LIG A   1      -9.837  -0.309 122.658  0.00  0.00    -0.245 OA
BRANCH  31  33
ATOM     33  O   LIG A   1      -9.559  -0.516 124.928  0.00  0.00    -0.465 OA
ATOM     34  C   LIG A   1      -9.323   0.871 125.156  0.00  0.00    +0.280 C 
ENDBRANCH  31  33
ENDBRANCH  29  31
ENDBRANCH  27  28
ENDBRANCH  26  27
ENDBRANCH  24  26
ENDBRANCH  13  24
BRANCH  20  35
ATOM     35  O   LIG A   1      -7.476  -1.796 137.466  0.00  0.00    -0.409 OA
ATOM     36  H   LIG A   1      -8.407  -1.583 137.664  0.00  0.00    +0.328 HD
ENDBRANCH  20  35
TORSDOF 7
ENDMDL
MODEL 9
REMARK VINA RESULT:      -7.3      2.261      2.837
REMARK  Name = NuBBE_1044
REMARK  15 active torsions:
REMARK  status: ('A' for Active; 'I' for Inactive)
REMARK    1  A    between atoms: C_1  and  C_2
REMARK    2  A    between atoms: C_8  and  C_31
REMARK    3  A    between atoms: C_13  and  C_14
REMARK    4  A    between atoms: C_15  and  C_19
REMARK    5  A    between atoms: C_19  and  C_21
REMARK    6  A    between atoms: C_19  and  C_30
REMARK    7  A    between atoms: C_21  and  C_22
REMARK    8  A    between atoms: C_22  and  C_23
REMARK    9  A    between atoms: C_24  and  C_25
REMARK   10  A    between atoms: C_24  and  C_29
REMARK   11  A    between atoms: C_25  and  O_27
REMARK   12  A    between atoms: O_27  and  C_28
REMARK   13  A    between atoms: N_35  and  O_36
REMARK   14  A    between atoms: C_37  and  C_38
REMARK   15  A    between atoms: C_37  and  C_39
REMARK                            x       y       z     vdW  Elec       q    Type
REMARK                         _______ _______ _______ _____ _____    ______ ____
ROOT
ATOM      1  C   LIG A   1      -8.634   2.116 128.044  0.00  0.00    +0.016 C 
ATOM      2  C   LIG A   1      -7.454   1.643 128.929  0.00  0.00    -0.005 C 
ATOM      3  C   LIG A   1      -6.871   0.397 128.213  0.00  0.00    -0.063 C 
ATOM      4  C   LIG A   1      -5.843   0.426 127.346  0.00  0.00    -0.026 C 
ATOM      5  C   LIG A   1      -5.429  -0.736 126.506  0.00  0.00    +0.032 C 
ATOM      6  C   LIG A   1      -6.588  -1.701 126.190  0.00  0.00    +0.011 C 
ATOM      7  C   LIG A   1      -7.309  -2.128 127.525  0.00  0.00    -0.021 C 
ATOM      8  C   LIG A   1      -7.629  -0.893 128.476  0.00  0.00    +0.021 C 
ATOM      9  C   LIG A   1      -7.476  -1.156 129.983  0.00  0.00    +0.009 C 
ATOM     10  C   LIG A   1      -8.184  -0.074 130.803  0.00  0.00    +0.008 C 
ATOM     11  C   LIG A   1      -7.825   1.405 130.469  0.00  0.00    -0.020 C 
ATOM     12  C   LIG A   1      -9.089   2.238 130.829  0.00  0.00    +0.012 C 
ATOM     13  C   LIG A   1      -6.512   1.867 131.290  0.00  0.00    -0.001 C 
ATOM     14  C   LIG A   1      -5.570   2.426 130.201  0.00  0.00    +0.005 C 
ATOM     15  C   LIG A   1      -6.467   2.818 129.047  0.00  0.00    +0.012 C 
ATOM     16  C   LIG A   1      -6.381  -3.164 128.225  0.00  0.00    +0.012 C 
ATOM     17  C   LIG A   1      -8.651  -2.861 127.197  0.00  0.00    +0.013 C 
ATOM     18  C   LIG A   1      -8.667  -3.504 125.817  0.00  0.00    +0.055 C 
ATOM     19  C   LIG A   1      -8.563  -2.414 124.763  0.00  0.00    +0.063 C 
ATOM     20  N   LIG A   1      -9.284  -2.371 123.678  0.00  0.00    -0.096 NA
ATOM     21  C   LIG A   1      -7.543  -1.276 125.009  0.00  0.00    +0.010 C 
ATOM     22  C   LIG A   1      -6.725  -1.078 123.709  0.00  0.00    +0.017 C 
ATOM     23  C   LIG A   1      -8.345   0.009 125.241  0.00  0.00    +0.017 C 
ENDROOT
BRANCH  13  24
ATOM     24  C   LIG A   1      -6.704   2.862 132.504  0.00  0.00    -0.010 C 
ATOM     25  C   LIG A   1      -6.870   2.110 133.838  0.00  0.00    +0.008 C 
BRANCH  24  26
ATOM     26  C   LIG A   1      -5.523   3.873 132.695  0.00  0.00    +0.007 C 
BRANCH  26  27
ATOM     27  C   LIG A   1      -5.957   5.352 132.697  0.00  0.00    +0.028 C 
BRANCH  27  28
ATOM     28  C   LIG A   1      -4.820   6.286 133.038  0.00  0.00    -0.017 C 
ATOM     29  C   LIG A   1      -3.850   6.758 132.231  0.00  0.00    +0.030 C 
ATOM     30  C   LIG A   1      -2.733   7.615 132.776  0.00  0.00    +0.051 C 
BRANCH  29  31
ATOM     31  C   LIG A   1      -3.794   6.435 130.769  0.00  0.00    +0.334 C 
ATOM     32  O   LIG A   1      -3.119   5.571 130.255  0.00  0.00    -0.245 OA
BRANCH  31  33
ATOM     33  O   LIG A   1      -4.532   7.376 130.117  0.00  0.00    -0.465 OA
ATOM     34  C   LIG A   1      -3.798   8.295 129.313  0.00  0.00    +0.280 C 
ENDBRANCH  31  33
ENDBRANCH  29  31
ENDBRANCH  27  28
ENDBRANCH  26  27
ENDBRANCH  24  26
ENDBRANCH  13  24
BRANCH  20  35
ATOM     35  O   LIG A   1     -10.161  -3.452 123.575  0.00  0.00    -0.409 OA
ATOM     36  H   LIG A   1     -10.870  -3.203 124.197  0.00  0.00    +0.328 HD
ENDBRANCH  20  35
TORSDOF 7
ENDMDL
