MODEL 1
REMARK VINA RESULT:      -9.6      0.000      0.000
REMARK  Name = NuBBE_2418
REMARK  12 active torsions:
REMARK  status: ('A' for Active; 'I' for Inactive)
REMARK    1  A    between atoms: O_1  and  C_2
REMARK    2  A    between atoms: O_1  and  C_3
REMARK    3  A    between atoms: C_4  and  C_32
REMARK    4  A    between atoms: C_7  and  O_10
REMARK    5  A    between atoms: C_8  and  O_9
REMARK    6  A    between atoms: O_10  and  C_11
REMARK    7  A    between atoms: C_12  and  O_13
REMARK    8  A    between atoms: C_14  and  O_15
REMARK    9  A    between atoms: O_15  and  C_16
REMARK   10  A    between atoms: C_17  and  C_20
REMARK   11  A    between atoms: C_28  and  O_31
REMARK   12  A    between atoms: C_40  and  O_43
REMARK                            x       y       z     vdW  Elec       q    Type
REMARK                         _______ _______ _______ _____ _____    ______ ____
ROOT
ATOM      1  O   LIG A   1      -6.349   1.957 128.795  0.00  0.00    -0.448 OA
ENDROOT
BRANCH   1   6
ATOM      2  C   LIG A   1      -8.669   3.624 131.277  0.00  0.00    +0.169 A 
ATOM      3  C   LIG A   1      -8.819   4.944 130.756  0.00  0.00    +0.005 A 
ATOM      4  C   LIG A   1      -8.036   5.190 129.608  0.00  0.00    +0.011 A 
ATOM      5  C   LIG A   1      -7.217   4.202 128.957  0.00  0.00    +0.050 A 
ATOM      6  C   LIG A   1      -7.082   2.907 129.520  0.00  0.00    +0.173 A 
ATOM      7  C   LIG A   1      -7.687   2.725 130.699  0.00  0.00    +0.202 A 
BRANCH   3   8
ATOM      8  C   LIG A   1      -9.753   6.090 131.300  0.00  0.00    +0.065 C 
ATOM      9  C   LIG A   1      -9.694   7.470 130.616  0.00  0.00    +0.050 C 
ATOM     10  C   LIG A   1     -10.642   7.529 129.456  0.00  0.00    -0.005 A 
ATOM     11  C   LIG A   1     -11.802   6.749 129.454  0.00  0.00    +0.127 A 
ATOM     12  O   LIG A   1     -12.191   5.968 130.504  0.00  0.00    -0.491 OA
ATOM     13  C   LIG A   1     -11.261   5.827 131.586  0.00  0.00    +0.237 C 
ATOM     14  C   LIG A   1     -12.525   6.572 128.272  0.00  0.00    +0.091 A 
ATOM     15  C   LIG A   1     -12.036   7.125 127.092  0.00  0.00    +0.120 A 
ATOM     16  C   LIG A   1     -10.949   7.986 127.101  0.00  0.00    +0.046 A 
ATOM     17  C   LIG A   1     -10.268   8.216 128.293  0.00  0.00    +0.011 A 
BRANCH  15  18
ATOM     18  O   LIG A   1     -12.515   6.724 125.878  0.00  0.00    -0.507 OA
ATOM     19  H   LIG A   1     -13.385   6.318 126.037  0.00  0.00    +0.292 HD
ENDBRANCH  15  18
ENDBRANCH   3   8
BRANCH   2  20
ATOM     20  O   LIG A   1      -9.540   3.217 132.261  0.00  0.00    -0.491 OA
ATOM     21  C   LIG A   1      -9.075   3.449 133.586  0.00  0.00    +0.277 C 
ENDBRANCH   2  20
BRANCH   7  22
ATOM     22  O   LIG A   1      -7.318   1.589 131.399  0.00  0.00    -0.501 OA
ATOM     23  H   LIG A   1      -6.412   1.367 131.136  0.00  0.00    +0.292 HD
ENDBRANCH   7  22
ENDBRANCH   1   6
BRANCH   1  24
ATOM     24  C   LIG A   1      -6.934   0.915 128.076  0.00  0.00    +0.173 A 
ATOM     25  C   LIG A   1      -7.166  -0.422 128.459  0.00  0.00    +0.202 A 
ATOM     26  C   LIG A   1      -7.831  -1.392 127.625  0.00  0.00    +0.169 A 
ATOM     27  C   LIG A   1      -8.383  -0.977 126.398  0.00  0.00    +0.005 A 
ATOM     28  C   LIG A   1      -8.119   0.362 126.026  0.00  0.00    +0.011 A 
ATOM     29  C   LIG A   1      -7.425   1.284 126.830  0.00  0.00    +0.050 A 
BRANCH  27  30
ATOM     30  C   LIG A   1      -9.298  -1.846 125.513  0.00  0.00    +0.065 C 
ATOM     31  C   LIG A   1      -9.003  -1.641 124.003  0.00  0.00    +0.050 C 
ATOM     32  C   LIG A   1      -7.703  -2.299 123.662  0.00  0.00    -0.005 A 
ATOM     33  C   LIG A   1      -7.304  -3.427 124.380  0.00  0.00    +0.127 A 
ATOM     34  O   LIG A   1      -8.073  -4.038 125.335  0.00  0.00    -0.491 OA
ATOM     35  C   LIG A   1      -9.281  -3.371 125.715  0.00  0.00    +0.237 C 
ATOM     36  C   LIG A   1      -6.007  -3.911 124.249  0.00  0.00    +0.091 A 
ATOM     37  C   LIG A   1      -5.129  -3.281 123.373  0.00  0.00    +0.120 A 
ATOM     38  C   LIG A   1      -5.547  -2.224 122.574  0.00  0.00    +0.046 A 
ATOM     39  C   LIG A   1      -6.842  -1.732 122.713  0.00  0.00    +0.011 A 
BRANCH  37  40
ATOM     40  O   LIG A   1      -3.822  -3.660 123.301  0.00  0.00    -0.507 OA
ATOM     41  H   LIG A   1      -3.747  -4.345 122.616  0.00  0.00    +0.292 HD
ENDBRANCH  37  40
ENDBRANCH  27  30
BRANCH  25  42
ATOM     42  O   LIG A   1      -6.680  -0.866 129.666  0.00  0.00    -0.501 OA
ATOM     43  H   LIG A   1      -7.160  -1.707 129.780  0.00  0.00    +0.292 HD
ENDBRANCH  25  42
BRANCH  26  44
ATOM     44  O   LIG A   1      -7.691  -2.693 128.049  0.00  0.00    -0.491 OA
ATOM     45  C   LIG A   1      -8.514  -3.277 129.049  0.00  0.00    +0.277 C 
ENDBRANCH  26  44
ENDBRANCH   1  24
TORSDOF 10
ENDMDL
MODEL 2
REMARK VINA RESULT:      -9.5      1.635      2.484
REMARK  Name = NuBBE_2418
REMARK  12 active torsions:
REMARK  status: ('A' for Active; 'I' for Inactive)
REMARK    1  A    between atoms: O_1  and  C_2
REMARK    2  A    between atoms: O_1  and  C_3
REMARK    3  A    between atoms: C_4  and  C_32
REMARK    4  A    between atoms: C_7  and  O_10
REMARK    5  A    between atoms: C_8  and  O_9
REMARK    6  A    between atoms: O_10  and  C_11
REMARK    7  A    between atoms: C_12  and  O_13
REMARK    8  A    between atoms: C_14  and  O_15
REMARK    9  A    between atoms: O_15  and  C_16
REMARK   10  A    between atoms: C_17  and  C_20
REMARK   11  A    between atoms: C_28  and  O_31
REMARK   12  A    between atoms: C_40  and  O_43
REMARK                            x       y       z     vdW  Elec       q    Type
REMARK                         _______ _______ _______ _____ _____    ______ ____
ROOT
ATOM      1  O   LIG A   1      -6.786   1.517 128.108  0.00  0.00    -0.448 OA
ENDROOT
BRANCH   1   6
ATOM      2  C   LIG A   1      -6.847   4.977 129.639  0.00  0.00    +0.169 A 
ATOM      3  C   LIG A   1      -8.149   5.062 130.216  0.00  0.00    +0.005 A 
ATOM      4  C   LIG A   1      -8.953   3.929 129.965  0.00  0.00    +0.011 A 
ATOM      5  C   LIG A   1      -8.502   2.754 129.266  0.00  0.00    +0.050 A 
ATOM      6  C   LIG A   1      -7.206   2.720 128.693  0.00  0.00    +0.173 A 
ATOM      7  C   LIG A   1      -6.506   3.856 128.783  0.00  0.00    +0.202 A 
BRANCH   3   8
ATOM      8  C   LIG A   1      -8.738   6.234 131.088  0.00  0.00    +0.065 C 
ATOM      9  C   LIG A   1      -8.972   7.601 130.416  0.00  0.00    +0.050 C 
ATOM     10  C   LIG A   1     -10.334   7.658 129.790  0.00  0.00    -0.005 A 
ATOM     11  C   LIG A   1     -11.384   6.900 130.317  0.00  0.00    +0.127 A 
ATOM     12  O   LIG A   1     -11.278   6.144 131.448  0.00  0.00    -0.491 OA
ATOM     13  C   LIG A   1      -9.969   6.004 132.014  0.00  0.00    +0.237 C 
ATOM     14  C   LIG A   1     -12.555   6.717 129.578  0.00  0.00    +0.091 A 
ATOM     15  C   LIG A   1     -12.630   7.240 128.291  0.00  0.00    +0.120 A 
ATOM     16  C   LIG A   1     -11.641   8.081 127.800  0.00  0.00    +0.046 A 
ATOM     17  C   LIG A   1     -10.503   8.318 128.566  0.00  0.00    +0.011 A 
BRANCH  15  18
ATOM     18  O   LIG A   1     -13.598   6.827 127.420  0.00  0.00    -0.507 OA
ATOM     19  H   LIG A   1     -14.455   7.003 127.847  0.00  0.00    +0.292 HD
ENDBRANCH  15  18
ENDBRANCH   3   8
BRANCH   2  20
ATOM     20  O   LIG A   1      -5.920   5.928 129.999  0.00  0.00    -0.491 OA
ATOM     21  C   LIG A   1      -5.079   5.544 131.082  0.00  0.00    +0.277 C 
ENDBRANCH   2  20
BRANCH   7  22
ATOM     22  O   LIG A   1      -5.384   3.941 127.976  0.00  0.00    -0.501 OA
ATOM     23  H   LIG A   1      -5.690   4.053 127.063  0.00  0.00    +0.292 HD
ENDBRANCH   7  22
ENDBRANCH   1   6
BRANCH   1  24
ATOM     24  C   LIG A   1      -7.614   0.706 127.332  0.00  0.00    +0.173 A 
ATOM     25  C   LIG A   1      -8.449   1.049 126.249  0.00  0.00    +0.202 A 
ATOM     26  C   LIG A   1      -9.224   0.092 125.498  0.00  0.00    +0.169 A 
ATOM     27  C   LIG A   1      -9.071  -1.280 125.774  0.00  0.00    +0.005 A 
ATOM     28  C   LIG A   1      -8.245  -1.598 126.878  0.00  0.00    +0.011 A 
ATOM     29  C   LIG A   1      -7.535  -0.648 127.633  0.00  0.00    +0.050 A 
BRANCH  27  30
ATOM     30  C   LIG A   1      -9.664  -2.416 124.917  0.00  0.00    +0.065 C 
ATOM     31  C   LIG A   1      -9.260  -2.282 123.424  0.00  0.00    +0.050 C 
ATOM     32  C   LIG A   1      -7.815  -2.643 123.272  0.00  0.00    -0.005 A 
ATOM     33  C   LIG A   1      -7.253  -3.577 124.143  0.00  0.00    +0.127 A 
ATOM     34  O   LIG A   1      -7.964  -4.264 125.091  0.00  0.00    -0.491 OA
ATOM     35  C   LIG A   1      -9.326  -3.870 125.289  0.00  0.00    +0.237 C 
ATOM     36  C   LIG A   1      -5.874  -3.752 124.179  0.00  0.00    +0.091 A 
ATOM     37  C   LIG A   1      -5.071  -3.013 123.317  0.00  0.00    +0.120 A 
ATOM     38  C   LIG A   1      -5.626  -2.160 122.371  0.00  0.00    +0.046 A 
ATOM     39  C   LIG A   1      -7.005  -1.975 122.342  0.00  0.00    +0.011 A 
BRANCH  37  40
ATOM     40  O   LIG A   1      -3.711  -3.078 123.400  0.00  0.00    -0.507 OA
ATOM     41  H   LIG A   1      -3.482  -3.868 123.917  0.00  0.00    +0.292 HD
ENDBRANCH  37  40
ENDBRANCH  27  30
BRANCH  25  42
ATOM     42  O   LIG A   1      -8.603   2.373 125.915  0.00  0.00    -0.501 OA
ATOM     43  H   LIG A   1      -7.869   2.792 126.402  0.00  0.00    +0.292 HD
ENDBRANCH  25  42
BRANCH  26  44
ATOM     44  O   LIG A   1     -10.189   0.652 124.693  0.00  0.00    -0.491 OA
ATOM     45  C   LIG A   1      -9.922   1.142 123.387  0.00  0.00    +0.277 C 
ENDBRANCH  26  44
ENDBRANCH   1  24
TORSDOF 10
ENDMDL
MODEL 3
REMARK VINA RESULT:      -9.4      2.510      8.703
REMARK  Name = NuBBE_2418
REMARK  12 active torsions:
REMARK  status: ('A' for Active; 'I' for Inactive)
REMARK    1  A    between atoms: O_1  and  C_2
REMARK    2  A    between atoms: O_1  and  C_3
REMARK    3  A    between atoms: C_4  and  C_32
REMARK    4  A    between atoms: C_7  and  O_10
REMARK    5  A    between atoms: C_8  and  O_9
REMARK    6  A    between atoms: O_10  and  C_11
REMARK    7  A    between atoms: C_12  and  O_13
REMARK    8  A    between atoms: C_14  and  O_15
REMARK    9  A    between atoms: O_15  and  C_16
REMARK   10  A    between atoms: C_17  and  C_20
REMARK   11  A    between atoms: C_28  and  O_31
REMARK   12  A    between atoms: C_40  and  O_43
REMARK                            x       y       z     vdW  Elec       q    Type
REMARK                         _______ _______ _______ _____ _____    ______ ____
ROOT
ATOM      1  O   LIG A   1      -6.454   4.865 127.464  0.00  0.00    -0.448 OA
ENDROOT
BRANCH   1   6
ATOM      2  C   LIG A   1      -7.782   2.909 124.510  0.00  0.00    +0.169 A 
ATOM      3  C   LIG A   1      -7.124   1.648 124.625  0.00  0.00    +0.005 A 
ATOM      4  C   LIG A   1      -6.197   1.589 125.687  0.00  0.00    +0.011 A 
ATOM      5  C   LIG A   1      -5.974   2.655 126.629  0.00  0.00    +0.050 A 
ATOM      6  C   LIG A   1      -6.636   3.898 126.466  0.00  0.00    +0.173 A 
ATOM      7  C   LIG A   1      -7.384   4.013 125.363  0.00  0.00    +0.202 A 
BRANCH   3   8
ATOM      8  C   LIG A   1      -7.343   0.366 123.735  0.00  0.00    +0.065 C 
ATOM      9  C   LIG A   1      -6.436  -0.856 123.975  0.00  0.00    +0.050 C 
ATOM     10  C   LIG A   1      -7.013  -1.746 125.036  0.00  0.00    -0.005 A 
ATOM     11  C   LIG A   1      -8.395  -1.796 125.237  0.00  0.00    +0.127 A 
ATOM     12  O   LIG A   1      -9.298  -1.131 124.459  0.00  0.00    -0.491 OA
ATOM     13  C   LIG A   1      -8.770  -0.210 123.497  0.00  0.00    +0.237 C 
ATOM     14  C   LIG A   1      -8.913  -2.379 126.396  0.00  0.00    +0.091 A 
ATOM     15  C   LIG A   1      -8.034  -2.842 127.370  0.00  0.00    +0.120 A 
ATOM     16  C   LIG A   1      -6.667  -2.895 127.135  0.00  0.00    +0.046 A 
ATOM     17  C   LIG A   1      -6.156  -2.375 125.949  0.00  0.00    +0.011 A 
BRANCH  15  18
ATOM     18  O   LIG A   1      -8.469  -3.120 128.634  0.00  0.00    -0.507 OA
ATOM     19  H   LIG A   1      -7.777  -2.810 129.245  0.00  0.00    +0.292 HD
ENDBRANCH  15  18
ENDBRANCH   3   8
BRANCH   2  20
ATOM     20  O   LIG A   1      -8.848   3.002 123.646  0.00  0.00    -0.491 OA
ATOM     21  C   LIG A   1      -8.483   3.204 122.285  0.00  0.00    +0.277 C 
ENDBRANCH   2  20
BRANCH   7  22
ATOM     22  O   LIG A   1      -7.783   5.297 125.034  0.00  0.00    -0.501 OA
ATOM     23  H   LIG A   1      -7.838   5.805 125.858  0.00  0.00    +0.292 HD
ENDBRANCH   7  22
ENDBRANCH   1   6
BRANCH   1  24
ATOM     24  C   LIG A   1      -6.959   4.744 128.758  0.00  0.00    +0.173 A 
ATOM     25  C   LIG A   1      -8.283   4.883 129.223  0.00  0.00    +0.202 A 
ATOM     26  C   LIG A   1      -8.678   4.682 130.596  0.00  0.00    +0.169 A 
ATOM     27  C   LIG A   1      -7.724   4.216 131.520  0.00  0.00    +0.005 A 
ATOM     28  C   LIG A   1      -6.399   4.104 131.037  0.00  0.00    +0.011 A 
ATOM     29  C   LIG A   1      -6.021   4.352 129.705  0.00  0.00    +0.050 A 
BRANCH  27  30
ATOM     30  C   LIG A   1      -8.051   3.755 132.955  0.00  0.00    +0.065 C 
ATOM     31  C   LIG A   1      -9.103   2.614 132.968  0.00  0.00    +0.050 C 
ATOM     32  C   LIG A   1      -8.464   1.349 132.486  0.00  0.00    -0.005 A 
ATOM     33  C   LIG A   1      -7.103   1.146 132.717  0.00  0.00    +0.127 A 
ATOM     34  O   LIG A   1      -6.313   1.999 133.443  0.00  0.00    -0.491 OA
ATOM     35  C   LIG A   1      -6.902   3.241 133.840  0.00  0.00    +0.237 C 
ATOM     36  C   LIG A   1      -6.438   0.104 132.080  0.00  0.00    +0.091 A 
ATOM     37  C   LIG A   1      -7.150  -0.748 131.242  0.00  0.00    +0.120 A 
ATOM     38  C   LIG A   1      -8.526  -0.621 131.089  0.00  0.00    +0.046 A 
ATOM     39  C   LIG A   1      -9.190   0.429 131.717  0.00  0.00    +0.011 A 
BRANCH  37  40
ATOM     40  O   LIG A   1      -6.512  -1.710 130.518  0.00  0.00    -0.507 OA
ATOM     41  H   LIG A   1      -6.046  -2.292 131.141  0.00  0.00    +0.292 HD
ENDBRANCH  37  40
ENDBRANCH  27  30
BRANCH  25  42
ATOM     42  O   LIG A   1      -9.259   5.300 128.350  0.00  0.00    -0.501 OA
ATOM     43  H   LIG A   1      -8.737   5.537 127.561  0.00  0.00    +0.292 HD
ENDBRANCH  25  42
BRANCH  26  44
ATOM     44  O   LIG A   1      -9.934   5.154 130.898  0.00  0.00    -0.491 OA
ATOM     45  C   LIG A   1     -10.161   6.398 131.544  0.00  0.00    +0.277 C 
ENDBRANCH  26  44
ENDBRANCH   1  24
TORSDOF 10
ENDMDL
MODEL 4
REMARK VINA RESULT:      -9.4      1.479      2.231
REMARK  Name = NuBBE_2418
REMARK  12 active torsions:
REMARK  status: ('A' for Active; 'I' for Inactive)
REMARK    1  A    between atoms: O_1  and  C_2
REMARK    2  A    between atoms: O_1  and  C_3
REMARK    3  A    between atoms: C_4  and  C_32
REMARK    4  A    between atoms: C_7  and  O_10
REMARK    5  A    between atoms: C_8  and  O_9
REMARK    6  A    between atoms: O_10  and  C_11
REMARK    7  A    between atoms: C_12  and  O_13
REMARK    8  A    between atoms: C_14  and  O_15
REMARK    9  A    between atoms: O_15  and  C_16
REMARK   10  A    between atoms: C_17  and  C_20
REMARK   11  A    between atoms: C_28  and  O_31
REMARK   12  A    between atoms: C_40  and  O_43
REMARK                            x       y       z     vdW  Elec       q    Type
REMARK                         _______ _______ _______ _____ _____    ______ ____
ROOT
ATOM      1  O   LIG A   1      -6.565   1.565 128.111  0.00  0.00    -0.448 OA
ENDROOT
BRANCH   1   6
ATOM      2  C   LIG A   1      -7.715   3.643 131.057  0.00  0.00    +0.169 A 
ATOM      3  C   LIG A   1      -8.422   4.721 130.446  0.00  0.00    +0.005 A 
ATOM      4  C   LIG A   1      -8.387   4.693 129.036  0.00  0.00    +0.011 A 
ATOM      5  C   LIG A   1      -7.771   3.648 128.260  0.00  0.00    +0.050 A 
ATOM      6  C   LIG A   1      -7.062   2.604 128.908  0.00  0.00    +0.173 A 
ATOM      7  C   LIG A   1      -6.950   2.722 130.236  0.00  0.00    +0.202 A 
BRANCH   3   8
ATOM      8  C   LIG A   1      -9.225   5.871 131.164  0.00  0.00    +0.065 C 
ATOM      9  C   LIG A   1      -9.241   7.269 130.515  0.00  0.00    +0.050 C 
ATOM     10  C   LIG A   1     -10.363   7.382 129.527  0.00  0.00    -0.005 A 
ATOM     11  C   LIG A   1     -11.529   6.629 129.695  0.00  0.00    +0.127 A 
ATOM     12  O   LIG A   1     -11.762   5.826 130.774  0.00  0.00    -0.491 OA
ATOM     13  C   LIG A   1     -10.673   5.633 131.685  0.00  0.00    +0.237 C 
ATOM     14  C   LIG A   1     -12.438   6.503 128.643  0.00  0.00    +0.091 A 
ATOM     15  C   LIG A   1     -12.133   7.079 127.413  0.00  0.00    +0.120 A 
ATOM     16  C   LIG A   1     -11.036   7.916 127.266  0.00  0.00    +0.046 A 
ATOM     17  C   LIG A   1     -10.164   8.095 128.336  0.00  0.00    +0.011 A 
BRANCH  15  18
ATOM     18  O   LIG A   1     -12.813   6.724 126.283  0.00  0.00    -0.507 OA
ATOM     19  H   LIG A   1     -12.310   7.076 125.528  0.00  0.00    +0.292 HD
ENDBRANCH  15  18
ENDBRANCH   3   8
BRANCH   2  20
ATOM     20  O   LIG A   1      -7.864   3.460 132.412  0.00  0.00    -0.491 OA
ATOM     21  C   LIG A   1      -8.886   2.536 132.768  0.00  0.00    +0.277 C 
ENDBRANCH   2  20
BRANCH   7  22
ATOM     22  O   LIG A   1      -6.018   1.895 130.840  0.00  0.00    -0.501 OA
ATOM     23  H   LIG A   1      -6.205   0.988 130.554  0.00  0.00    +0.292 HD
ENDBRANCH   7  22
ENDBRANCH   1   6
BRANCH   1  24
ATOM     24  C   LIG A   1      -7.223   1.075 126.982  0.00  0.00    +0.173 A 
ATOM     25  C   LIG A   1      -7.075   1.439 125.628  0.00  0.00    +0.202 A 
ATOM     26  C   LIG A   1      -7.793   0.812 124.545  0.00  0.00    +0.169 A 
ATOM     27  C   LIG A   1      -8.611  -0.300 124.821  0.00  0.00    +0.005 A 
ATOM     28  C   LIG A   1      -8.760  -0.633 126.188  0.00  0.00    +0.011 A 
ATOM     29  C   LIG A   1      -8.091   0.021 127.237  0.00  0.00    +0.050 A 
BRANCH  27  30
ATOM     30  C   LIG A   1      -9.260  -1.194 123.745  0.00  0.00    +0.065 C 
ATOM     31  C   LIG A   1      -8.324  -1.399 122.524  0.00  0.00    +0.050 C 
ATOM     32  C   LIG A   1      -7.207  -2.318 122.909  0.00  0.00    -0.005 A 
ATOM     33  C   LIG A   1      -7.436  -3.295 123.878  0.00  0.00    +0.127 A 
ATOM     34  O   LIG A   1      -8.657  -3.534 124.452  0.00  0.00    -0.491 OA
ATOM     35  C   LIG A   1      -9.706  -2.613 124.142  0.00  0.00    +0.237 C 
ATOM     36  C   LIG A   1      -6.366  -3.998 124.422  0.00  0.00    +0.091 A 
ATOM     37  C   LIG A   1      -5.078  -3.739 123.965  0.00  0.00    +0.120 A 
ATOM     38  C   LIG A   1      -4.849  -2.846 122.926  0.00  0.00    +0.046 A 
ATOM     39  C   LIG A   1      -5.918  -2.134 122.389  0.00  0.00    +0.011 A 
BRANCH  37  40
ATOM     40  O   LIG A   1      -3.997  -4.329 124.551  0.00  0.00    -0.507 OA
ATOM     41  H   LIG A   1      -3.810  -5.152 124.071  0.00  0.00    +0.292 HD
ENDBRANCH  37  40
ENDBRANCH  27  30
BRANCH  25  42
ATOM     42  O   LIG A   1      -6.258   2.495 125.304  0.00  0.00    -0.501 OA
ATOM     43  H   LIG A   1      -5.503   2.360 125.906  0.00  0.00    +0.292 HD
ENDBRANCH  25  42
BRANCH  26  44
ATOM     44  O   LIG A   1      -7.738   1.501 123.356  0.00  0.00    -0.491 OA
ATOM     45  C   LIG A   1      -8.760   2.388 122.926  0.00  0.00    +0.277 C 
ENDBRANCH  26  44
ENDBRANCH   1  24
TORSDOF 10
ENDMDL
MODEL 5
REMARK VINA RESULT:      -9.3      2.830      9.884
REMARK  Name = NuBBE_2418
REMARK  12 active torsions:
REMARK  status: ('A' for Active; 'I' for Inactive)
REMARK    1  A    between atoms: O_1  and  C_2
REMARK    2  A    between atoms: O_1  and  C_3
REMARK    3  A    between atoms: C_4  and  C_32
REMARK    4  A    between atoms: C_7  and  O_10
REMARK    5  A    between atoms: C_8  and  O_9
REMARK    6  A    between atoms: O_10  and  C_11
REMARK    7  A    between atoms: C_12  and  O_13
REMARK    8  A    between atoms: C_14  and  O_15
REMARK    9  A    between atoms: O_15  and  C_16
REMARK   10  A    between atoms: C_17  and  C_20
REMARK   11  A    between atoms: C_28  and  O_31
REMARK   12  A    between atoms: C_40  and  O_43
REMARK                            x       y       z     vdW  Elec       q    Type
REMARK                         _______ _______ _______ _____ _____    ______ ____
ROOT
ATOM      1  O   LIG A   1      -3.808   3.459 127.101  0.00  0.00    -0.448 OA
ENDROOT
BRANCH   1   6
ATOM      2  C   LIG A   1      -6.847   2.557 125.035  0.00  0.00    +0.169 A 
ATOM      3  C   LIG A   1      -6.910   1.135 125.140  0.00  0.00    +0.005 A 
ATOM      4  C   LIG A   1      -5.837   0.575 125.866  0.00  0.00    +0.011 A 
ATOM      5  C   LIG A   1      -4.808   1.344 126.516  0.00  0.00    +0.050 A 
ATOM      6  C   LIG A   1      -4.774   2.754 126.370  0.00  0.00    +0.173 A 
ATOM      7  C   LIG A   1      -5.690   3.270 125.543  0.00  0.00    +0.202 A 
BRANCH   3   8
ATOM      8  C   LIG A   1      -8.025   0.179 124.572  0.00  0.00    +0.065 C 
ATOM      9  C   LIG A   1      -7.805  -0.463 123.189  0.00  0.00    +0.050 C 
ATOM     10  C   LIG A   1      -7.053  -1.754 123.317  0.00  0.00    -0.005 A 
ATOM     11  C   LIG A   1      -7.160  -2.520 124.481  0.00  0.00    +0.127 A 
ATOM     12  O   LIG A   1      -7.991  -2.207 125.518  0.00  0.00    -0.491 OA
ATOM     13  C   LIG A   1      -8.653  -0.937 125.458  0.00  0.00    +0.237 C 
ATOM     14  C   LIG A   1      -6.250  -3.550 124.728  0.00  0.00    +0.091 A 
ATOM     15  C   LIG A   1      -5.203  -3.755 123.836  0.00  0.00    +0.120 A 
ATOM     16  C   LIG A   1      -5.148  -3.075 122.627  0.00  0.00    +0.046 A 
ATOM     17  C   LIG A   1      -6.095  -2.094 122.351  0.00  0.00    +0.011 A 
BRANCH  15  18
ATOM     18  O   LIG A   1      -4.124  -4.516 124.182  0.00  0.00    -0.507 OA
ATOM     19  H   LIG A   1      -3.623  -4.685 123.364  0.00  0.00    +0.292 HD
ENDBRANCH  15  18
ENDBRANCH   3   8
BRANCH   2  20
ATOM     20  O   LIG A   1      -7.946   3.214 124.533  0.00  0.00    -0.491 OA
ATOM     21  C   LIG A   1      -7.982   3.294 123.113  0.00  0.00    +0.277 C 
ENDBRANCH   2  20
BRANCH   7  22
ATOM     22  O   LIG A   1      -5.482   4.582 125.154  0.00  0.00    -0.501 OA
ATOM     23  H   LIG A   1      -4.671   4.604 124.624  0.00  0.00    +0.292 HD
ENDBRANCH   7  22
ENDBRANCH   1   6
BRANCH   1  24
ATOM     24  C   LIG A   1      -4.074   4.109 128.306  0.00  0.00    +0.173 A 
ATOM     25  C   LIG A   1      -4.437   5.450 128.542  0.00  0.00    +0.202 A 
ATOM     26  C   LIG A   1      -4.732   5.984 129.849  0.00  0.00    +0.169 A 
ATOM     27  C   LIG A   1      -4.770   5.111 130.953  0.00  0.00    +0.005 A 
ATOM     28  C   LIG A   1      -4.381   3.775 130.695  0.00  0.00    +0.011 A 
ATOM     29  C   LIG A   1      -4.049   3.281 129.422  0.00  0.00    +0.050 A 
BRANCH  27  30
ATOM     30  C   LIG A   1      -5.277   5.498 132.356  0.00  0.00    +0.065 C 
ATOM     31  C   LIG A   1      -6.454   6.508 132.286  0.00  0.00    +0.050 C 
ATOM     32  C   LIG A   1      -7.683   5.798 131.811  0.00  0.00    -0.005 A 
ATOM     33  C   LIG A   1      -7.844   4.445 132.112  0.00  0.00    +0.127 A 
ATOM     34  O   LIG A   1      -6.983   3.728 132.899  0.00  0.00    -0.491 OA
ATOM     35  C   LIG A   1      -5.772   4.381 133.292  0.00  0.00    +0.237 C 
ATOM     36  C   LIG A   1      -8.846   3.710 131.489  0.00  0.00    +0.091 A 
ATOM     37  C   LIG A   1      -9.702   4.344 130.594  0.00  0.00    +0.120 A 
ATOM     38  C   LIG A   1      -9.619   5.713 130.369  0.00  0.00    +0.046 A 
ATOM     39  C   LIG A   1      -8.609   6.448 130.983  0.00  0.00    +0.011 A 
BRANCH  37  40
ATOM     40  O   LIG A   1     -10.624   3.633 129.884  0.00  0.00    -0.507 OA
ATOM     41  H   LIG A   1     -11.501   3.997 130.088  0.00  0.00    +0.292 HD
ENDBRANCH  37  40
ENDBRANCH  27  30
BRANCH  25  42
ATOM     42  O   LIG A   1      -4.451   6.335 127.491  0.00  0.00    -0.501 OA
ATOM     43  H   LIG A   1      -4.123   5.783 126.757  0.00  0.00    +0.292 HD
ENDBRANCH  25  42
BRANCH  26  44
ATOM     44  O   LIG A   1      -4.766   7.359 129.904  0.00  0.00    -0.491 OA
ATOM     45  C   LIG A   1      -3.689   8.143 130.394  0.00  0.00    +0.277 C 
ENDBRANCH  26  44
ENDBRANCH   1  24
TORSDOF 10
ENDMDL
MODEL 6
REMARK VINA RESULT:      -9.3      2.111      3.657
REMARK  Name = NuBBE_2418
REMARK  12 active torsions:
REMARK  status: ('A' for Active; 'I' for Inactive)
REMARK    1  A    between atoms: O_1  and  C_2
REMARK    2  A    between atoms: O_1  and  C_3
REMARK    3  A    between atoms: C_4  and  C_32
REMARK    4  A    between atoms: C_7  and  O_10
REMARK    5  A    between atoms: C_8  and  O_9
REMARK    6  A    between atoms: O_10  and  C_11
REMARK    7  A    between atoms: C_12  and  O_13
REMARK    8  A    between atoms: C_14  and  O_15
REMARK    9  A    between atoms: O_15  and  C_16
REMARK   10  A    between atoms: C_17  and  C_20
REMARK   11  A    between atoms: C_28  and  O_31
REMARK   12  A    between atoms: C_40  and  O_43
REMARK                            x       y       z     vdW  Elec       q    Type
REMARK                         _______ _______ _______ _____ _____    ______ ____
ROOT
ATOM      1  O   LIG A   1      -5.776   0.319 129.012  0.00  0.00    -0.448 OA
ENDROOT
BRANCH   1   6
ATOM      2  C   LIG A   1      -4.482   3.617 130.343  0.00  0.00    +0.169 A 
ATOM      3  C   LIG A   1      -5.600   4.149 131.053  0.00  0.00    +0.005 A 
ATOM      4  C   LIG A   1      -6.761   3.354 130.956  0.00  0.00    +0.011 A 
ATOM      5  C   LIG A   1      -6.821   2.085 130.280  0.00  0.00    +0.050 A 
ATOM      6  C   LIG A   1      -5.692   1.602 129.571  0.00  0.00    +0.173 A 
ATOM      7  C   LIG A   1      -4.645   2.433 129.519  0.00  0.00    +0.202 A 
BRANCH   3   8
ATOM      8  C   LIG A   1      -5.649   5.466 131.917  0.00  0.00    +0.065 C 
ATOM      9  C   LIG A   1      -6.324   6.713 131.313  0.00  0.00    +0.050 C 
ATOM     10  C   LIG A   1      -7.796   6.713 131.604  0.00  0.00    -0.005 A 
ATOM     11  C   LIG A   1      -8.287   6.085 132.752  0.00  0.00    +0.127 A 
ATOM     12  O   LIG A   1      -7.490   5.519 133.704  0.00  0.00    -0.491 OA
ATOM     13  C   LIG A   1      -6.090   5.430 133.409  0.00  0.00    +0.237 C 
ATOM     14  C   LIG A   1      -9.653   5.823 132.876  0.00  0.00    +0.091 A 
ATOM     15  C   LIG A   1     -10.500   6.133 131.816  0.00  0.00    +0.120 A 
ATOM     16  C   LIG A   1     -10.042   6.851 130.720  0.00  0.00    +0.046 A 
ATOM     17  C   LIG A   1      -8.691   7.171 130.628  0.00  0.00    +0.011 A 
BRANCH  15  18
ATOM     18  O   LIG A   1     -11.762   5.617 131.752  0.00  0.00    -0.507 OA
ATOM     19  H   LIG A   1     -12.143   5.688 132.645  0.00  0.00    +0.292 HD
ENDBRANCH  15  18
ENDBRANCH   3   8
BRANCH   2  20
ATOM     20  O   LIG A   1      -3.253   4.201 130.545  0.00  0.00    -0.491 OA
ATOM     21  C   LIG A   1      -2.940   5.239 129.623  0.00  0.00    +0.277 C 
ENDBRANCH   2  20
BRANCH   7  22
ATOM     22  O   LIG A   1      -3.667   2.118 128.591  0.00  0.00    -0.501 OA
ATOM     23  H   LIG A   1      -2.872   1.860 129.083  0.00  0.00    +0.292 HD
ENDBRANCH   7  22
ENDBRANCH   1   6
BRANCH   1  24
ATOM     24  C   LIG A   1      -6.627  -0.009 127.957  0.00  0.00    +0.173 A 
ATOM     25  C   LIG A   1      -6.826   0.647 126.725  0.00  0.00    +0.202 A 
ATOM     26  C   LIG A   1      -7.712   0.167 125.694  0.00  0.00    +0.169 A 
ATOM     27  C   LIG A   1      -8.343  -1.080 125.860  0.00  0.00    +0.005 A 
ATOM     28  C   LIG A   1      -8.146  -1.709 127.111  0.00  0.00    +0.011 A 
ATOM     29  C   LIG A   1      -7.317  -1.203 128.127  0.00  0.00    +0.050 A 
BRANCH  27  30
ATOM     30  C   LIG A   1      -9.138  -1.811 124.759  0.00  0.00    +0.065 C 
ATOM     31  C   LIG A   1      -8.451  -1.685 123.372  0.00  0.00    +0.050 C 
ATOM     32  C   LIG A   1      -7.228  -2.548 123.350  0.00  0.00    -0.005 A 
ATOM     33  C   LIG A   1      -7.203  -3.711 124.122  0.00  0.00    +0.127 A 
ATOM     34  O   LIG A   1      -8.271  -4.173 124.845  0.00  0.00    -0.491 OA
ATOM     35  C   LIG A   1      -9.414  -3.315 124.928  0.00  0.00    +0.237 C 
ATOM     36  C   LIG A   1      -6.008  -4.397 124.306  0.00  0.00    +0.091 A 
ATOM     37  C   LIG A   1      -4.852  -3.932 123.686  0.00  0.00    +0.120 A 
ATOM     38  C   LIG A   1      -4.886  -2.839 122.830  0.00  0.00    +0.046 A 
ATOM     39  C   LIG A   1      -6.080  -2.144 122.655  0.00  0.00    +0.011 A 
BRANCH  37  40
ATOM     40  O   LIG A   1      -3.645  -4.515 123.932  0.00  0.00    -0.507 OA
ATOM     41  H   LIG A   1      -3.309  -4.869 123.092  0.00  0.00    +0.292 HD
ENDBRANCH  37  40
ENDBRANCH  27  30
BRANCH  25  42
ATOM     42  O   LIG A   1      -6.202   1.851 126.499  0.00  0.00    -0.501 OA
ATOM     43  H   LIG A   1      -6.615   2.140 125.665  0.00  0.00    +0.292 HD
ENDBRANCH  25  42
BRANCH  26  44
ATOM     44  O   LIG A   1      -7.992   1.091 124.714  0.00  0.00    -0.491 OA
ATOM     45  C   LIG A   1      -9.171   1.883 124.707  0.00  0.00    +0.277 C 
ENDBRANCH  26  44
ENDBRANCH   1  24
TORSDOF 10
ENDMDL
MODEL 7
REMARK VINA RESULT:      -9.2      3.077      9.298
REMARK  Name = NuBBE_2418
REMARK  12 active torsions:
REMARK  status: ('A' for Active; 'I' for Inactive)
REMARK    1  A    between atoms: O_1  and  C_2
REMARK    2  A    between atoms: O_1  and  C_3
REMARK    3  A    between atoms: C_4  and  C_32
REMARK    4  A    between atoms: C_7  and  O_10
REMARK    5  A    between atoms: C_8  and  O_9
REMARK    6  A    between atoms: O_10  and  C_11
REMARK    7  A    between atoms: C_12  and  O_13
REMARK    8  A    between atoms: C_14  and  O_15
REMARK    9  A    between atoms: O_15  and  C_16
REMARK   10  A    between atoms: C_17  and  C_20
REMARK   11  A    between atoms: C_28  and  O_31
REMARK   12  A    between atoms: C_40  and  O_43
REMARK                            x       y       z     vdW  Elec       q    Type
REMARK                         _______ _______ _______ _____ _____    ______ ____
ROOT
ATOM      1  O   LIG A   1      -3.433   2.584 127.525  0.00  0.00    -0.448 OA
ENDROOT
BRANCH   1   6
ATOM      2  C   LIG A   1      -6.342   3.139 125.170  0.00  0.00    +0.169 A 
ATOM      3  C   LIG A   1      -6.816   1.818 124.912  0.00  0.00    +0.005 A 
ATOM      4  C   LIG A   1      -6.038   0.810 125.519  0.00  0.00    +0.011 A 
ATOM      5  C   LIG A   1      -4.916   1.062 126.385  0.00  0.00    +0.050 A 
ATOM      6  C   LIG A   1      -4.467   2.390 126.600  0.00  0.00    +0.173 A 
ATOM      7  C   LIG A   1      -5.097   3.333 125.890  0.00  0.00    +0.202 A 
BRANCH   3   8
ATOM      8  C   LIG A   1      -8.083   1.400 124.074  0.00  0.00    +0.065 C 
ATOM      9  C   LIG A   1      -7.998   0.134 123.199  0.00  0.00    +0.050 C 
ATOM     10  C   LIG A   1      -8.373  -1.084 123.990  0.00  0.00    -0.005 A 
ATOM     11  C   LIG A   1      -9.265  -0.981 125.061  0.00  0.00    +0.127 A 
ATOM     12  O   LIG A   1      -9.904   0.175 125.405  0.00  0.00    -0.491 OA
ATOM     13  C   LIG A   1      -9.498   1.368 124.722  0.00  0.00    +0.237 C 
ATOM     14  C   LIG A   1      -9.387  -2.032 125.974  0.00  0.00    +0.091 A 
ATOM     15  C   LIG A   1      -8.563  -3.144 125.838  0.00  0.00    +0.120 A 
ATOM     16  C   LIG A   1      -7.753  -3.304 124.722  0.00  0.00    +0.046 A 
ATOM     17  C   LIG A   1      -7.682  -2.285 123.777  0.00  0.00    +0.011 A 
BRANCH  15  18
ATOM     18  O   LIG A   1      -8.413  -4.036 126.860  0.00  0.00    -0.507 OA
ATOM     19  H   LIG A   1      -7.457  -4.179 126.973  0.00  0.00    +0.292 HD
ENDBRANCH  15  18
ENDBRANCH   3   8
BRANCH   2  20
ATOM     20  O   LIG A   1      -7.145   4.194 124.803  0.00  0.00    -0.491 OA
ATOM     21  C   LIG A   1      -7.985   4.680 125.844  0.00  0.00    +0.277 C 
ENDBRANCH   2  20
BRANCH   7  22
ATOM     22  O   LIG A   1      -4.483   4.573 125.853  0.00  0.00    -0.501 OA
ATOM     23  H   LIG A   1      -5.172   5.243 125.982  0.00  0.00    +0.292 HD
ENDBRANCH   7  22
ENDBRANCH   1   6
BRANCH   1  24
ATOM     24  C   LIG A   1      -3.607   3.215 128.757  0.00  0.00    +0.173 A 
ATOM     25  C   LIG A   1      -3.382   4.560 129.118  0.00  0.00    +0.202 A 
ATOM     26  C   LIG A   1      -3.651   5.095 130.430  0.00  0.00    +0.169 A 
ATOM     27  C   LIG A   1      -4.274   4.274 131.389  0.00  0.00    +0.005 A 
ATOM     28  C   LIG A   1      -4.471   2.924 131.011  0.00  0.00    +0.011 A 
ATOM     29  C   LIG A   1      -4.156   2.406 129.743  0.00  0.00    +0.050 A 
BRANCH  27  30
ATOM     30  C   LIG A   1      -4.813   4.770 132.746  0.00  0.00    +0.065 C 
ATOM     31  C   LIG A   1      -5.624   6.086 132.598  0.00  0.00    +0.050 C 
ATOM     32  C   LIG A   1      -6.940   5.783 131.952  0.00  0.00    -0.005 A 
ATOM     33  C   LIG A   1      -7.527   4.534 132.161  0.00  0.00    +0.127 A 
ATOM     34  O   LIG A   1      -7.017   3.578 133.000  0.00  0.00    -0.491 OA
ATOM     35  C   LIG A   1      -5.724   3.834 133.559  0.00  0.00    +0.237 C 
ATOM     36  C   LIG A   1      -8.616   4.141 131.392  0.00  0.00    +0.091 A 
ATOM     37  C   LIG A   1      -9.132   5.018 130.443  0.00  0.00    +0.120 A 
ATOM     38  C   LIG A   1      -8.624   6.303 130.301  0.00  0.00    +0.046 A 
ATOM     39  C   LIG A   1      -7.526   6.693 131.062  0.00  0.00    +0.011 A 
BRANCH  37  40
ATOM     40  O   LIG A   1     -10.128   4.626 129.598  0.00  0.00    -0.507 OA
ATOM     41  H   LIG A   1     -10.109   5.212 128.824  0.00  0.00    +0.292 HD
ENDBRANCH  37  40
ENDBRANCH  27  30
BRANCH  25  42
ATOM     42  O   LIG A   1      -2.809   5.411 128.203  0.00  0.00    -0.501 OA
ATOM     43  H   LIG A   1      -3.527   5.522 127.552  0.00  0.00    +0.292 HD
ENDBRANCH  25  42
BRANCH  26  44
ATOM     44  O   LIG A   1      -3.090   6.329 130.664  0.00  0.00    -0.491 OA
ATOM     45  C   LIG A   1      -1.875   6.505 131.378  0.00  0.00    +0.277 C 
ENDBRANCH  26  44
ENDBRANCH   1  24
TORSDOF 10
ENDMDL
MODEL 8
REMARK VINA RESULT:      -9.0      3.796      6.185
REMARK  Name = NuBBE_2418
REMARK  12 active torsions:
REMARK  status: ('A' for Active; 'I' for Inactive)
REMARK    1  A    between atoms: O_1  and  C_2
REMARK    2  A    between atoms: O_1  and  C_3
REMARK    3  A    between atoms: C_4  and  C_32
REMARK    4  A    between atoms: C_7  and  O_10
REMARK    5  A    between atoms: C_8  and  O_9
REMARK    6  A    between atoms: O_10  and  C_11
REMARK    7  A    between atoms: C_12  and  O_13
REMARK    8  A    between atoms: C_14  and  O_15
REMARK    9  A    between atoms: O_15  and  C_16
REMARK   10  A    between atoms: C_17  and  C_20
REMARK   11  A    between atoms: C_28  and  O_31
REMARK   12  A    between atoms: C_40  and  O_43
REMARK                            x       y       z     vdW  Elec       q    Type
REMARK                         _______ _______ _______ _____ _____    ______ ____
ROOT
ATOM      1  O   LIG A   1      -5.630   0.507 129.468  0.00  0.00    -0.448 OA
ENDROOT
BRANCH   1   6
ATOM      2  C   LIG A   1      -5.698   4.139 128.409  0.00  0.00    +0.169 A 
ATOM      3  C   LIG A   1      -4.454   4.648 128.890  0.00  0.00    +0.005 A 
ATOM      4  C   LIG A   1      -3.703   3.704 129.623  0.00  0.00    +0.011 A 
ATOM      5  C   LIG A   1      -4.092   2.332 129.816  0.00  0.00    +0.050 A 
ATOM      6  C   LIG A   1      -5.345   1.873 129.336  0.00  0.00    +0.173 A 
ATOM      7  C   LIG A   1      -6.131   2.808 128.791  0.00  0.00    +0.202 A 
BRANCH   3   8
ATOM      8  C   LIG A   1      -3.856   6.088 128.667  0.00  0.00    +0.065 C 
ATOM      9  C   LIG A   1      -4.206   7.192 129.684  0.00  0.00    +0.050 C 
ATOM     10  C   LIG A   1      -3.234   7.189 130.826  0.00  0.00    -0.005 A 
ATOM     11  C   LIG A   1      -1.923   6.747 130.633  0.00  0.00    +0.127 A 
ATOM     12  O   LIG A   1      -1.419   6.377 129.420  0.00  0.00    -0.491 OA
ATOM     13  C   LIG A   1      -2.349   6.288 128.332  0.00  0.00    +0.237 C 
ATOM     14  C   LIG A   1      -1.111   6.462 131.734  0.00  0.00    +0.091 A 
ATOM     15  C   LIG A   1      -1.649   6.560 133.013  0.00  0.00    +0.120 A 
ATOM     16  C   LIG A   1      -2.911   7.099 133.221  0.00  0.00    +0.046 A 
ATOM     17  C   LIG A   1      -3.695   7.446 132.124  0.00  0.00    +0.011 A 
BRANCH  15  18
ATOM     18  O   LIG A   1      -1.019   5.997 134.085  0.00  0.00    -0.507 OA
ATOM     19  H   LIG A   1      -1.527   6.248 134.876  0.00  0.00    +0.292 HD
ENDBRANCH  15  18
ENDBRANCH   3   8
BRANCH   2  20
ATOM     20  O   LIG A   1      -6.403   4.906 127.511  0.00  0.00    -0.491 OA
ATOM     21  C   LIG A   1      -6.139   4.600 126.146  0.00  0.00    +0.277 C 
ENDBRANCH   2  20
BRANCH   7  22
ATOM     22  O   LIG A   1      -7.455   2.450 128.601  0.00  0.00    -0.501 OA
ATOM     23  H   LIG A   1      -7.608   1.630 129.096  0.00  0.00    +0.292 HD
ENDBRANCH   7  22
ENDBRANCH   1   6
BRANCH   1  24
ATOM     24  C   LIG A   1      -6.122  -0.283 128.430  0.00  0.00    +0.173 A 
ATOM     25  C   LIG A   1      -7.330  -1.005 128.345  0.00  0.00    +0.202 A 
ATOM     26  C   LIG A   1      -7.740  -1.750 127.180  0.00  0.00    +0.169 A 
ATOM     27  C   LIG A   1      -6.957  -1.679 126.012  0.00  0.00    +0.005 A 
ATOM     28  C   LIG A   1      -5.740  -0.966 126.127  0.00  0.00    +0.011 A 
ATOM     29  C   LIG A   1      -5.331  -0.286 127.287  0.00  0.00    +0.050 A 
BRANCH  27  30
ATOM     30  C   LIG A   1      -7.381  -2.242 124.640  0.00  0.00    +0.065 C 
ATOM     31  C   LIG A   1      -8.796  -1.753 124.229  0.00  0.00    +0.050 C 
ATOM     32  C   LIG A   1      -8.724  -0.308 123.845  0.00  0.00    -0.005 A 
ATOM     33  C   LIG A   1      -7.544   0.189 123.290  0.00  0.00    +0.127 A 
ATOM     34  O   LIG A   1      -6.455  -0.584 122.987  0.00  0.00    -0.491 OA
ATOM     35  C   LIG A   1      -6.492  -1.948 123.420  0.00  0.00    +0.237 C 
ATOM     36  C   LIG A   1      -7.368   1.561 123.148  0.00  0.00    +0.091 A 
ATOM     37  C   LIG A   1      -8.390   2.424 123.530  0.00  0.00    +0.120 A 
ATOM     38  C   LIG A   1      -9.610   1.936 123.982  0.00  0.00    +0.046 A 
ATOM     39  C   LIG A   1      -9.783   0.563 124.137  0.00  0.00    +0.011 A 
BRANCH  37  40
ATOM     40  O   LIG A   1      -8.210   3.775 123.506  0.00  0.00    -0.507 OA
ATOM     41  H   LIG A   1      -9.076   4.187 123.350  0.00  0.00    +0.292 HD
ENDBRANCH  37  40
ENDBRANCH  27  30
BRANCH  25  42
ATOM     42  O   LIG A   1      -8.147  -1.075 129.447  0.00  0.00    -0.501 OA
ATOM     43  H   LIG A   1      -8.655  -1.888 129.272  0.00  0.00    +0.292 HD
ENDBRANCH  25  42
BRANCH  26  44
ATOM     44  O   LIG A   1      -8.784  -2.618 127.402  0.00  0.00    -0.491 OA
ATOM     45  C   LIG A   1      -8.599  -3.984 127.744  0.00  0.00    +0.277 C 
ENDBRANCH  26  44
ENDBRANCH   1  24
TORSDOF 10
ENDMDL
MODEL 9
REMARK VINA RESULT:      -9.0      3.831      8.590
REMARK  Name = NuBBE_2418
REMARK  12 active torsions:
REMARK  status: ('A' for Active; 'I' for Inactive)
REMARK    1  A    between atoms: O_1  and  C_2
REMARK    2  A    between atoms: O_1  and  C_3
REMARK    3  A    between atoms: C_4  and  C_32
REMARK    4  A    between atoms: C_7  and  O_10
REMARK    5  A    between atoms: C_8  and  O_9
REMARK    6  A    between atoms: O_10  and  C_11
REMARK    7  A    between atoms: C_12  and  O_13
REMARK    8  A    between atoms: C_14  and  O_15
REMARK    9  A    between atoms: O_15  and  C_16
REMARK   10  A    between atoms: C_17  and  C_20
REMARK   11  A    between atoms: C_28  and  O_31
REMARK   12  A    between atoms: C_40  and  O_43
REMARK                            x       y       z     vdW  Elec       q    Type
REMARK                         _______ _______ _______ _____ _____    ______ ____
ROOT
ATOM      1  O   LIG A   1      -7.204   2.924 132.394  0.00  0.00    -0.448 OA
ENDROOT
BRANCH   1   6
ATOM      2  C   LIG A   1      -6.769  -0.834 132.332  0.00  0.00    +0.169 A 
ATOM      3  C   LIG A   1      -7.297  -1.208 131.060  0.00  0.00    +0.005 A 
ATOM      4  C   LIG A   1      -7.843  -0.127 130.335  0.00  0.00    +0.011 A 
ATOM      5  C   LIG A   1      -7.813   1.243 130.777  0.00  0.00    +0.050 A 
ATOM      6  C   LIG A   1      -7.295   1.567 132.056  0.00  0.00    +0.173 A 
ATOM      7  C   LIG A   1      -6.934   0.525 132.813  0.00  0.00    +0.202 A 
BRANCH   3   8
ATOM      8  C   LIG A   1      -7.303  -2.642 130.407  0.00  0.00    +0.065 C 
ATOM      9  C   LIG A   1      -8.288  -2.918 129.254  0.00  0.00    +0.050 C 
ATOM     10  C   LIG A   1      -7.678  -2.545 127.935  0.00  0.00    -0.005 A 
ATOM     11  C   LIG A   1      -6.293  -2.603 127.758  0.00  0.00    +0.127 A 
ATOM     12  O   LIG A   1      -5.427  -3.065 128.707  0.00  0.00    -0.491 OA
ATOM     13  C   LIG A   1      -5.974  -3.345 130.002  0.00  0.00    +0.237 C 
ATOM     14  C   LIG A   1      -5.702  -1.984 126.654  0.00  0.00    +0.091 A 
ATOM     15  C   LIG A   1      -6.502  -1.258 125.778  0.00  0.00    +0.120 A 
ATOM     16  C   LIG A   1      -7.886  -1.283 125.883  0.00  0.00    +0.046 A 
ATOM     17  C   LIG A   1      -8.479  -1.956 126.947  0.00  0.00    +0.011 A 
BRANCH  15  18
ATOM     18  O   LIG A   1      -5.952  -0.384 124.885  0.00  0.00    -0.507 OA
ATOM     19  H   LIG A   1      -4.991  -0.386 125.043  0.00  0.00    +0.292 HD
ENDBRANCH  15  18
ENDBRANCH   3   8
BRANCH   2  20
ATOM     20  O   LIG A   1      -6.030  -1.767 133.022  0.00  0.00    -0.491 OA
ATOM     21  C   LIG A   1      -4.621  -1.596 132.910  0.00  0.00    +0.277 C 
ENDBRANCH   2  20
BRANCH   7  22
ATOM     22  O   LIG A   1      -6.720   0.796 134.154  0.00  0.00    -0.501 OA
ATOM     23  H   LIG A   1      -7.576   0.732 134.604  0.00  0.00    +0.292 HD
ENDBRANCH   7  22
ENDBRANCH   1   6
BRANCH   1  24
ATOM     24  C   LIG A   1      -6.161   3.754 131.983  0.00  0.00    +0.173 A 
ATOM     25  C   LIG A   1      -4.795   3.719 132.328  0.00  0.00    +0.202 A 
ATOM     26  C   LIG A   1      -3.806   4.618 131.787  0.00  0.00    +0.169 A 
ATOM     27  C   LIG A   1      -4.184   5.520 130.774  0.00  0.00    +0.005 A 
ATOM     28  C   LIG A   1      -5.563   5.552 130.459  0.00  0.00    +0.011 A 
ATOM     29  C   LIG A   1      -6.523   4.701 131.033  0.00  0.00    +0.050 A 
BRANCH  27  30
ATOM     30  C   LIG A   1      -3.198   6.382 129.959  0.00  0.00    +0.065 C 
ATOM     31  C   LIG A   1      -2.156   5.510 129.207  0.00  0.00    +0.050 C 
ATOM     32  C   LIG A   1      -2.827   4.823 128.059  0.00  0.00    -0.005 A 
ATOM     33  C   LIG A   1      -3.908   5.445 127.433  0.00  0.00    +0.127 A 
ATOM     34  O   LIG A   1      -4.353   6.703 127.745  0.00  0.00    -0.491 OA
ATOM     35  C   LIG A   1      -3.764   7.331 128.889  0.00  0.00    +0.237 C 
ATOM     36  C   LIG A   1      -4.692   4.734 126.532  0.00  0.00    +0.091 A 
ATOM     37  C   LIG A   1      -4.366   3.414 126.238  0.00  0.00    +0.120 A 
ATOM     38  C   LIG A   1      -3.231   2.818 126.772  0.00  0.00    +0.046 A 
ATOM     39  C   LIG A   1      -2.452   3.526 127.684  0.00  0.00    +0.011 A 
BRANCH  37  40
ATOM     40  O   LIG A   1      -5.174   2.655 125.445  0.00  0.00    -0.507 OA
ATOM     41  H   LIG A   1      -4.667   2.404 124.656  0.00  0.00    +0.292 HD
ENDBRANCH  37  40
ENDBRANCH  27  30
BRANCH  25  42
ATOM     42  O   LIG A   1      -4.369   2.829 133.286  0.00  0.00    -0.501 OA
ATOM     43  H   LIG A   1      -3.400   2.917 133.227  0.00  0.00    +0.292 HD
ENDBRANCH  25  42
BRANCH  26  44
ATOM     44  O   LIG A   1      -2.610   4.619 132.466  0.00  0.00    -0.491 OA
ATOM     45  C   LIG A   1      -2.259   5.614 133.417  0.00  0.00    +0.277 C 
ENDBRANCH  26  44
ENDBRANCH   1  24
TORSDOF 10
ENDMDL
