MODEL 1
REMARK VINA RESULT:      -6.4      0.000      0.000
REMARK  Name = NuBBE_965
REMARK  6 active torsions:
REMARK  status: ('A' for Active; 'I' for Inactive)
REMARK    1  A    between atoms: C_1  and  O_2
REMARK    2  A    between atoms: O_2  and  C_3
REMARK    3  A    between atoms: C_13  and  O_14
REMARK    4  A    between atoms: O_14  and  C_15
REMARK    5  A    between atoms: C_17  and  O_18
REMARK    6  A    between atoms: O_18  and  C_19
REMARK                            x       y       z     vdW  Elec       q    Type
REMARK                         _______ _______ _______ _____ _____    ______ ____
ROOT
ATOM      1  C   LIG A   1     -11.731   6.655 130.507  0.00  0.00    +0.142 A 
ATOM      2  C   LIG A   1     -11.984   6.805 129.125  0.00  0.00    +0.082 A 
ATOM      3  C   LIG A   1     -10.905   6.552 128.287  0.00  0.00    +0.231 A 
ATOM      4  O   LIG A   1     -11.251   6.724 126.983  0.00  0.00    -0.445 OA
ATOM      5  C   LIG A   1     -12.550   7.097 126.963  0.00  0.00    +0.198 A 
ATOM      6  C   LIG A   1     -13.050   7.153 128.244  0.00  0.00    +0.055 A 
ATOM      7  N   LIG A   1      -9.675   6.207 128.637  0.00  0.00    -0.208 NA
ATOM      8  C   LIG A   1      -9.413   6.097 129.941  0.00  0.00    +0.120 A 
ATOM      9  C   LIG A   1     -10.412   6.281 130.929  0.00  0.00    +0.050 A 
ATOM     10  C   LIG A   1     -10.049   6.113 132.296  0.00  0.00    +0.059 A 
ATOM     11  C   LIG A   1      -8.743   5.794 132.683  0.00  0.00    +0.124 A 
ATOM     12  C   LIG A   1      -7.777   5.649 131.703  0.00  0.00    +0.093 A 
ATOM     13  C   LIG A   1      -8.104   5.802 130.347  0.00  0.00    +0.150 A 
ENDROOT
BRANCH   1  15
ATOM     14  C   LIG A   1     -13.092   8.133 131.780  0.00  0.00    +0.277 C 
ATOM     15  O   LIG A   1     -12.683   6.797 131.510  0.00  0.00    -0.494 OA
ENDBRANCH   1  15
BRANCH  11  16
ATOM     16  O   LIG A   1      -8.529   5.669 134.030  0.00  0.00    -0.495 OA
ATOM     17  C   LIG A   1      -8.302   4.348 134.522  0.00  0.00    +0.277 C 
ENDBRANCH  11  16
BRANCH  13  18
ATOM     18  O   LIG A   1      -6.990   5.637 129.545  0.00  0.00    -0.493 OA
ATOM     19  C   LIG A   1      -6.335   4.373 129.537  0.00  0.00    +0.277 C 
ENDBRANCH  13  18
TORSDOF 3
ENDMDL
MODEL 2
REMARK VINA RESULT:      -6.1      2.758      4.142
REMARK  Name = NuBBE_965
REMARK  6 active torsions:
REMARK  status: ('A' for Active; 'I' for Inactive)
REMARK    1  A    between atoms: C_1  and  O_2
REMARK    2  A    between atoms: O_2  and  C_3
REMARK    3  A    between atoms: C_13  and  O_14
REMARK    4  A    between atoms: O_14  and  C_15
REMARK    5  A    between atoms: C_17  and  O_18
REMARK    6  A    between atoms: O_18  and  C_19
REMARK                            x       y       z     vdW  Elec       q    Type
REMARK                         _______ _______ _______ _____ _____    ______ ____
ROOT
ATOM      1  C   LIG A   1      -8.444   5.788 132.796  0.00  0.00    +0.142 A 
ATOM      2  C   LIG A   1      -9.467   6.252 131.940  0.00  0.00    +0.082 A 
ATOM      3  C   LIG A   1      -9.038   6.932 130.807  0.00  0.00    +0.231 A 
ATOM      4  O   LIG A   1     -10.096   7.336 130.053  0.00  0.00    -0.445 OA
ATOM      5  C   LIG A   1     -11.216   6.932 130.691  0.00  0.00    +0.198 A 
ATOM      6  C   LIG A   1     -10.890   6.256 131.846  0.00  0.00    +0.055 A 
ATOM      7  N   LIG A   1      -7.792   7.204 130.453  0.00  0.00    -0.208 NA
ATOM      8  C   LIG A   1      -6.817   6.803 131.272  0.00  0.00    +0.120 A 
ATOM      9  C   LIG A   1      -7.079   6.061 132.450  0.00  0.00    +0.050 A 
ATOM     10  C   LIG A   1      -5.974   5.647 133.247  0.00  0.00    +0.059 A 
ATOM     11  C   LIG A   1      -4.655   5.968 132.911  0.00  0.00    +0.124 A 
ATOM     12  C   LIG A   1      -4.424   6.719 131.772  0.00  0.00    +0.093 A 
ATOM     13  C   LIG A   1      -5.491   7.137 130.961  0.00  0.00    +0.150 A 
ENDROOT
BRANCH   1  15
ATOM     14  C   LIG A   1      -9.082   3.695 133.730  0.00  0.00    +0.277 C 
ATOM     15  O   LIG A   1      -8.650   5.033 133.946  0.00  0.00    -0.494 OA
ENDBRANCH   1  15
BRANCH  11  16
ATOM     16  O   LIG A   1      -3.688   5.514 133.769  0.00  0.00    -0.495 OA
ATOM     17  C   LIG A   1      -2.350   5.496 133.272  0.00  0.00    +0.277 C 
ENDBRANCH  11  16
BRANCH  13  18
ATOM     18  O   LIG A   1      -5.039   7.890 129.894  0.00  0.00    -0.493 OA
ATOM     19  C   LIG A   1      -3.737   7.634 129.379  0.00  0.00    +0.277 C 
ENDBRANCH  13  18
TORSDOF 3
ENDMDL
MODEL 3
REMARK VINA RESULT:      -5.8      7.324      9.715
REMARK  Name = NuBBE_965
REMARK  6 active torsions:
REMARK  status: ('A' for Active; 'I' for Inactive)
REMARK    1  A    between atoms: C_1  and  O_2
REMARK    2  A    between atoms: O_2  and  C_3
REMARK    3  A    between atoms: C_13  and  O_14
REMARK    4  A    between atoms: O_14  and  C_15
REMARK    5  A    between atoms: C_17  and  O_18
REMARK    6  A    between atoms: O_18  and  C_19
REMARK                            x       y       z     vdW  Elec       q    Type
REMARK                         _______ _______ _______ _____ _____    ______ ____
ROOT
ATOM      1  C   LIG A   1      -6.992  -0.960 124.962  0.00  0.00    +0.142 A 
ATOM      2  C   LIG A   1      -7.978  -1.805 124.405  0.00  0.00    +0.082 A 
ATOM      3  C   LIG A   1      -8.882  -1.188 123.549  0.00  0.00    +0.231 A 
ATOM      4  O   LIG A   1      -9.786  -2.084 123.069  0.00  0.00    -0.445 OA
ATOM      5  C   LIG A   1      -9.483  -3.283 123.612  0.00  0.00    +0.198 A 
ATOM      6  C   LIG A   1      -8.381  -3.173 124.429  0.00  0.00    +0.055 A 
ATOM      7  N   LIG A   1      -8.933   0.092 123.216  0.00  0.00    -0.208 NA
ATOM      8  C   LIG A   1      -8.029   0.908 123.765  0.00  0.00    +0.120 A 
ATOM      9  C   LIG A   1      -7.010   0.434 124.627  0.00  0.00    +0.050 A 
ATOM     10  C   LIG A   1      -6.070   1.372 125.141  0.00  0.00    +0.059 A 
ATOM     11  C   LIG A   1      -6.138   2.735 124.835  0.00  0.00    +0.124 A 
ATOM     12  C   LIG A   1      -7.160   3.180 124.015  0.00  0.00    +0.093 A 
ATOM     13  C   LIG A   1      -8.099   2.281 123.487  0.00  0.00    +0.150 A 
ENDROOT
BRANCH   1  15
ATOM     14  C   LIG A   1      -6.342  -1.758 127.107  0.00  0.00    +0.277 C 
ATOM     15  O   LIG A   1      -5.957  -1.383 125.789  0.00  0.00    -0.494 OA
ENDBRANCH   1  15
BRANCH  11  16
ATOM     16  O   LIG A   1      -5.177   3.528 125.403  0.00  0.00    -0.495 OA
ATOM     17  C   LIG A   1      -5.624   4.498 126.349  0.00  0.00    +0.277 C 
ENDBRANCH  11  16
BRANCH  13  18
ATOM     18  O   LIG A   1      -9.040   2.938 122.717  0.00  0.00    -0.493 OA
ATOM     19  C   LIG A   1      -8.665   3.394 121.422  0.00  0.00    +0.277 C 
ENDBRANCH  13  18
TORSDOF 3
ENDMDL
MODEL 4
REMARK VINA RESULT:      -5.6      6.908      8.663
REMARK  Name = NuBBE_965
REMARK  6 active torsions:
REMARK  status: ('A' for Active; 'I' for Inactive)
REMARK    1  A    between atoms: C_1  and  O_2
REMARK    2  A    between atoms: O_2  and  C_3
REMARK    3  A    between atoms: C_13  and  O_14
REMARK    4  A    between atoms: O_14  and  C_15
REMARK    5  A    between atoms: C_17  and  O_18
REMARK    6  A    between atoms: O_18  and  C_19
REMARK                            x       y       z     vdW  Elec       q    Type
REMARK                         _______ _______ _______ _____ _____    ______ ____
ROOT
ATOM      1  C   LIG A   1      -8.171  -2.037 126.564  0.00  0.00    +0.142 A 
ATOM      2  C   LIG A   1      -8.660  -2.422 125.295  0.00  0.00    +0.082 A 
ATOM      3  C   LIG A   1      -9.039  -1.381 124.457  0.00  0.00    +0.231 A 
ATOM      4  O   LIG A   1      -9.494  -1.855 123.267  0.00  0.00    -0.445 OA
ATOM      5  C   LIG A   1      -9.423  -3.203 123.324  0.00  0.00    +0.198 A 
ATOM      6  C   LIG A   1      -8.911  -3.604 124.537  0.00  0.00    +0.055 A 
ATOM      7  N   LIG A   1      -9.010  -0.083 124.719  0.00  0.00    -0.208 NA
ATOM      8  C   LIG A   1      -8.584   0.292 125.928  0.00  0.00    +0.120 A 
ATOM      9  C   LIG A   1      -8.121  -0.641 126.888  0.00  0.00    +0.050 A 
ATOM     10  C   LIG A   1      -7.655  -0.147 128.140  0.00  0.00    +0.059 A 
ATOM     11  C   LIG A   1      -7.662   1.217 128.449  0.00  0.00    +0.124 A 
ATOM     12  C   LIG A   1      -8.146   2.108 127.507  0.00  0.00    +0.093 A 
ATOM     13  C   LIG A   1      -8.607   1.654 126.262  0.00  0.00    +0.150 A 
ENDROOT
BRANCH   1  15
ATOM     14  C   LIG A   1      -8.663  -3.681 128.212  0.00  0.00    +0.277 C 
ATOM     15  O   LIG A   1      -7.681  -2.913 127.526  0.00  0.00    -0.494 OA
ENDBRANCH   1  15
BRANCH  11  16
ATOM     16  O   LIG A   1      -7.194   1.555 129.691  0.00  0.00    -0.495 OA
ATOM     17  C   LIG A   1      -8.173   1.761 130.708  0.00  0.00    +0.277 C 
ENDBRANCH  11  16
BRANCH  13  18
ATOM     18  O   LIG A   1      -9.064   2.704 125.488  0.00  0.00    -0.493 OA
ATOM     19  C   LIG A   1      -8.118   3.478 124.758  0.00  0.00    +0.277 C 
ENDBRANCH  13  18
TORSDOF 3
ENDMDL
MODEL 5
REMARK VINA RESULT:      -5.6      8.063      9.880
REMARK  Name = NuBBE_965
REMARK  6 active torsions:
REMARK  status: ('A' for Active; 'I' for Inactive)
REMARK    1  A    between atoms: C_1  and  O_2
REMARK    2  A    between atoms: O_2  and  C_3
REMARK    3  A    between atoms: C_13  and  O_14
REMARK    4  A    between atoms: O_14  and  C_15
REMARK    5  A    between atoms: C_17  and  O_18
REMARK    6  A    between atoms: O_18  and  C_19
REMARK                            x       y       z     vdW  Elec       q    Type
REMARK                         _______ _______ _______ _____ _____    ______ ____
ROOT
ATOM      1  C   LIG A   1      -8.727  -1.728 125.464  0.00  0.00    +0.142 A 
ATOM      2  C   LIG A   1      -8.567  -2.456 126.665  0.00  0.00    +0.082 A 
ATOM      3  C   LIG A   1      -7.669  -1.917 127.577  0.00  0.00    +0.231 A 
ATOM      4  O   LIG A   1      -7.588  -2.689 128.694  0.00  0.00    -0.445 OA
ATOM      5  C   LIG A   1      -8.423  -3.736 128.514  0.00  0.00    +0.198 A 
ATOM      6  C   LIG A   1      -9.054  -3.639 127.294  0.00  0.00    +0.055 A 
ATOM      7  N   LIG A   1      -6.941  -0.820 127.440  0.00  0.00    -0.208 NA
ATOM      8  C   LIG A   1      -7.054  -0.143 126.295  0.00  0.00    +0.120 A 
ATOM      9  C   LIG A   1      -7.958  -0.533 125.275  0.00  0.00    +0.050 A 
ATOM     10  C   LIG A   1      -8.035   0.267 124.100  0.00  0.00    +0.059 A 
ATOM     11  C   LIG A   1      -7.239   1.403 123.921  0.00  0.00    +0.124 A 
ATOM     12  C   LIG A   1      -6.342   1.748 124.917  0.00  0.00    +0.093 A 
ATOM     13  C   LIG A   1      -6.245   0.984 126.090  0.00  0.00    +0.150 A 
ENDROOT
BRANCH   1  15
ATOM     14  C   LIG A   1      -9.265  -3.190 123.665  0.00  0.00    +0.277 C 
ATOM     15  O   LIG A   1      -9.619  -2.055 124.448  0.00  0.00    -0.494 OA
ENDBRANCH   1  15
BRANCH  11  16
ATOM     16  O   LIG A   1      -7.408   2.077 122.741  0.00  0.00    -0.495 OA
ATOM     17  C   LIG A   1      -8.620   2.817 122.596  0.00  0.00    +0.277 C 
ENDBRANCH  11  16
BRANCH  13  18
ATOM     18  O   LIG A   1      -5.277   1.491 126.936  0.00  0.00    -0.493 OA
ATOM     19  C   LIG A   1      -4.399   2.498 126.444  0.00  0.00    +0.277 C 
ENDBRANCH  13  18
TORSDOF 3
ENDMDL
MODEL 6
REMARK VINA RESULT:      -5.6      5.855      7.884
REMARK  Name = NuBBE_965
REMARK  6 active torsions:
REMARK  status: ('A' for Active; 'I' for Inactive)
REMARK    1  A    between atoms: C_1  and  O_2
REMARK    2  A    between atoms: O_2  and  C_3
REMARK    3  A    between atoms: C_13  and  O_14
REMARK    4  A    between atoms: O_14  and  C_15
REMARK    5  A    between atoms: C_17  and  O_18
REMARK    6  A    between atoms: O_18  and  C_19
REMARK                            x       y       z     vdW  Elec       q    Type
REMARK                         _______ _______ _______ _____ _____    ______ ____
ROOT
ATOM      1  C   LIG A   1      -7.249   2.597 123.268  0.00  0.00    +0.142 A 
ATOM      2  C   LIG A   1      -6.451   3.300 122.337  0.00  0.00    +0.082 A 
ATOM      3  C   LIG A   1      -5.599   4.254 122.879  0.00  0.00    +0.231 A 
ATOM      4  O   LIG A   1      -4.879   4.872 121.904  0.00  0.00    -0.445 OA
ATOM      5  C   LIG A   1      -5.262   4.334 120.725  0.00  0.00    +0.198 A 
ATOM      6  C   LIG A   1      -6.215   3.361 120.932  0.00  0.00    +0.055 A 
ATOM      7  N   LIG A   1      -5.465   4.586 124.153  0.00  0.00    -0.208 NA
ATOM      8  C   LIG A   1      -6.239   3.954 125.039  0.00  0.00    +0.120 A 
ATOM      9  C   LIG A   1      -7.134   2.924 124.659  0.00  0.00    +0.050 A 
ATOM     10  C   LIG A   1      -7.898   2.284 125.677  0.00  0.00    +0.059 A 
ATOM     11  C   LIG A   1      -7.801   2.655 127.022  0.00  0.00    +0.124 A 
ATOM     12  C   LIG A   1      -6.942   3.684 127.366  0.00  0.00    +0.093 A 
ATOM     13  C   LIG A   1      -6.171   4.332 126.388  0.00  0.00    +0.150 A 
ENDROOT
BRANCH   1  15
ATOM     14  C   LIG A   1      -9.391   1.963 122.451  0.00  0.00    +0.277 C 
ATOM     15  O   LIG A   1      -8.119   1.561 122.947  0.00  0.00    -0.494 OA
ENDBRANCH   1  15
BRANCH  11  16
ATOM     16  O   LIG A   1      -8.597   1.963 127.895  0.00  0.00    -0.495 OA
ATOM     17  C   LIG A   1      -8.090   1.783 129.217  0.00  0.00    +0.277 C 
ENDBRANCH  11  16
BRANCH  13  18
ATOM     18  O   LIG A   1      -5.405   5.338 126.945  0.00  0.00    -0.493 OA
ATOM     19  C   LIG A   1      -4.149   4.999 127.523  0.00  0.00    +0.277 C 
ENDBRANCH  13  18
TORSDOF 3
ENDMDL
MODEL 7
REMARK VINA RESULT:      -5.3      2.133      2.458
REMARK  Name = NuBBE_965
REMARK  6 active torsions:
REMARK  status: ('A' for Active; 'I' for Inactive)
REMARK    1  A    between atoms: C_1  and  O_2
REMARK    2  A    between atoms: O_2  and  C_3
REMARK    3  A    between atoms: C_13  and  O_14
REMARK    4  A    between atoms: O_14  and  C_15
REMARK    5  A    between atoms: C_17  and  O_18
REMARK    6  A    between atoms: O_18  and  C_19
REMARK                            x       y       z     vdW  Elec       q    Type
REMARK                         _______ _______ _______ _____ _____    ______ ____
ROOT
ATOM      1  C   LIG A   1      -9.856   6.405 130.533  0.00  0.00    +0.142 A 
ATOM      2  C   LIG A   1     -10.218   7.069 129.339  0.00  0.00    +0.082 A 
ATOM      3  C   LIG A   1      -9.764   6.481 128.165  0.00  0.00    +0.231 A 
ATOM      4  O   LIG A   1     -10.164   7.195 127.078  0.00  0.00    -0.445 OA
ATOM      5  C   LIG A   1     -10.870   8.252 127.535  0.00  0.00    +0.198 A 
ATOM      6  C   LIG A   1     -10.942   8.219 128.909  0.00  0.00    +0.055 A 
ATOM      7  N   LIG A   1      -9.024   5.390 128.043  0.00  0.00    -0.208 NA
ATOM      8  C   LIG A   1      -8.644   4.773 129.164  0.00  0.00    +0.120 A 
ATOM      9  C   LIG A   1      -9.055   5.218 130.446  0.00  0.00    +0.050 A 
ATOM     10  C   LIG A   1      -8.629   4.480 131.586  0.00  0.00    +0.059 A 
ATOM     11  C   LIG A   1      -7.808   3.352 131.475  0.00  0.00    +0.124 A 
ATOM     12  C   LIG A   1      -7.395   2.954 130.216  0.00  0.00    +0.093 A 
ATOM     13  C   LIG A   1      -7.803   3.656 129.072  0.00  0.00    +0.150 A 
ENDROOT
BRANCH   1  15
ATOM     14  C   LIG A   1     -11.625   6.543 132.118  0.00  0.00    +0.277 C 
ATOM     15  O   LIG A   1     -10.257   6.786 131.808  0.00  0.00    -0.494 OA
ENDBRANCH   1  15
BRANCH  11  16
ATOM     16  O   LIG A   1      -7.465   2.740 132.652  0.00  0.00    -0.495 OA
ATOM     17  C   LIG A   1      -7.520   1.314 132.670  0.00  0.00    +0.277 C 
ENDBRANCH  11  16
BRANCH  13  18
ATOM     18  O   LIG A   1      -7.259   3.103 127.928  0.00  0.00    -0.493 OA
ATOM     19  C   LIG A   1      -7.889   1.963 127.353  0.00  0.00    +0.277 C 
ENDBRANCH  13  18
TORSDOF 3
ENDMDL
MODEL 8
REMARK VINA RESULT:      -5.3      7.995      9.560
REMARK  Name = NuBBE_965
REMARK  6 active torsions:
REMARK  status: ('A' for Active; 'I' for Inactive)
REMARK    1  A    between atoms: C_1  and  O_2
REMARK    2  A    between atoms: O_2  and  C_3
REMARK    3  A    between atoms: C_13  and  O_14
REMARK    4  A    between atoms: O_14  and  C_15
REMARK    5  A    between atoms: C_17  and  O_18
REMARK    6  A    between atoms: O_18  and  C_19
REMARK                            x       y       z     vdW  Elec       q    Type
REMARK                         _______ _______ _______ _____ _____    ______ ____
ROOT
ATOM      1  C   LIG A   1      -6.867   2.064 124.720  0.00  0.00    +0.142 A 
ATOM      2  C   LIG A   1      -5.733   2.681 125.294  0.00  0.00    +0.082 A 
ATOM      3  C   LIG A   1      -4.911   1.848 126.043  0.00  0.00    +0.231 A 
ATOM      4  O   LIG A   1      -3.854   2.536 126.550  0.00  0.00    -0.445 OA
ATOM      5  C   LIG A   1      -3.983   3.818 126.144  0.00  0.00    +0.198 A 
ATOM      6  C   LIG A   1      -5.109   3.961 125.366  0.00  0.00    +0.055 A 
ATOM      7  N   LIG A   1      -5.080   0.558 126.290  0.00  0.00    -0.208 NA
ATOM      8  C   LIG A   1      -6.167  -0.029 125.784  0.00  0.00    +0.120 A 
ATOM      9  C   LIG A   1      -7.088   0.667 124.962  0.00  0.00    +0.050 A 
ATOM     10  C   LIG A   1      -8.202  -0.048 124.439  0.00  0.00    +0.059 A 
ATOM     11  C   LIG A   1      -8.419  -1.399 124.729  0.00  0.00    +0.124 A 
ATOM     12  C   LIG A   1      -7.524  -2.052 125.559  0.00  0.00    +0.093 A 
ATOM     13  C   LIG A   1      -6.412  -1.377 126.085  0.00  0.00    +0.150 A 
ENDROOT
BRANCH   1  15
ATOM     14  C   LIG A   1      -7.302   3.017 122.584  0.00  0.00    +0.277 C 
ATOM     15  O   LIG A   1      -7.781   2.697 123.886  0.00  0.00    -0.494 OA
ENDBRANCH   1  15
BRANCH  11  16
ATOM     16  O   LIG A   1      -9.534  -1.964 124.168  0.00  0.00    -0.495 OA
ATOM     17  C   LIG A   1      -9.378  -3.269 123.612  0.00  0.00    +0.277 C 
ENDBRANCH  11  16
BRANCH  13  18
ATOM     18  O   LIG A   1      -5.666  -2.207 126.901  0.00  0.00    -0.493 OA
ATOM     19  C   LIG A   1      -6.080  -2.391 128.250  0.00  0.00    +0.277 C 
ENDBRANCH  13  18
TORSDOF 3
ENDMDL
MODEL 9
REMARK VINA RESULT:      -5.3      6.505      8.156
REMARK  Name = NuBBE_965
REMARK  6 active torsions:
REMARK  status: ('A' for Active; 'I' for Inactive)
REMARK    1  A    between atoms: C_1  and  O_2
REMARK    2  A    between atoms: O_2  and  C_3
REMARK    3  A    between atoms: C_13  and  O_14
REMARK    4  A    between atoms: O_14  and  C_15
REMARK    5  A    between atoms: C_17  and  O_18
REMARK    6  A    between atoms: O_18  and  C_19
REMARK                            x       y       z     vdW  Elec       q    Type
REMARK                         _______ _______ _______ _____ _____    ______ ____
ROOT
ATOM      1  C   LIG A   1      -8.402  -0.988 125.225  0.00  0.00    +0.142 A 
ATOM      2  C   LIG A   1      -9.054  -0.222 124.232  0.00  0.00    +0.082 A 
ATOM      3  C   LIG A   1      -9.422   1.063 124.612  0.00  0.00    +0.231 A 
ATOM      4  O   LIG A   1     -10.040   1.713 123.590  0.00  0.00    -0.445 OA
ATOM      5  C   LIG A   1     -10.087   0.858 122.545  0.00  0.00    +0.198 A 
ATOM      6  C   LIG A   1      -9.490  -0.337 122.879  0.00  0.00    +0.055 A 
ATOM      7  N   LIG A   1      -9.247   1.637 125.792  0.00  0.00    -0.208 NA
ATOM      8  C   LIG A   1      -8.665   0.911 126.750  0.00  0.00    +0.120 A 
ATOM      9  C   LIG A   1      -8.191  -0.404 126.517  0.00  0.00    +0.050 A 
ATOM     10  C   LIG A   1      -7.554  -1.091 127.589  0.00  0.00    +0.059 A 
ATOM     11  C   LIG A   1      -7.403  -0.516 128.855  0.00  0.00    +0.124 A 
ATOM     12  C   LIG A   1      -7.900   0.759 129.068  0.00  0.00    +0.093 A 
ATOM     13  C   LIG A   1      -8.528   1.465 128.031  0.00  0.00    +0.150 A 
ENDROOT
BRANCH   1  15
ATOM     14  C   LIG A   1      -8.867  -3.307 124.973  0.00  0.00    +0.277 C 
ATOM     15  O   LIG A   1      -7.896  -2.269 125.036  0.00  0.00    -0.494 OA
ENDBRANCH   1  15
BRANCH  11  16
ATOM     16  O   LIG A   1      -6.779  -1.289 129.798  0.00  0.00    -0.495 OA
ATOM     17  C   LIG A   1      -6.699  -2.688 129.526  0.00  0.00    +0.277 C 
ENDBRANCH  11  16
BRANCH  13  18
ATOM     18  O   LIG A   1      -8.966   2.702 128.465  0.00  0.00    -0.493 OA
ATOM     19  C   LIG A   1      -8.914   2.995 129.857  0.00  0.00    +0.277 C 
ENDBRANCH  13  18
TORSDOF 3
ENDMDL
