MODEL 1
REMARK VINA RESULT:      -7.3      0.000      0.000
REMARK  Name = NuBBE_1476
REMARK  6 active torsions:
REMARK  status: ('A' for Active; 'I' for Inactive)
REMARK    1  A    between atoms: O_1  and  C_2
REMARK    2  A    between atoms: C_4  and  O_5
REMARK    3  A    between atoms: O_5  and  C_6
REMARK    4  A    between atoms: C_7  and  O_20
REMARK    5  A    between atoms: C_15  and  O_16
REMARK    6  A    between atoms: O_20  and  C_21
REMARK                            x       y       z     vdW  Elec       q    Type
REMARK                         _______ _______ _______ _____ _____    ______ ____
ROOT
ATOM      1  C   LIG A   1      -5.799   3.532 124.650  0.00  0.00    +0.133 A 
ATOM      2  C   LIG A   1      -6.602   3.044 125.681  0.00  0.00    +0.095 A 
ATOM      3  C   LIG A   1      -7.924   2.651 125.443  0.00  0.00    +0.167 A 
ATOM      4  C   LIG A   1      -8.434   2.695 124.129  0.00  0.00    +0.186 A 
ATOM      5  C   LIG A   1      -7.613   3.194 123.076  0.00  0.00    +0.100 A 
ATOM      6  C   LIG A   1      -6.303   3.639 123.351  0.00  0.00    +0.091 A 
ATOM      7  C   LIG A   1      -5.488   4.215 122.232  0.00  0.00    +0.201 A 
ATOM      8  C   LIG A   1      -6.127   4.415 120.908  0.00  0.00    +0.049 A 
ATOM      9  C   LIG A   1      -5.430   5.073 119.883  0.00  0.00    +0.014 A 
ATOM     10  C   LIG A   1      -6.042   5.280 118.648  0.00  0.00    +0.004 A 
ATOM     11  C   LIG A   1      -7.346   4.832 118.437  0.00  0.00    +0.047 A 
ATOM     12  C   LIG A   1      -8.028   4.172 119.465  0.00  0.00    +0.141 A 
ATOM     13  C   LIG A   1      -7.425   3.940 120.709  0.00  0.00    +0.093 A 
ATOM     14  N   LIG A   1      -8.129   3.355 121.772  0.00  0.00    -0.348 N 
ATOM     15  O   LIG A   1      -4.317   4.537 122.361  0.00  0.00    -0.286 OA
ATOM     16  H   LIG A   1      -8.978   2.849 121.537  0.00  0.00    +0.166 HD
ENDROOT
BRANCH   1  17
ATOM     17  O   LIG A   1      -4.522   3.907 124.951  0.00  0.00    -0.506 OA
ATOM     18  H   LIG A   1      -3.894   3.539 124.312  0.00  0.00    +0.292 HD
ENDBRANCH   1  17
BRANCH   3  19
ATOM     19  O   LIG A   1      -8.698   2.161 126.465  0.00  0.00    -0.491 OA
ATOM     20  C   LIG A   1      -8.441   0.824 126.887  0.00  0.00    +0.277 C 
ENDBRANCH   3  19
BRANCH  12  21
ATOM     21  O   LIG A   1      -9.315   3.745 119.273  0.00  0.00    -0.505 OA
ATOM     22  H   LIG A   1      -9.600   3.262 120.066  0.00  0.00    +0.292 HD
ENDBRANCH  12  21
BRANCH   4  23
ATOM     23  O   LIG A   1      -9.694   2.306 123.720  0.00  0.00    -0.489 OA
ATOM     24  C   LIG A   1      -9.922   0.933 123.420  0.00  0.00    +0.277 C 
ENDBRANCH   4  23
TORSDOF 4
ENDMDL
MODEL 2
REMARK VINA RESULT:      -6.7      6.387      8.889
REMARK  Name = NuBBE_1476
REMARK  6 active torsions:
REMARK  status: ('A' for Active; 'I' for Inactive)
REMARK    1  A    between atoms: O_1  and  C_2
REMARK    2  A    between atoms: C_4  and  O_5
REMARK    3  A    between atoms: O_5  and  C_6
REMARK    4  A    between atoms: C_7  and  O_20
REMARK    5  A    between atoms: C_15  and  O_16
REMARK    6  A    between atoms: O_20  and  C_21
REMARK                            x       y       z     vdW  Elec       q    Type
REMARK                         _______ _______ _______ _____ _____    ______ ____
ROOT
ATOM      1  C   LIG A   1      -9.562   5.096 132.252  0.00  0.00    +0.133 A 
ATOM      2  C   LIG A   1      -8.308   4.488 132.307  0.00  0.00    +0.095 A 
ATOM      3  C   LIG A   1      -7.495   4.406 131.170  0.00  0.00    +0.167 A 
ATOM      4  C   LIG A   1      -7.927   4.997 129.965  0.00  0.00    +0.186 A 
ATOM      5  C   LIG A   1      -9.209   5.617 129.910  0.00  0.00    +0.100 A 
ATOM      6  C   LIG A   1     -10.034   5.637 131.054  0.00  0.00    +0.091 A 
ATOM      7  C   LIG A   1     -11.402   6.244 130.945  0.00  0.00    +0.201 A 
ATOM      8  C   LIG A   1     -11.887   6.685 129.613  0.00  0.00    +0.049 A 
ATOM      9  C   LIG A   1     -13.208   7.132 129.459  0.00  0.00    +0.014 A 
ATOM     10  C   LIG A   1     -13.668   7.524 128.203  0.00  0.00    +0.004 A 
ATOM     11  C   LIG A   1     -12.811   7.469 127.104  0.00  0.00    +0.047 A 
ATOM     12  C   LIG A   1     -11.493   7.027 127.272  0.00  0.00    +0.141 A 
ATOM     13  C   LIG A   1     -11.008   6.643 128.529  0.00  0.00    +0.093 A 
ATOM     14  N   LIG A   1      -9.717   6.120 128.692  0.00  0.00    -0.348 N 
ATOM     15  O   LIG A   1     -12.144   6.386 131.904  0.00  0.00    -0.286 OA
ATOM     16  H   LIG A   1      -9.053   6.292 127.942  0.00  0.00    +0.166 HD
ENDROOT
BRANCH   1  17
ATOM     17  O   LIG A   1     -10.309   5.135 133.394  0.00  0.00    -0.506 OA
ATOM     18  H   LIG A   1     -11.255   5.147 133.186  0.00  0.00    +0.292 HD
ENDBRANCH   1  17
BRANCH   3  19
ATOM     19  O   LIG A   1      -6.258   3.815 131.242  0.00  0.00    -0.491 OA
ATOM     20  C   LIG A   1      -6.221   2.390 131.252  0.00  0.00    +0.277 C 
ENDBRANCH   3  19
BRANCH  12  21
ATOM     21  O   LIG A   1     -10.651   6.953 126.195  0.00  0.00    -0.505 OA
ATOM     22  H   LIG A   1     -11.104   6.471 125.484  0.00  0.00    +0.292 HD
ENDBRANCH  12  21
BRANCH   4  23
ATOM     23  O   LIG A   1      -7.232   5.041 128.773  0.00  0.00    -0.489 OA
ATOM     24  C   LIG A   1      -7.217   3.883 127.946  0.00  0.00    +0.277 C 
ENDBRANCH   4  23
TORSDOF 4
ENDMDL
MODEL 3
REMARK VINA RESULT:      -6.6      3.205      7.913
REMARK  Name = NuBBE_1476
REMARK  6 active torsions:
REMARK  status: ('A' for Active; 'I' for Inactive)
REMARK    1  A    between atoms: O_1  and  C_2
REMARK    2  A    between atoms: C_4  and  O_5
REMARK    3  A    between atoms: O_5  and  C_6
REMARK    4  A    between atoms: C_7  and  O_20
REMARK    5  A    between atoms: C_15  and  O_16
REMARK    6  A    between atoms: O_20  and  C_21
REMARK                            x       y       z     vdW  Elec       q    Type
REMARK                         _______ _______ _______ _____ _____    ______ ____
ROOT
ATOM      1  C   LIG A   1      -9.394  -0.186 123.419  0.00  0.00    +0.133 A 
ATOM      2  C   LIG A   1      -9.201   1.124 122.983  0.00  0.00    +0.095 A 
ATOM      3  C   LIG A   1      -8.499   2.051 123.765  0.00  0.00    +0.167 A 
ATOM      4  C   LIG A   1      -7.931   1.635 124.987  0.00  0.00    +0.186 A 
ATOM      5  C   LIG A   1      -8.130   0.296 125.432  0.00  0.00    +0.100 A 
ATOM      6  C   LIG A   1      -8.889  -0.603 124.654  0.00  0.00    +0.091 A 
ATOM      7  C   LIG A   1      -9.131  -1.986 125.181  0.00  0.00    +0.201 A 
ATOM      8  C   LIG A   1      -8.674  -2.321 126.552  0.00  0.00    +0.049 A 
ATOM      9  C   LIG A   1      -9.003  -3.562 127.119  0.00  0.00    +0.014 A 
ATOM     10  C   LIG A   1      -8.593  -3.864 128.416  0.00  0.00    +0.004 A 
ATOM     11  C   LIG A   1      -7.857  -2.931 129.146  0.00  0.00    +0.047 A 
ATOM     12  C   LIG A   1      -7.530  -1.699 128.567  0.00  0.00    +0.141 A 
ATOM     13  C   LIG A   1      -7.920  -1.382 127.259  0.00  0.00    +0.093 A 
ATOM     14  N   LIG A   1      -7.670  -0.120 126.701  0.00  0.00    -0.348 N 
ATOM     15  O   LIG A   1      -9.696  -2.853 124.534  0.00  0.00    -0.286 OA
ATOM     16  H   LIG A   1      -6.959   0.450 127.152  0.00  0.00    +0.166 HD
ENDROOT
BRANCH   1  17
ATOM     17  O   LIG A   1     -10.094  -1.036 122.614  0.00  0.00    -0.506 OA
ATOM     18  H   LIG A   1      -9.806  -1.951 122.744  0.00  0.00    +0.292 HD
ENDBRANCH   1  17
BRANCH   3  19
ATOM     19  O   LIG A   1      -8.306   3.333 123.317  0.00  0.00    -0.491 OA
ATOM     20  C   LIG A   1      -7.406   3.508 122.225  0.00  0.00    +0.277 C 
ENDBRANCH   3  19
BRANCH  12  21
ATOM     21  O   LIG A   1      -6.823  -0.769 129.282  0.00  0.00    -0.505 OA
ATOM     22  H   LIG A   1      -7.439  -0.083 129.586  0.00  0.00    +0.292 HD
ENDBRANCH  12  21
BRANCH   4  23
ATOM     23  O   LIG A   1      -7.179   2.407 125.850  0.00  0.00    -0.489 OA
ATOM     24  C   LIG A   1      -5.805   2.627 125.551  0.00  0.00    +0.277 C 
ENDBRANCH   4  23
TORSDOF 4
ENDMDL
MODEL 4
REMARK VINA RESULT:      -6.4      1.290      3.447
REMARK  Name = NuBBE_1476
REMARK  6 active torsions:
REMARK  status: ('A' for Active; 'I' for Inactive)
REMARK    1  A    between atoms: O_1  and  C_2
REMARK    2  A    between atoms: C_4  and  O_5
REMARK    3  A    between atoms: O_5  and  C_6
REMARK    4  A    between atoms: C_7  and  O_20
REMARK    5  A    between atoms: C_15  and  O_16
REMARK    6  A    between atoms: O_20  and  C_21
REMARK                            x       y       z     vdW  Elec       q    Type
REMARK                         _______ _______ _______ _____ _____    ______ ____
ROOT
ATOM      1  C   LIG A   1      -8.938   1.847 123.835  0.00  0.00    +0.133 A 
ATOM      2  C   LIG A   1      -8.604   1.369 125.101  0.00  0.00    +0.095 A 
ATOM      3  C   LIG A   1      -7.368   1.673 125.685  0.00  0.00    +0.167 A 
ATOM      4  C   LIG A   1      -6.471   2.522 125.004  0.00  0.00    +0.186 A 
ATOM      5  C   LIG A   1      -6.814   3.009 123.709  0.00  0.00    +0.100 A 
ATOM      6  C   LIG A   1      -8.041   2.642 123.118  0.00  0.00    +0.091 A 
ATOM      7  C   LIG A   1      -8.343   3.122 121.729  0.00  0.00    +0.201 A 
ATOM      8  C   LIG A   1      -7.294   3.856 120.979  0.00  0.00    +0.049 A 
ATOM      9  C   LIG A   1      -7.501   4.199 119.634  0.00  0.00    +0.014 A 
ATOM     10  C   LIG A   1      -6.504   4.868 118.926  0.00  0.00    +0.004 A 
ATOM     11  C   LIG A   1      -5.304   5.192 119.558  0.00  0.00    +0.047 A 
ATOM     12  C   LIG A   1      -5.112   4.849 120.902  0.00  0.00    +0.141 A 
ATOM     13  C   LIG A   1      -6.107   4.191 121.636  0.00  0.00    +0.093 A 
ATOM     14  N   LIG A   1      -5.893   3.769 122.956  0.00  0.00    -0.348 N 
ATOM     15  O   LIG A   1      -9.416   2.930 121.179  0.00  0.00    -0.286 OA
ATOM     16  H   LIG A   1      -5.119   4.199 123.456  0.00  0.00    +0.166 HD
ENDROOT
BRANCH   1  17
ATOM     17  O   LIG A   1     -10.155   1.506 123.319  0.00  0.00    -0.506 OA
ATOM     18  H   LIG A   1     -10.594   0.846 123.876  0.00  0.00    +0.292 HD
ENDBRANCH   1  17
BRANCH   3  19
ATOM     19  O   LIG A   1      -7.058   1.206 126.937  0.00  0.00    -0.491 OA
ATOM     20  C   LIG A   1      -8.137   1.055 127.857  0.00  0.00    +0.277 C 
ENDBRANCH   3  19
BRANCH  12  21
ATOM     21  O   LIG A   1      -3.929   5.148 121.525  0.00  0.00    -0.505 OA
ATOM     22  H   LIG A   1      -3.636   4.364 122.018  0.00  0.00    +0.292 HD
ENDBRANCH  12  21
BRANCH   4  23
ATOM     23  O   LIG A   1      -5.239   2.951 125.456  0.00  0.00    -0.489 OA
ATOM     24  C   LIG A   1      -5.188   4.019 126.396  0.00  0.00    +0.277 C 
ENDBRANCH   4  23
TORSDOF 4
ENDMDL
MODEL 5
REMARK VINA RESULT:      -6.4      2.994      5.919
REMARK  Name = NuBBE_1476
REMARK  6 active torsions:
REMARK  status: ('A' for Active; 'I' for Inactive)
REMARK    1  A    between atoms: O_1  and  C_2
REMARK    2  A    between atoms: C_4  and  O_5
REMARK    3  A    between atoms: O_5  and  C_6
REMARK    4  A    between atoms: C_7  and  O_20
REMARK    5  A    between atoms: C_15  and  O_16
REMARK    6  A    between atoms: O_20  and  C_21
REMARK                            x       y       z     vdW  Elec       q    Type
REMARK                         _______ _______ _______ _____ _____    ______ ____
ROOT
ATOM      1  C   LIG A   1      -5.319   1.162 126.307  0.00  0.00    +0.133 A 
ATOM      2  C   LIG A   1      -5.034   2.484 125.968  0.00  0.00    +0.095 A 
ATOM      3  C   LIG A   1      -5.737   3.135 124.947  0.00  0.00    +0.167 A 
ATOM      4  C   LIG A   1      -6.790   2.462 124.292  0.00  0.00    +0.186 A 
ATOM      5  C   LIG A   1      -7.079   1.110 124.640  0.00  0.00    +0.100 A 
ATOM      6  C   LIG A   1      -6.318   0.457 125.632  0.00  0.00    +0.091 A 
ATOM      7  C   LIG A   1      -6.610  -0.984 125.930  0.00  0.00    +0.201 A 
ATOM      8  C   LIG A   1      -7.596  -1.706 125.089  0.00  0.00    +0.049 A 
ATOM      9  C   LIG A   1      -7.791  -3.085 125.259  0.00  0.00    +0.014 A 
ATOM     10  C   LIG A   1      -8.701  -3.764 124.452  0.00  0.00    +0.004 A 
ATOM     11  C   LIG A   1      -9.415  -3.069 123.477  0.00  0.00    +0.047 A 
ATOM     12  C   LIG A   1      -9.217  -1.692 123.321  0.00  0.00    +0.141 A 
ATOM     13  C   LIG A   1      -8.318  -0.988 124.132  0.00  0.00    +0.093 A 
ATOM     14  N   LIG A   1      -8.051   0.374 123.928  0.00  0.00    -0.348 N 
ATOM     15  O   LIG A   1      -6.064  -1.599 126.833  0.00  0.00    -0.286 OA
ATOM     16  H   LIG A   1      -8.725   0.896 123.376  0.00  0.00    +0.166 HD
ENDROOT
BRANCH   1  17
ATOM     17  O   LIG A   1      -4.590   0.581 127.305  0.00  0.00    -0.506 OA
ATOM     18  H   LIG A   1      -3.849   0.075 126.941  0.00  0.00    +0.292 HD
ENDBRANCH   1  17
BRANCH   3  19
ATOM     19  O   LIG A   1      -5.454   4.440 124.632  0.00  0.00    -0.491 OA
ATOM     20  C   LIG A   1      -6.303   5.440 125.193  0.00  0.00    +0.277 C 
ENDBRANCH   3  19
BRANCH  12  21
ATOM     21  O   LIG A   1      -9.901  -1.004 122.353  0.00  0.00    -0.505 OA
ATOM     22  H   LIG A   1      -9.271  -0.441 121.875  0.00  0.00    +0.292 HD
ENDBRANCH  12  21
BRANCH   4  23
ATOM     23  O   LIG A   1      -7.604   2.972 123.301  0.00  0.00    -0.489 OA
ATOM     24  C   LIG A   1      -7.041   3.230 122.019  0.00  0.00    +0.277 C 
ENDBRANCH   4  23
TORSDOF 4
ENDMDL
MODEL 6
REMARK VINA RESULT:      -6.1      3.940      5.800
REMARK  Name = NuBBE_1476
REMARK  6 active torsions:
REMARK  status: ('A' for Active; 'I' for Inactive)
REMARK    1  A    between atoms: O_1  and  C_2
REMARK    2  A    between atoms: C_4  and  O_5
REMARK    3  A    between atoms: O_5  and  C_6
REMARK    4  A    between atoms: C_7  and  O_20
REMARK    5  A    between atoms: C_15  and  O_16
REMARK    6  A    between atoms: O_20  and  C_21
REMARK                            x       y       z     vdW  Elec       q    Type
REMARK                         _______ _______ _______ _____ _____    ______ ____
ROOT
ATOM      1  C   LIG A   1      -9.240   1.103 123.866  0.00  0.00    +0.133 A 
ATOM      2  C   LIG A   1      -9.328  -0.180 123.327  0.00  0.00    +0.095 A 
ATOM      3  C   LIG A   1      -8.263  -1.083 123.433  0.00  0.00    +0.167 A 
ATOM      4  C   LIG A   1      -7.105  -0.708 124.146  0.00  0.00    +0.186 A 
ATOM      5  C   LIG A   1      -7.017   0.604 124.695  0.00  0.00    +0.100 A 
ATOM      6  C   LIG A   1      -8.080   1.516 124.525  0.00  0.00    +0.091 A 
ATOM      7  C   LIG A   1      -7.928   2.908 125.063  0.00  0.00    +0.201 A 
ATOM      8  C   LIG A   1      -6.623   3.316 125.640  0.00  0.00    +0.049 A 
ATOM      9  C   LIG A   1      -6.412   4.648 126.029  0.00  0.00    +0.014 A 
ATOM     10  C   LIG A   1      -5.177   5.033 126.548  0.00  0.00    +0.004 A 
ATOM     11  C   LIG A   1      -4.157   4.092 126.679  0.00  0.00    +0.047 A 
ATOM     12  C   LIG A   1      -4.382   2.765 126.294  0.00  0.00    +0.141 A 
ATOM     13  C   LIG A   1      -5.621   2.354 125.784  0.00  0.00    +0.093 A 
ATOM     14  N   LIG A   1      -5.829   1.048 125.317  0.00  0.00    -0.348 N 
ATOM     15  O   LIG A   1      -8.831   3.729 125.042  0.00  0.00    -0.286 OA
ATOM     16  H   LIG A   1      -5.165   0.341 125.619  0.00  0.00    +0.166 HD
ENDROOT
BRANCH   1  17
ATOM     17  O   LIG A   1     -10.310   1.937 123.719  0.00  0.00    -0.506 OA
ATOM     18  H   LIG A   1     -10.427   2.189 122.791  0.00  0.00    +0.292 HD
ENDBRANCH   1  17
BRANCH   3  19
ATOM     19  O   LIG A   1      -8.369  -2.347 122.908  0.00  0.00    -0.491 OA
ATOM     20  C   LIG A   1      -9.347  -3.208 123.488  0.00  0.00    +0.277 C 
ENDBRANCH   3  19
BRANCH  12  21
ATOM     21  O   LIG A   1      -3.380   1.838 126.403  0.00  0.00    -0.505 OA
ATOM     22  H   LIG A   1      -2.611   2.264 126.816  0.00  0.00    +0.292 HD
ENDBRANCH  12  21
BRANCH   4  23
ATOM     23  O   LIG A   1      -5.991  -1.489 124.377  0.00  0.00    -0.489 OA
ATOM     24  C   LIG A   1      -6.038  -2.455 125.423  0.00  0.00    +0.277 C 
ENDBRANCH   4  23
TORSDOF 4
ENDMDL
MODEL 7
REMARK VINA RESULT:      -5.9      4.499      9.037
REMARK  Name = NuBBE_1476
REMARK  6 active torsions:
REMARK  status: ('A' for Active; 'I' for Inactive)
REMARK    1  A    between atoms: O_1  and  C_2
REMARK    2  A    between atoms: C_4  and  O_5
REMARK    3  A    between atoms: O_5  and  C_6
REMARK    4  A    between atoms: C_7  and  O_20
REMARK    5  A    between atoms: C_15  and  O_16
REMARK    6  A    between atoms: O_20  and  C_21
REMARK                            x       y       z     vdW  Elec       q    Type
REMARK                         _______ _______ _______ _____ _____    ______ ____
ROOT
ATOM      1  C   LIG A   1      -8.663  -1.285 125.710  0.00  0.00    +0.133 A 
ATOM      2  C   LIG A   1      -8.475  -0.236 124.810  0.00  0.00    +0.095 A 
ATOM      3  C   LIG A   1      -7.296   0.520 124.818  0.00  0.00    +0.167 A 
ATOM      4  C   LIG A   1      -6.260   0.178 125.712  0.00  0.00    +0.186 A 
ATOM      5  C   LIG A   1      -6.455  -0.894 126.631  0.00  0.00    +0.100 A 
ATOM      6  C   LIG A   1      -7.674  -1.603 126.643  0.00  0.00    +0.091 A 
ATOM      7  C   LIG A   1      -7.868  -2.685 127.664  0.00  0.00    +0.201 A 
ATOM      8  C   LIG A   1      -6.828  -2.885 128.704  0.00  0.00    +0.049 A 
ATOM      9  C   LIG A   1      -7.044  -3.797 129.748  0.00  0.00    +0.014 A 
ATOM     10  C   LIG A   1      -6.075  -3.966 130.736  0.00  0.00    +0.004 A 
ATOM     11  C   LIG A   1      -4.895  -3.226 130.682  0.00  0.00    +0.047 A 
ATOM     12  C   LIG A   1      -4.689  -2.323 129.632  0.00  0.00    +0.141 A 
ATOM     13  C   LIG A   1      -5.643  -2.150 128.621  0.00  0.00    +0.093 A 
ATOM     14  N   LIG A   1      -5.483  -1.189 127.612  0.00  0.00    -0.348 N 
ATOM     15  O   LIG A   1      -8.851  -3.408 127.686  0.00  0.00    -0.286 OA
ATOM     16  H   LIG A   1      -4.544  -0.828 127.467  0.00  0.00    +0.166 HD
ENDROOT
BRANCH   1  17
ATOM     17  O   LIG A   1      -9.839  -1.976 125.656  0.00  0.00    -0.506 OA
ATOM     18  H   LIG A   1      -9.810  -2.653 124.964  0.00  0.00    +0.292 HD
ENDBRANCH   1  17
BRANCH   3  19
ATOM     19  O   LIG A   1      -7.120   1.541 123.918  0.00  0.00    -0.491 OA
ATOM     20  C   LIG A   1      -7.938   2.697 124.084  0.00  0.00    +0.277 C 
ENDBRANCH   3  19
BRANCH  12  21
ATOM     21  O   LIG A   1      -3.540  -1.579 129.581  0.00  0.00    -0.505 OA
ATOM     22  H   LIG A   1      -2.885  -2.061 129.050  0.00  0.00    +0.292 HD
ENDBRANCH  12  21
BRANCH   4  23
ATOM     23  O   LIG A   1      -5.028   0.791 125.817  0.00  0.00    -0.489 OA
ATOM     24  C   LIG A   1      -4.950   2.069 126.440  0.00  0.00    +0.277 C 
ENDBRANCH   4  23
TORSDOF 4
ENDMDL
MODEL 8
REMARK VINA RESULT:      -5.9      3.939      6.157
REMARK  Name = NuBBE_1476
REMARK  6 active torsions:
REMARK  status: ('A' for Active; 'I' for Inactive)
REMARK    1  A    between atoms: O_1  and  C_2
REMARK    2  A    between atoms: C_4  and  O_5
REMARK    3  A    between atoms: O_5  and  C_6
REMARK    4  A    between atoms: C_7  and  O_20
REMARK    5  A    between atoms: C_15  and  O_16
REMARK    6  A    between atoms: O_20  and  C_21
REMARK                            x       y       z     vdW  Elec       q    Type
REMARK                         _______ _______ _______ _____ _____    ______ ____
ROOT
ATOM      1  C   LIG A   1      -8.107   3.331 124.865  0.00  0.00    +0.133 A 
ATOM      2  C   LIG A   1      -7.893   4.182 125.949  0.00  0.00    +0.095 A 
ATOM      3  C   LIG A   1      -7.768   3.677 127.250  0.00  0.00    +0.167 A 
ATOM      4  C   LIG A   1      -7.802   2.282 127.457  0.00  0.00    +0.186 A 
ATOM      5  C   LIG A   1      -8.022   1.415 126.348  0.00  0.00    +0.100 A 
ATOM      6  C   LIG A   1      -8.203   1.951 125.056  0.00  0.00    +0.091 A 
ATOM      7  C   LIG A   1      -8.493   1.013 123.921  0.00  0.00    +0.201 A 
ATOM      8  C   LIG A   1      -8.705  -0.425 124.216  0.00  0.00    +0.049 A 
ATOM      9  C   LIG A   1      -9.108  -1.300 123.194  0.00  0.00    +0.014 A 
ATOM     10  C   LIG A   1      -9.329  -2.646 123.479  0.00  0.00    +0.004 A 
ATOM     11  C   LIG A   1      -9.150  -3.118 124.779  0.00  0.00    +0.047 A 
ATOM     12  C   LIG A   1      -8.742  -2.237 125.788  0.00  0.00    +0.141 A 
ATOM     13  C   LIG A   1      -8.499  -0.883 125.519  0.00  0.00    +0.093 A 
ATOM     14  N   LIG A   1      -8.172   0.024 126.538  0.00  0.00    -0.348 N 
ATOM     15  O   LIG A   1      -8.571   1.381 122.760  0.00  0.00    -0.286 OA
ATOM     16  H   LIG A   1      -7.838  -0.370 127.413  0.00  0.00    +0.166 HD
ENDROOT
BRANCH   1  17
ATOM     17  O   LIG A   1      -8.230   3.888 123.625  0.00  0.00    -0.506 OA
ATOM     18  H   LIG A   1      -8.930   4.557 123.615  0.00  0.00    +0.292 HD
ENDBRANCH   1  17
BRANCH   3  19
ATOM     19  O   LIG A   1      -7.546   4.525 128.305  0.00  0.00    -0.491 OA
ATOM     20  C   LIG A   1      -8.669   4.848 129.123  0.00  0.00    +0.277 C 
ENDBRANCH   3  19
BRANCH  12  21
ATOM     21  O   LIG A   1      -8.581  -2.688 127.071  0.00  0.00    -0.505 OA
ATOM     22  H   LIG A   1      -7.953  -3.429 127.059  0.00  0.00    +0.292 HD
ENDBRANCH  12  21
BRANCH   4  23
ATOM     23  O   LIG A   1      -7.653   1.625 128.662  0.00  0.00    -0.489 OA
ATOM     24  C   LIG A   1      -6.344   1.468 129.198  0.00  0.00    +0.277 C 
ENDBRANCH   4  23
TORSDOF 4
ENDMDL
MODEL 9
REMARK VINA RESULT:      -5.8      3.553      6.410
REMARK  Name = NuBBE_1476
REMARK  6 active torsions:
REMARK  status: ('A' for Active; 'I' for Inactive)
REMARK    1  A    between atoms: O_1  and  C_2
REMARK    2  A    between atoms: C_4  and  O_5
REMARK    3  A    between atoms: O_5  and  C_6
REMARK    4  A    between atoms: C_7  and  O_20
REMARK    5  A    between atoms: C_15  and  O_16
REMARK    6  A    between atoms: O_20  and  C_21
REMARK                            x       y       z     vdW  Elec       q    Type
REMARK                         _______ _______ _______ _____ _____    ______ ____
ROOT
ATOM      1  C   LIG A   1      -9.088  -2.454 126.106  0.00  0.00    +0.133 A 
ATOM      2  C   LIG A   1      -8.718  -3.234 127.202  0.00  0.00    +0.095 A 
ATOM      3  C   LIG A   1      -7.699  -2.823 128.070  0.00  0.00    +0.167 A 
ATOM      4  C   LIG A   1      -7.076  -1.574 127.864  0.00  0.00    +0.186 A 
ATOM      5  C   LIG A   1      -7.455  -0.779 126.743  0.00  0.00    +0.100 A 
ATOM      6  C   LIG A   1      -8.444  -1.241 125.851  0.00  0.00    +0.091 A 
ATOM      7  C   LIG A   1      -8.775  -0.408 124.648  0.00  0.00    +0.201 A 
ATOM      8  C   LIG A   1      -7.965   0.804 124.371  0.00  0.00    +0.049 A 
ATOM      9  C   LIG A   1      -8.165   1.527 123.184  0.00  0.00    +0.014 A 
ATOM     10  C   LIG A   1      -7.388   2.652 122.916  0.00  0.00    +0.004 A 
ATOM     11  C   LIG A   1      -6.413   3.054 123.828  0.00  0.00    +0.047 A 
ATOM     12  C   LIG A   1      -6.227   2.328 125.011  0.00  0.00    +0.141 A 
ATOM     13  C   LIG A   1      -7.009   1.204 125.307  0.00  0.00    +0.093 A 
ATOM     14  N   LIG A   1      -6.774   0.422 126.447  0.00  0.00    -0.348 N 
ATOM     15  O   LIG A   1      -9.679  -0.686 123.877  0.00  0.00    -0.286 OA
ATOM     16  H   LIG A   1      -6.225   0.846 127.190  0.00  0.00    +0.166 HD
ENDROOT
BRANCH   1  17
ATOM     17  O   LIG A   1     -10.082  -2.917 125.294  0.00  0.00    -0.506 OA
ATOM     18  H   LIG A   1     -10.655  -2.192 125.002  0.00  0.00    +0.292 HD
ENDBRANCH   1  17
BRANCH   3  19
ATOM     19  O   LIG A   1      -7.354  -3.594 129.151  0.00  0.00    -0.491 OA
ATOM     20  C   LIG A   1      -7.776  -3.135 130.434  0.00  0.00    +0.277 C 
ENDBRANCH   3  19
BRANCH  12  21
ATOM     21  O   LIG A   1      -5.260   2.706 125.905  0.00  0.00    -0.505 OA
ATOM     22  H   LIG A   1      -5.489   2.342 126.776  0.00  0.00    +0.292 HD
ENDBRANCH  12  21
BRANCH   4  23
ATOM     23  O   LIG A   1      -6.091  -1.006 128.647  0.00  0.00    -0.489 OA
ATOM     24  C   LIG A   1      -4.812  -1.630 128.696  0.00  0.00    +0.277 C 
ENDBRANCH   4  23
TORSDOF 4
ENDMDL
