MODEL 1
REMARK VINA RESULT:      -5.8      0.000      0.000
REMARK  Name = NuBBE_452
REMARK  15 active torsions:
REMARK  status: ('A' for Active; 'I' for Inactive)
REMARK    1  A    between atoms: O_1  and  C_2
REMARK    2  A    between atoms: C_4  and  C_6
REMARK    3  A    between atoms: C_9  and  C_11
REMARK    4  A    between atoms: C_11  and  C_12
REMARK    5  A    between atoms: C_12  and  C_13
REMARK    6  A    between atoms: C_13  and  C_14
REMARK    7  A    between atoms: C_14  and  C_15
REMARK    8  A    between atoms: C_15  and  C_16
REMARK    9  A    between atoms: C_16  and  C_17
REMARK   10  A    between atoms: C_17  and  C_18
REMARK   11  A    between atoms: C_18  and  C_19
REMARK   12  A    between atoms: C_19  and  C_20
REMARK   13  A    between atoms: C_20  and  C_21
REMARK   14  A    between atoms: C_21  and  O_22
REMARK   15  A    between atoms: C_21  and  C_23
REMARK                            x       y       z     vdW  Elec       q    Type
REMARK                         _______ _______ _______ _____ _____    ______ ____
ROOT
ATOM      1  C   LIG A   1      -9.747   4.849 130.283  0.00  0.00    +0.002 C 
ENDROOT
BRANCH   1   2
ATOM      2  C   LIG A   1     -11.167   5.254 130.817  0.00  0.00    +0.019 C 
BRANCH   2   8
ATOM      3  C   LIG A   1     -12.260   8.667 128.261  0.00  0.00    +0.131 C 
ATOM      4  C   LIG A   1     -12.566   7.220 127.809  0.00  0.00    +0.079 C 
ATOM      5  C   LIG A   1     -12.360   7.130 126.306  0.00  0.00    +0.026 C 
ATOM      6  N   LIG A   1     -11.698   6.212 128.495  0.00  0.00    -0.308 NA
ATOM      7  H   LIG A   1     -11.836   5.300 128.086  0.00  0.00    +0.122 HD
ATOM      8  C   LIG A   1     -12.083   6.148 129.912  0.00  0.00    +0.054 C 
ATOM      9  C   LIG A   1     -12.061   7.556 130.402  0.00  0.00    +0.021 C 
ATOM     10  C   LIG A   1     -12.599   8.776 129.712  0.00  0.00    +0.034 C 
BRANCH   3  11
ATOM     11  O   LIG A   1     -10.876   8.979 128.103  0.00  0.00    -0.390 OA
ATOM     12  H   LIG A   1     -10.397   8.170 128.405  0.00  0.00    +0.210 HD
ENDBRANCH   3  11
ENDBRANCH   2   8
ENDBRANCH   1   2
BRANCH   1  13
ATOM     13  C   LIG A   1      -9.233   3.371 130.305  0.00  0.00    +0.000 C 
BRANCH  13  14
ATOM     14  C   LIG A   1      -9.720   2.526 131.462  0.00  0.00    -0.000 C 
BRANCH  14  15
ATOM     15  C   LIG A   1      -9.047   2.319 132.781  0.00  0.00    -0.000 C 
BRANCH  15  16
ATOM     16  C   LIG A   1      -9.399   3.424 133.715  0.00  0.00    -0.000 C 
BRANCH  16  17
ATOM     17  C   LIG A   1      -8.142   4.068 134.271  0.00  0.00    -0.000 C 
BRANCH  17  18
ATOM     18  C   LIG A   1      -8.178   5.598 134.186  0.00  0.00    +0.000 C 
BRANCH  18  19
ATOM     19  C   LIG A   1      -7.856   6.155 132.799  0.00  0.00    +0.002 C 
BRANCH  19  20
ATOM     20  C   LIG A   1      -6.422   5.889 132.314  0.00  0.00    +0.031 C 
BRANCH  20  21
ATOM     21  C   LIG A   1      -6.185   6.415 130.893  0.00  0.00    +0.111 C 
ATOM     22  C   LIG A   1      -4.820   7.077 130.753  0.00  0.00    +0.037 C 
BRANCH  21  23
ATOM     23  O   LIG A   1      -7.188   7.388 130.554  0.00  0.00    -0.392 OA
ATOM     24  H   LIG A   1      -7.759   7.485 131.292  0.00  0.00    +0.210 HD
ENDBRANCH  21  23
ENDBRANCH  20  21
ENDBRANCH  19  20
ENDBRANCH  18  19
ENDBRANCH  17  18
ENDBRANCH  16  17
ENDBRANCH  15  16
ENDBRANCH  14  15
ENDBRANCH  13  14
ENDBRANCH   1  13
TORSDOF 13
ENDMDL
MODEL 2
REMARK VINA RESULT:      -5.8      2.359      3.897
REMARK  Name = NuBBE_452
REMARK  15 active torsions:
REMARK  status: ('A' for Active; 'I' for Inactive)
REMARK    1  A    between atoms: O_1  and  C_2
REMARK    2  A    between atoms: C_4  and  C_6
REMARK    3  A    between atoms: C_9  and  C_11
REMARK    4  A    between atoms: C_11  and  C_12
REMARK    5  A    between atoms: C_12  and  C_13
REMARK    6  A    between atoms: C_13  and  C_14
REMARK    7  A    between atoms: C_14  and  C_15
REMARK    8  A    between atoms: C_15  and  C_16
REMARK    9  A    between atoms: C_16  and  C_17
REMARK   10  A    between atoms: C_17  and  C_18
REMARK   11  A    between atoms: C_18  and  C_19
REMARK   12  A    between atoms: C_19  and  C_20
REMARK   13  A    between atoms: C_20  and  C_21
REMARK   14  A    between atoms: C_21  and  O_22
REMARK   15  A    between atoms: C_21  and  C_23
REMARK                            x       y       z     vdW  Elec       q    Type
REMARK                         _______ _______ _______ _____ _____    ______ ____
ROOT
ATOM      1  C   LIG A   1      -9.242   5.430 130.399  0.00  0.00    +0.002 C 
ENDROOT
BRANCH   1   2
ATOM      2  C   LIG A   1     -10.756   5.267 130.783  0.00  0.00    +0.019 C 
BRANCH   2   8
ATOM      3  C   LIG A   1     -12.374   8.598 128.403  0.00  0.00    +0.131 C 
ATOM      4  C   LIG A   1     -12.594   7.134 127.953  0.00  0.00    +0.079 C 
ATOM      5  C   LIG A   1     -12.521   7.079 126.436  0.00  0.00    +0.026 C 
ATOM      6  N   LIG A   1     -11.581   6.199 128.538  0.00  0.00    -0.308 NA
ATOM      7  H   LIG A   1     -11.677   5.283 128.125  0.00  0.00    +0.122 HD
ATOM      8  C   LIG A   1     -11.826   6.086 129.982  0.00  0.00    +0.054 C 
ATOM      9  C   LIG A   1     -11.882   7.486 130.495  0.00  0.00    +0.021 C 
ATOM     10  C   LIG A   1     -12.586   8.660 129.880  0.00  0.00    +0.034 C 
BRANCH   3  11
ATOM     11  O   LIG A   1     -11.043   9.033 128.124  0.00  0.00    -0.390 OA
ATOM     12  H   LIG A   1     -11.117   9.558 127.291  0.00  0.00    +0.210 HD
ENDBRANCH   3  11
ENDBRANCH   2   8
ENDBRANCH   1   2
BRANCH   1  13
ATOM     13  C   LIG A   1      -8.312   6.482 131.090  0.00  0.00    +0.000 C 
BRANCH  13  14
ATOM     14  C   LIG A   1      -7.748   6.074 132.434  0.00  0.00    -0.000 C 
BRANCH  14  15
ATOM     15  C   LIG A   1      -8.489   5.937 133.726  0.00  0.00    -0.000 C 
BRANCH  15  16
ATOM     16  C   LIG A   1      -8.218   4.604 134.333  0.00  0.00    -0.000 C 
BRANCH  16  17
ATOM     17  C   LIG A   1      -9.221   3.581 133.834  0.00  0.00    -0.000 C 
BRANCH  17  18
ATOM     18  C   LIG A   1      -8.566   2.467 133.009  0.00  0.00    +0.000 C 
BRANCH  18  19
ATOM     19  C   LIG A   1      -9.456   1.903 131.901  0.00  0.00    +0.002 C 
BRANCH  19  20
ATOM     20  C   LIG A   1      -9.419   0.372 131.762  0.00  0.00    +0.031 C 
BRANCH  20  21
ATOM     21  C   LIG A   1      -8.018  -0.198 132.016  0.00  0.00    +0.111 C 
ATOM     22  C   LIG A   1      -7.388  -0.746 130.741  0.00  0.00    +0.037 C 
BRANCH  21  23
ATOM     23  O   LIG A   1      -8.086  -1.266 132.974  0.00  0.00    -0.392 OA
ATOM     24  H   LIG A   1      -8.810  -1.097 133.546  0.00  0.00    +0.210 HD
ENDBRANCH  21  23
ENDBRANCH  20  21
ENDBRANCH  19  20
ENDBRANCH  18  19
ENDBRANCH  17  18
ENDBRANCH  16  17
ENDBRANCH  15  16
ENDBRANCH  14  15
ENDBRANCH  13  14
ENDBRANCH   1  13
TORSDOF 13
ENDMDL
MODEL 3
REMARK VINA RESULT:      -5.8      2.729      4.324
REMARK  Name = NuBBE_452
REMARK  15 active torsions:
REMARK  status: ('A' for Active; 'I' for Inactive)
REMARK    1  A    between atoms: O_1  and  C_2
REMARK    2  A    between atoms: C_4  and  C_6
REMARK    3  A    between atoms: C_9  and  C_11
REMARK    4  A    between atoms: C_11  and  C_12
REMARK    5  A    between atoms: C_12  and  C_13
REMARK    6  A    between atoms: C_13  and  C_14
REMARK    7  A    between atoms: C_14  and  C_15
REMARK    8  A    between atoms: C_15  and  C_16
REMARK    9  A    between atoms: C_16  and  C_17
REMARK   10  A    between atoms: C_17  and  C_18
REMARK   11  A    between atoms: C_18  and  C_19
REMARK   12  A    between atoms: C_19  and  C_20
REMARK   13  A    between atoms: C_20  and  C_21
REMARK   14  A    between atoms: C_21  and  O_22
REMARK   15  A    between atoms: C_21  and  C_23
REMARK                            x       y       z     vdW  Elec       q    Type
REMARK                         _______ _______ _______ _____ _____    ______ ____
ROOT
ATOM      1  C   LIG A   1      -9.630   6.317 131.608  0.00  0.00    +0.002 C 
ENDROOT
BRANCH   1   2
ATOM      2  C   LIG A   1     -10.786   5.461 130.978  0.00  0.00    +0.019 C 
BRANCH   2   8
ATOM      3  C   LIG A   1     -12.465   8.589 128.375  0.00  0.00    +0.131 C 
ATOM      4  C   LIG A   1     -12.586   7.097 127.986  0.00  0.00    +0.079 C 
ATOM      5  C   LIG A   1     -12.440   6.978 126.477  0.00  0.00    +0.026 C 
ATOM      6  N   LIG A   1     -11.554   6.246 128.657  0.00  0.00    -0.308 NA
ATOM      7  H   LIG A   1     -11.582   5.309 128.285  0.00  0.00    +0.122 HD
ATOM      8  C   LIG A   1     -11.859   6.184 130.093  0.00  0.00    +0.054 C 
ATOM      9  C   LIG A   1     -12.012   7.600 130.537  0.00  0.00    +0.021 C 
ATOM     10  C   LIG A   1     -12.748   8.706 129.837  0.00  0.00    +0.034 C 
BRANCH   3  11
ATOM     11  O   LIG A   1     -11.147   9.084 128.136  0.00  0.00    -0.390 OA
ATOM     12  H   LIG A   1     -11.218   9.598 127.295  0.00  0.00    +0.210 HD
ENDBRANCH   3  11
ENDBRANCH   2   8
ENDBRANCH   1   2
BRANCH   1  13
ATOM     13  C   LIG A   1      -8.424   6.848 130.764  0.00  0.00    +0.000 C 
BRANCH  13  14
ATOM     14  C   LIG A   1      -7.060   6.688 131.398  0.00  0.00    -0.000 C 
BRANCH  14  15
ATOM     15  C   LIG A   1      -5.734   7.032 130.799  0.00  0.00    -0.000 C 
BRANCH  15  16
ATOM     16  C   LIG A   1      -4.643   6.746 131.772  0.00  0.00    -0.000 C 
BRANCH  16  17
ATOM     17  C   LIG A   1      -3.294   6.768 131.076  0.00  0.00    -0.000 C 
BRANCH  17  18
ATOM     18  C   LIG A   1      -3.107   5.587 130.118  0.00  0.00    +0.000 C 
BRANCH  18  19
ATOM     19  C   LIG A   1      -2.467   5.961 128.781  0.00  0.00    +0.002 C 
BRANCH  19  20
ATOM     20  C   LIG A   1      -2.921   5.104 127.587  0.00  0.00    +0.031 C 
BRANCH  20  21
ATOM     21  C   LIG A   1      -2.572   3.623 127.773  0.00  0.00    +0.111 C 
ATOM     22  C   LIG A   1      -1.781   3.073 126.593  0.00  0.00    +0.037 C 
BRANCH  21  23
ATOM     23  O   LIG A   1      -3.774   2.846 127.904  0.00  0.00    -0.392 OA
ATOM     24  H   LIG A   1      -4.148   3.030 128.744  0.00  0.00    +0.210 HD
ENDBRANCH  21  23
ENDBRANCH  20  21
ENDBRANCH  19  20
ENDBRANCH  18  19
ENDBRANCH  17  18
ENDBRANCH  16  17
ENDBRANCH  15  16
ENDBRANCH  14  15
ENDBRANCH  13  14
ENDBRANCH   1  13
TORSDOF 13
ENDMDL
MODEL 4
REMARK VINA RESULT:      -5.7      7.738      9.581
REMARK  Name = NuBBE_452
REMARK  15 active torsions:
REMARK  status: ('A' for Active; 'I' for Inactive)
REMARK    1  A    between atoms: O_1  and  C_2
REMARK    2  A    between atoms: C_4  and  C_6
REMARK    3  A    between atoms: C_9  and  C_11
REMARK    4  A    between atoms: C_11  and  C_12
REMARK    5  A    between atoms: C_12  and  C_13
REMARK    6  A    between atoms: C_13  and  C_14
REMARK    7  A    between atoms: C_14  and  C_15
REMARK    8  A    between atoms: C_15  and  C_16
REMARK    9  A    between atoms: C_16  and  C_17
REMARK   10  A    between atoms: C_17  and  C_18
REMARK   11  A    between atoms: C_18  and  C_19
REMARK   12  A    between atoms: C_19  and  C_20
REMARK   13  A    between atoms: C_20  and  C_21
REMARK   14  A    between atoms: C_21  and  O_22
REMARK   15  A    between atoms: C_21  and  C_23
REMARK                            x       y       z     vdW  Elec       q    Type
REMARK                         _______ _______ _______ _____ _____    ______ ____
ROOT
ATOM      1  C   LIG A   1      -5.463  -1.446 125.300  0.00  0.00    +0.002 C 
ENDROOT
BRANCH   1   2
ATOM      2  C   LIG A   1      -6.723  -0.513 125.391  0.00  0.00    +0.019 C 
BRANCH   2   8
ATOM      3  C   LIG A   1      -8.364   3.173 123.631  0.00  0.00    +0.131 C 
ATOM      4  C   LIG A   1      -6.837   3.000 123.806  0.00  0.00    +0.079 C 
ATOM      5  C   LIG A   1      -6.239   4.346 124.185  0.00  0.00    +0.026 C 
ATOM      6  N   LIG A   1      -6.493   1.986 124.851  0.00  0.00    -0.308 NA
ATOM      7  H   LIG A   1      -5.500   1.993 125.027  0.00  0.00    +0.122 HD
ATOM      8  C   LIG A   1      -6.868   0.655 124.356  0.00  0.00    +0.054 C 
ATOM      9  C   LIG A   1      -8.289   0.771 123.917  0.00  0.00    +0.021 C 
ATOM     10  C   LIG A   1      -8.917   1.881 123.125  0.00  0.00    +0.034 C 
BRANCH   3  11
ATOM     11  O   LIG A   1      -8.999   3.472 124.874  0.00  0.00    -0.390 OA
ATOM     12  H   LIG A   1      -9.200   2.592 125.275  0.00  0.00    +0.210 HD
ENDBRANCH   3  11
ENDBRANCH   2   8
ENDBRANCH   1   2
BRANCH   1  13
ATOM     13  C   LIG A   1      -5.535  -2.897 124.719  0.00  0.00    +0.000 C 
BRANCH  13  14
ATOM     14  C   LIG A   1      -6.837  -3.267 124.042  0.00  0.00    -0.000 C 
BRANCH  14  15
ATOM     15  C   LIG A   1      -7.982  -4.029 124.630  0.00  0.00    -0.000 C 
BRANCH  15  16
ATOM     16  C   LIG A   1      -9.196  -3.168 124.684  0.00  0.00    -0.000 C 
BRANCH  16  17
ATOM     17  C   LIG A   1      -9.613  -2.929 126.123  0.00  0.00    -0.000 C 
BRANCH  17  18
ATOM     18  C   LIG A   1      -8.773  -3.735 127.120  0.00  0.00    +0.000 C 
BRANCH  18  19
ATOM     19  C   LIG A   1      -8.345  -2.948 128.359  0.00  0.00    +0.002 C 
BRANCH  19  20
ATOM     20  C   LIG A   1      -6.826  -2.787 128.528  0.00  0.00    +0.031 C 
BRANCH  20  21
ATOM     21  C   LIG A   1      -6.387  -2.947 129.989  0.00  0.00    +0.111 C 
ATOM     22  C   LIG A   1      -6.044  -4.394 130.323  0.00  0.00    +0.037 C 
BRANCH  21  23
ATOM     23  O   LIG A   1      -7.440  -2.525 130.870  0.00  0.00    -0.392 OA
ATOM     24  H   LIG A   1      -7.235  -2.828 131.734  0.00  0.00    +0.210 HD
ENDBRANCH  21  23
ENDBRANCH  20  21
ENDBRANCH  19  20
ENDBRANCH  18  19
ENDBRANCH  17  18
ENDBRANCH  16  17
ENDBRANCH  15  16
ENDBRANCH  14  15
ENDBRANCH  13  14
ENDBRANCH   1  13
TORSDOF 13
ENDMDL
MODEL 5
REMARK VINA RESULT:      -5.7      7.239      9.148
REMARK  Name = NuBBE_452
REMARK  15 active torsions:
REMARK  status: ('A' for Active; 'I' for Inactive)
REMARK    1  A    between atoms: O_1  and  C_2
REMARK    2  A    between atoms: C_4  and  C_6
REMARK    3  A    between atoms: C_9  and  C_11
REMARK    4  A    between atoms: C_11  and  C_12
REMARK    5  A    between atoms: C_12  and  C_13
REMARK    6  A    between atoms: C_13  and  C_14
REMARK    7  A    between atoms: C_14  and  C_15
REMARK    8  A    between atoms: C_15  and  C_16
REMARK    9  A    between atoms: C_16  and  C_17
REMARK   10  A    between atoms: C_17  and  C_18
REMARK   11  A    between atoms: C_18  and  C_19
REMARK   12  A    between atoms: C_19  and  C_20
REMARK   13  A    between atoms: C_20  and  C_21
REMARK   14  A    between atoms: C_21  and  O_22
REMARK   15  A    between atoms: C_21  and  C_23
REMARK                            x       y       z     vdW  Elec       q    Type
REMARK                         _______ _______ _______ _____ _____    ______ ____
ROOT
ATOM      1  C   LIG A   1      -7.882   0.238 128.113  0.00  0.00    +0.002 C 
ENDROOT
BRANCH   1   2
ATOM      2  C   LIG A   1      -6.880   0.210 126.904  0.00  0.00    +0.019 C 
BRANCH   2   8
ATOM      3  C   LIG A   1      -9.014   2.329 123.690  0.00  0.00    +0.131 C 
ATOM      4  C   LIG A   1      -7.577   1.801 123.462  0.00  0.00    +0.079 C 
ATOM      5  C   LIG A   1      -6.829   2.799 122.593  0.00  0.00    +0.026 C 
ATOM      6  N   LIG A   1      -6.834   1.597 124.745  0.00  0.00    -0.308 NA
ATOM      7  H   LIG A   1      -5.868   1.377 124.554  0.00  0.00    +0.122 HD
ATOM      8  C   LIG A   1      -7.437   0.464 125.461  0.00  0.00    +0.054 C 
ATOM      9  C   LIG A   1      -8.898   0.755 125.525  0.00  0.00    +0.021 C 
ATOM     10  C   LIG A   1      -9.778   1.278 124.426  0.00  0.00    +0.034 C 
BRANCH   3  11
ATOM     11  O   LIG A   1      -9.011   3.516 124.484  0.00  0.00    -0.390 OA
ATOM     12  H   LIG A   1      -8.216   4.020 124.185  0.00  0.00    +0.210 HD
ENDBRANCH   3  11
ENDBRANCH   2   8
ENDBRANCH   1   2
BRANCH   1  13
ATOM     13  C   LIG A   1      -7.407   0.108 129.599  0.00  0.00    +0.000 C 
BRANCH  13  14
ATOM     14  C   LIG A   1      -7.243  -1.306 130.112  0.00  0.00    -0.000 C 
BRANCH  14  15
ATOM     15  C   LIG A   1      -6.461  -2.415 129.485  0.00  0.00    -0.000 C 
BRANCH  15  16
ATOM     16  C   LIG A   1      -7.279  -3.659 129.444  0.00  0.00    -0.000 C 
BRANCH  16  17
ATOM     17  C   LIG A   1      -8.640  -3.378 128.835  0.00  0.00    -0.000 C 
BRANCH  17  18
ATOM     18  C   LIG A   1      -8.797  -3.988 127.437  0.00  0.00    +0.000 C 
BRANCH  18  19
ATOM     19  C   LIG A   1      -8.929  -2.957 126.316  0.00  0.00    +0.002 C 
BRANCH  19  20
ATOM     20  C   LIG A   1      -7.972  -3.167 125.131  0.00  0.00    +0.031 C 
BRANCH  20  21
ATOM     21  C   LIG A   1      -8.719  -3.261 123.795  0.00  0.00    +0.111 C 
ATOM     22  C   LIG A   1      -8.407  -2.078 122.886  0.00  0.00    +0.037 C 
BRANCH  21  23
ATOM     23  O   LIG A   1     -10.137  -3.285 124.023  0.00  0.00    -0.392 OA
ATOM     24  H   LIG A   1     -10.311  -3.906 124.704  0.00  0.00    +0.210 HD
ENDBRANCH  21  23
ENDBRANCH  20  21
ENDBRANCH  19  20
ENDBRANCH  18  19
ENDBRANCH  17  18
ENDBRANCH  16  17
ENDBRANCH  15  16
ENDBRANCH  14  15
ENDBRANCH  13  14
ENDBRANCH   1  13
TORSDOF 13
ENDMDL
MODEL 6
REMARK VINA RESULT:      -5.6      7.701     11.088
REMARK  Name = NuBBE_452
REMARK  15 active torsions:
REMARK  status: ('A' for Active; 'I' for Inactive)
REMARK    1  A    between atoms: O_1  and  C_2
REMARK    2  A    between atoms: C_4  and  C_6
REMARK    3  A    between atoms: C_9  and  C_11
REMARK    4  A    between atoms: C_11  and  C_12
REMARK    5  A    between atoms: C_12  and  C_13
REMARK    6  A    between atoms: C_13  and  C_14
REMARK    7  A    between atoms: C_14  and  C_15
REMARK    8  A    between atoms: C_15  and  C_16
REMARK    9  A    between atoms: C_16  and  C_17
REMARK   10  A    between atoms: C_17  and  C_18
REMARK   11  A    between atoms: C_18  and  C_19
REMARK   12  A    between atoms: C_19  and  C_20
REMARK   13  A    between atoms: C_20  and  C_21
REMARK   14  A    between atoms: C_21  and  O_22
REMARK   15  A    between atoms: C_21  and  C_23
REMARK                            x       y       z     vdW  Elec       q    Type
REMARK                         _______ _______ _______ _____ _____    ______ ____
ROOT
ATOM      1  C   LIG A   1      -8.331  -3.641 128.384  0.00  0.00    +0.002 C 
ENDROOT
BRANCH   1   2
ATOM      2  C   LIG A   1      -8.312  -3.033 129.832  0.00  0.00    +0.019 C 
BRANCH   2   8
ATOM      3  C   LIG A   1      -3.951  -2.626 130.270  0.00  0.00    +0.131 C 
ATOM      4  C   LIG A   1      -4.908  -1.713 131.072  0.00  0.00    +0.079 C 
ATOM      5  C   LIG A   1      -4.289  -0.329 131.168  0.00  0.00    +0.026 C 
ATOM      6  N   LIG A   1      -6.263  -1.614 130.444  0.00  0.00    -0.308 NA
ATOM      7  H   LIG A   1      -6.815  -0.916 130.920  0.00  0.00    +0.122 HD
ATOM      8  C   LIG A   1      -6.939  -2.912 130.577  0.00  0.00    +0.054 C 
ATOM      9  C   LIG A   1      -5.981  -3.925 130.047  0.00  0.00    +0.021 C 
ATOM     10  C   LIG A   1      -4.504  -4.013 130.303  0.00  0.00    +0.034 C 
BRANCH   3  11
ATOM     11  O   LIG A   1      -3.862  -2.214 128.905  0.00  0.00    -0.390 OA
ATOM     12  H   LIG A   1      -3.717  -1.237 128.944  0.00  0.00    +0.210 HD
ENDBRANCH   3  11
ENDBRANCH   2   8
ENDBRANCH   1   2
BRANCH   1  13
ATOM     13  C   LIG A   1      -8.256  -2.749 127.100  0.00  0.00    +0.000 C 
BRANCH  13  14
ATOM     14  C   LIG A   1      -9.006  -3.272 125.895  0.00  0.00    -0.000 C 
BRANCH  14  15
ATOM     15  C   LIG A   1      -8.443  -3.606 124.550  0.00  0.00    -0.000 C 
BRANCH  15  16
ATOM     16  C   LIG A   1      -9.390  -3.184 123.480  0.00  0.00    -0.000 C 
BRANCH  16  17
ATOM     17  C   LIG A   1      -8.965  -1.851 122.892  0.00  0.00    -0.000 C 
BRANCH  17  18
ATOM     18  C   LIG A   1      -7.474  -1.563 123.104  0.00  0.00    +0.000 C 
BRANCH  18  19
ATOM     19  C   LIG A   1      -7.186  -0.228 123.791  0.00  0.00    +0.002 C 
BRANCH  19  20
ATOM     20  C   LIG A   1      -8.261   0.850 123.581  0.00  0.00    +0.031 C 
BRANCH  20  21
ATOM     21  C   LIG A   1      -8.750   1.445 124.907  0.00  0.00    +0.111 C 
ATOM     22  C   LIG A   1      -9.547   0.434 125.723  0.00  0.00    +0.037 C 
BRANCH  21  23
ATOM     23  O   LIG A   1      -9.595   2.580 124.657  0.00  0.00    -0.392 OA
ATOM     24  H   LIG A   1     -10.410   2.438 125.098  0.00  0.00    +0.210 HD
ENDBRANCH  21  23
ENDBRANCH  20  21
ENDBRANCH  19  20
ENDBRANCH  18  19
ENDBRANCH  17  18
ENDBRANCH  16  17
ENDBRANCH  15  16
ENDBRANCH  14  15
ENDBRANCH  13  14
ENDBRANCH   1  13
TORSDOF 13
ENDMDL
MODEL 7
REMARK VINA RESULT:      -5.6      7.265     10.263
REMARK  Name = NuBBE_452
REMARK  15 active torsions:
REMARK  status: ('A' for Active; 'I' for Inactive)
REMARK    1  A    between atoms: O_1  and  C_2
REMARK    2  A    between atoms: C_4  and  C_6
REMARK    3  A    between atoms: C_9  and  C_11
REMARK    4  A    between atoms: C_11  and  C_12
REMARK    5  A    between atoms: C_12  and  C_13
REMARK    6  A    between atoms: C_13  and  C_14
REMARK    7  A    between atoms: C_14  and  C_15
REMARK    8  A    between atoms: C_15  and  C_16
REMARK    9  A    between atoms: C_16  and  C_17
REMARK   10  A    between atoms: C_17  and  C_18
REMARK   11  A    between atoms: C_18  and  C_19
REMARK   12  A    between atoms: C_19  and  C_20
REMARK   13  A    between atoms: C_20  and  C_21
REMARK   14  A    between atoms: C_21  and  O_22
REMARK   15  A    between atoms: C_21  and  C_23
REMARK                            x       y       z     vdW  Elec       q    Type
REMARK                         _______ _______ _______ _____ _____    ______ ____
ROOT
ATOM      1  C   LIG A   1      -9.215  -2.581 125.997  0.00  0.00    +0.002 C 
ENDROOT
BRANCH   1   2
ATOM      2  C   LIG A   1      -8.839  -3.494 127.219  0.00  0.00    +0.019 C 
BRANCH   2   8
ATOM      3  C   LIG A   1      -7.215  -1.033 130.487  0.00  0.00    +0.131 C 
ATOM      4  C   LIG A   1      -7.051  -2.571 130.508  0.00  0.00    +0.079 C 
ATOM      5  C   LIG A   1      -7.178  -3.051 131.945  0.00  0.00    +0.026 C 
ATOM      6  N   LIG A   1      -8.067  -3.265 129.656  0.00  0.00    -0.308 NA
ATOM      7  H   LIG A   1      -8.011  -4.263 129.794  0.00  0.00    +0.122 HD
ATOM      8  C   LIG A   1      -7.776  -2.973 128.246  0.00  0.00    +0.054 C 
ATOM      9  C   LIG A   1      -7.664  -1.489 128.153  0.00  0.00    +0.021 C 
ATOM     10  C   LIG A   1      -6.950  -0.562 129.094  0.00  0.00    +0.034 C 
BRANCH   3  11
ATOM     11  O   LIG A   1      -8.542  -0.647 130.843  0.00  0.00    -0.390 OA
ATOM     12  H   LIG A   1      -8.907  -1.419 131.341  0.00  0.00    +0.210 HD
ENDBRANCH   3  11
ENDBRANCH   2   8
ENDBRANCH   1   2
BRANCH   1  13
ATOM     13  C   LIG A   1      -9.277  -3.126 124.532  0.00  0.00    +0.000 C 
BRANCH  13  14
ATOM     14  C   LIG A   1      -8.856  -2.153 123.453  0.00  0.00    -0.000 C 
BRANCH  14  15
ATOM     15  C   LIG A   1      -7.628  -2.217 122.601  0.00  0.00    -0.000 C 
BRANCH  15  16
ATOM     16  C   LIG A   1      -6.696  -1.112 122.963  0.00  0.00    -0.000 C 
BRANCH  16  17
ATOM     17  C   LIG A   1      -6.081  -1.365 124.327  0.00  0.00    -0.000 C 
BRANCH  17  18
ATOM     18  C   LIG A   1      -6.119  -0.126 125.228  0.00  0.00    +0.000 C 
BRANCH  18  19
ATOM     19  C   LIG A   1      -7.037   0.988 124.724  0.00  0.00    +0.002 C 
BRANCH  19  20
ATOM     20  C   LIG A   1      -8.414   1.046 125.404  0.00  0.00    +0.031 C 
BRANCH  20  21
ATOM     21  C   LIG A   1      -9.428   1.857 124.588  0.00  0.00    +0.111 C 
ATOM     22  C   LIG A   1      -9.261   1.633 123.090  0.00  0.00    +0.037 C 
BRANCH  21  23
ATOM     23  O   LIG A   1      -9.262   3.260 124.850  0.00  0.00    -0.392 OA
ATOM     24  H   LIG A   1      -8.719   3.352 125.609  0.00  0.00    +0.210 HD
ENDBRANCH  21  23
ENDBRANCH  20  21
ENDBRANCH  19  20
ENDBRANCH  18  19
ENDBRANCH  17  18
ENDBRANCH  16  17
ENDBRANCH  15  16
ENDBRANCH  14  15
ENDBRANCH  13  14
ENDBRANCH   1  13
TORSDOF 13
ENDMDL
MODEL 8
REMARK VINA RESULT:      -5.6      7.646      9.529
REMARK  Name = NuBBE_452
REMARK  15 active torsions:
REMARK  status: ('A' for Active; 'I' for Inactive)
REMARK    1  A    between atoms: O_1  and  C_2
REMARK    2  A    between atoms: C_4  and  C_6
REMARK    3  A    between atoms: C_9  and  C_11
REMARK    4  A    between atoms: C_11  and  C_12
REMARK    5  A    between atoms: C_12  and  C_13
REMARK    6  A    between atoms: C_13  and  C_14
REMARK    7  A    between atoms: C_14  and  C_15
REMARK    8  A    between atoms: C_15  and  C_16
REMARK    9  A    between atoms: C_16  and  C_17
REMARK   10  A    between atoms: C_17  and  C_18
REMARK   11  A    between atoms: C_18  and  C_19
REMARK   12  A    between atoms: C_19  and  C_20
REMARK   13  A    between atoms: C_20  and  C_21
REMARK   14  A    between atoms: C_21  and  O_22
REMARK   15  A    between atoms: C_21  and  C_23
REMARK                            x       y       z     vdW  Elec       q    Type
REMARK                         _______ _______ _______ _____ _____    ______ ____
ROOT
ATOM      1  C   LIG A   1      -5.613  -0.642 128.014  0.00  0.00    +0.002 C 
ENDROOT
BRANCH   1   2
ATOM      2  C   LIG A   1      -6.407   0.614 127.505  0.00  0.00    +0.019 C 
BRANCH   2   8
ATOM      3  C   LIG A   1      -9.108   1.850 124.255  0.00  0.00    +0.131 C 
ATOM      4  C   LIG A   1      -7.650   1.435 123.948  0.00  0.00    +0.079 C 
ATOM      5  C   LIG A   1      -7.123   2.316 122.827  0.00  0.00    +0.026 C 
ATOM      6  N   LIG A   1      -6.757   1.557 125.143  0.00  0.00    -0.308 NA
ATOM      7  H   LIG A   1      -5.797   1.401 124.875  0.00  0.00    +0.122 HD
ATOM      8  C   LIG A   1      -7.139   0.529 126.121  0.00  0.00    +0.054 C 
ATOM      9  C   LIG A   1      -8.610   0.678 126.314  0.00  0.00    +0.021 C 
ATOM     10  C   LIG A   1      -9.657   0.889 125.258  0.00  0.00    +0.034 C 
BRANCH   3  11
ATOM     11  O   LIG A   1      -9.167   3.161 124.817  0.00  0.00    -0.390 OA
ATOM     12  H   LIG A   1      -9.508   3.734 124.088  0.00  0.00    +0.210 HD
ENDBRANCH   3  11
ENDBRANCH   2   8
ENDBRANCH   1   2
BRANCH   1  13
ATOM     13  C   LIG A   1      -6.227  -2.081 128.007  0.00  0.00    +0.000 C 
BRANCH  13  14
ATOM     14  C   LIG A   1      -7.672  -2.178 128.446  0.00  0.00    -0.000 C 
BRANCH  14  15
ATOM     15  C   LIG A   1      -8.450  -3.420 128.742  0.00  0.00    -0.000 C 
BRANCH  15  16
ATOM     16  C   LIG A   1      -8.956  -4.022 127.476  0.00  0.00    -0.000 C 
BRANCH  16  17
ATOM     17  C   LIG A   1      -9.273  -2.936 126.464  0.00  0.00    -0.000 C 
BRANCH  17  18
ATOM     18  C   LIG A   1      -9.146  -3.426 125.017  0.00  0.00    +0.000 C 
BRANCH  18  19
ATOM     19  C   LIG A   1      -8.073  -2.702 124.203  0.00  0.00    +0.002 C 
BRANCH  19  20
ATOM     20  C   LIG A   1      -6.627  -3.021 124.615  0.00  0.00    +0.031 C 
BRANCH  20  21
ATOM     21  C   LIG A   1      -5.603  -2.409 123.651  0.00  0.00    +0.111 C 
ATOM     22  C   LIG A   1      -6.275  -1.747 122.454  0.00  0.00    +0.037 C 
BRANCH  21  23
ATOM     23  O   LIG A   1      -4.719  -3.429 123.157  0.00  0.00    -0.392 OA
ATOM     24  H   LIG A   1      -3.923  -3.388 123.653  0.00  0.00    +0.210 HD
ENDBRANCH  21  23
ENDBRANCH  20  21
ENDBRANCH  19  20
ENDBRANCH  18  19
ENDBRANCH  17  18
ENDBRANCH  16  17
ENDBRANCH  15  16
ENDBRANCH  14  15
ENDBRANCH  13  14
ENDBRANCH   1  13
TORSDOF 13
ENDMDL
MODEL 9
REMARK VINA RESULT:      -5.4      7.624     10.726
REMARK  Name = NuBBE_452
REMARK  15 active torsions:
REMARK  status: ('A' for Active; 'I' for Inactive)
REMARK    1  A    between atoms: O_1  and  C_2
REMARK    2  A    between atoms: C_4  and  C_6
REMARK    3  A    between atoms: C_9  and  C_11
REMARK    4  A    between atoms: C_11  and  C_12
REMARK    5  A    between atoms: C_12  and  C_13
REMARK    6  A    between atoms: C_13  and  C_14
REMARK    7  A    between atoms: C_14  and  C_15
REMARK    8  A    between atoms: C_15  and  C_16
REMARK    9  A    between atoms: C_16  and  C_17
REMARK   10  A    between atoms: C_17  and  C_18
REMARK   11  A    between atoms: C_18  and  C_19
REMARK   12  A    between atoms: C_19  and  C_20
REMARK   13  A    between atoms: C_20  and  C_21
REMARK   14  A    between atoms: C_21  and  O_22
REMARK   15  A    between atoms: C_21  and  C_23
REMARK                            x       y       z     vdW  Elec       q    Type
REMARK                         _______ _______ _______ _____ _____    ______ ____
ROOT
ATOM      1  C   LIG A   1      -8.413  -3.422 127.314  0.00  0.00    +0.002 C 
ENDROOT
BRANCH   1   2
ATOM      2  C   LIG A   1      -8.185  -2.512 128.573  0.00  0.00    +0.019 C 
BRANCH   2   8
ATOM      3  C   LIG A   1      -4.093  -1.769 130.016  0.00  0.00    +0.131 C 
ATOM      4  C   LIG A   1      -5.258  -1.943 131.018  0.00  0.00    +0.079 C 
ATOM      5  C   LIG A   1      -5.034  -1.000 132.189  0.00  0.00    +0.026 C 
ATOM      6  N   LIG A   1      -6.592  -1.664 130.398  0.00  0.00    -0.308 NA
ATOM      7  H   LIG A   1      -7.310  -1.663 131.107  0.00  0.00    +0.122 HD
ATOM      8  C   LIG A   1      -6.893  -2.730 129.433  0.00  0.00    +0.054 C 
ATOM      9  C   LIG A   1      -5.700  -2.821 128.543  0.00  0.00    +0.021 C 
ATOM     10  C   LIG A   1      -4.253  -2.796 128.943  0.00  0.00    +0.034 C 
BRANCH   3  11
ATOM     11  O   LIG A   1      -4.122  -0.479 129.405  0.00  0.00    -0.390 OA
ATOM     12  H   LIG A   1      -3.933   0.155 130.139  0.00  0.00    +0.210 HD
ENDBRANCH   3  11
ENDBRANCH   2   8
ENDBRANCH   1   2
BRANCH   1  13
ATOM     13  C   LIG A   1      -9.336  -2.992 126.125  0.00  0.00    +0.000 C 
BRANCH  13  14
ATOM     14  C   LIG A   1      -8.764  -3.209 124.741  0.00  0.00    -0.000 C 
BRANCH  14  15
ATOM     15  C   LIG A   1      -7.372  -3.626 124.389  0.00  0.00    -0.000 C 
BRANCH  15  16
ATOM     16  C   LIG A   1      -6.669  -2.518 123.684  0.00  0.00    -0.000 C 
BRANCH  16  17
ATOM     17  C   LIG A   1      -5.590  -1.926 124.571  0.00  0.00    -0.000 C 
BRANCH  17  18
ATOM     18  C   LIG A   1      -6.134  -0.852 125.521  0.00  0.00    +0.000 C 
BRANCH  18  19
ATOM     19  C   LIG A   1      -7.024   0.190 124.845  0.00  0.00    +0.002 C 
BRANCH  19  20
ATOM     20  C   LIG A   1      -8.273   0.589 125.647  0.00  0.00    +0.031 C 
BRANCH  20  21
ATOM     21  C   LIG A   1      -9.499   0.789 124.747  0.00  0.00    +0.111 C 
ATOM     22  C   LIG A   1      -9.252   0.283 123.331  0.00  0.00    +0.037 C 
BRANCH  21  23
ATOM     23  O   LIG A   1      -9.832   2.185 124.670  0.00  0.00    -0.392 OA
ATOM     24  H   LIG A   1     -10.766   2.261 124.665  0.00  0.00    +0.210 HD
ENDBRANCH  21  23
ENDBRANCH  20  21
ENDBRANCH  19  20
ENDBRANCH  18  19
ENDBRANCH  17  18
ENDBRANCH  16  17
ENDBRANCH  15  16
ENDBRANCH  14  15
ENDBRANCH  13  14
ENDBRANCH   1  13
TORSDOF 13
ENDMDL
