MODEL 1
REMARK VINA RESULT:      -8.6      0.000      0.000
REMARK  Name = NuBBE_368
REMARK  13 active torsions:
REMARK  status: ('A' for Active; 'I' for Inactive)
REMARK    1  A    between atoms: O_1  and  C_2
REMARK    2  A    between atoms: C_8  and  O_38
REMARK    3  A    between atoms: C_9  and  C_10
REMARK    4  A    between atoms: C_13  and  C_34
REMARK    5  A    between atoms: C_15  and  O_33
REMARK    6  A    between atoms: C_17  and  O_32
REMARK    7  A    between atoms: C_19  and  O_21
REMARK    8  A    between atoms: O_21  and  C_22
REMARK    9  A    between atoms: C_22  and  C_23
REMARK   10  A    between atoms: C_24  and  C_25
REMARK   11  A    between atoms: C_34  and  O_35
REMARK   12  A    between atoms: C_36  and  O_37
REMARK   13  A    between atoms: C_44  and  O_45
REMARK                            x       y       z     vdW  Elec       q    Type
REMARK                         _______ _______ _______ _____ _____    ______ ____
ROOT
ATOM      1  C   LIG A   1      -7.281   1.427 129.546  0.00  0.00    +0.199 C 
ATOM      2  O   LIG A   1      -7.267   2.551 130.449  0.00  0.00    -0.360 OA
ATOM      3  C   LIG A   1      -7.713   2.179 131.768  0.00  0.00    +0.175 C 
ATOM      4  C   LIG A   1      -6.718   1.198 132.409  0.00  0.00    +0.177 C 
ATOM      5  C   LIG A   1      -6.631  -0.065 131.557  0.00  0.00    +0.189 C 
ATOM      6  C   LIG A   1      -6.390   0.267 130.081  0.00  0.00    +0.241 C 
ENDROOT
BRANCH   1  14
ATOM      7  C   LIG A   1      -6.947   3.885 120.959  0.00  0.00    +0.162 A 
ATOM      8  C   LIG A   1      -6.083   3.773 122.049  0.00  0.00    +0.096 A 
ATOM      9  C   LIG A   1      -6.578   3.326 123.278  0.00  0.00    +0.143 A 
ATOM     10  O   LIG A   1      -5.682   3.250 124.318  0.00  0.00    -0.454 OA
ATOM     11  C   LIG A   1      -6.133   2.810 125.542  0.00  0.00    +0.146 A 
ATOM     12  C   LIG A   1      -5.195   2.768 126.571  0.00  0.00    +0.093 A 
ATOM     13  C   LIG A   1      -5.574   2.325 127.847  0.00  0.00    +0.130 A 
ATOM     14  C   LIG A   1      -6.890   1.905 128.139  0.00  0.00    +0.068 A 
ATOM     15  C   LIG A   1      -7.817   1.960 127.081  0.00  0.00    +0.141 A 
ATOM     16  C   LIG A   1      -7.441   2.415 125.799  0.00  0.00    +0.106 A 
ATOM     17  C   LIG A   1      -8.412   2.507 124.696  0.00  0.00    +0.204 A 
ATOM     18  O   LIG A   1      -9.584   2.194 124.868  0.00  0.00    -0.286 OA
ATOM     19  C   LIG A   1      -7.925   2.991 123.398  0.00  0.00    +0.068 A 
ATOM     20  C   LIG A   1      -8.797   3.108 122.310  0.00  0.00    +0.064 A 
ATOM     21  C   LIG A   1      -8.300   3.559 121.091  0.00  0.00    +0.159 A 
BRANCH   7  22
ATOM     22  O   LIG A   1      -6.483   4.318 119.749  0.00  0.00    -0.503 OA
ATOM     23  H   LIG A   1      -6.624   5.274 119.667  0.00  0.00    +0.292 HD
ENDBRANCH   7  22
BRANCH  15  24
ATOM     24  O   LIG A   1      -9.105   1.556 127.329  0.00  0.00    -0.505 OA
ATOM     25  H   LIG A   1      -9.166   0.589 127.163  0.00  0.00    +0.292 HD
ENDBRANCH  15  24
BRANCH  13  26
ATOM     26  O   LIG A   1      -4.632   2.310 128.838  0.00  0.00    -0.506 OA
ATOM     27  H   LIG A   1      -5.025   1.970 129.660  0.00  0.00    +0.292 HD
ENDBRANCH  13  26
BRANCH  21  28
ATOM     28  O   LIG A   1      -9.127   3.688 120.011  0.00  0.00    -0.503 OA
ATOM     29  H   LIG A   1      -9.672   2.890 119.920  0.00  0.00    +0.292 HD
ENDBRANCH  21  28
ENDBRANCH   1  14
BRANCH   5  30
ATOM     30  O   LIG A   1      -5.565  -0.897 132.058  0.00  0.00    -0.385 OA
ATOM     31  H   LIG A   1      -4.743  -0.466 131.751  0.00  0.00    +0.210 HD
ENDBRANCH   5  30
BRANCH   4  32
ATOM     32  O   LIG A   1      -7.104   0.771 133.725  0.00  0.00    -0.387 OA
ATOM     33  H   LIG A   1      -7.536  -0.096 133.665  0.00  0.00    +0.210 HD
ENDBRANCH   4  32
BRANCH   6  34
ATOM     34  O   LIG A   1      -6.526  -0.910 129.263  0.00  0.00    -0.453 OA
BRANCH  34  35
ATOM     35  C   LIG A   1      -5.413  -1.548 128.851  0.00  0.00    +0.332 C 
ATOM     36  O   LIG A   1      -4.416  -1.827 129.516  0.00  0.00    -0.246 OA
BRANCH  35  37
ATOM     37  C   LIG A   1      -5.594  -2.000 127.470  0.00  0.00    +0.092 C 
ATOM     38  C   LIG A   1      -5.569  -1.107 126.466  0.00  0.00    +0.015 C 
BRANCH  38  39
ATOM     39  C   LIG A   1      -5.794  -1.432 125.067  0.00  0.00    -0.025 A 
ATOM     40  C   LIG A   1      -5.164  -2.567 124.545  0.00  0.00    +0.008 A 
ATOM     41  C   LIG A   1      -5.342  -2.909 123.208  0.00  0.00    +0.001 A 
ATOM     42  C   LIG A   1      -6.139  -2.112 122.388  0.00  0.00    +0.000 A 
ATOM     43  C   LIG A   1      -6.748  -0.967 122.899  0.00  0.00    +0.001 A 
ATOM     44  C   LIG A   1      -6.568  -0.620 124.234  0.00  0.00    +0.008 A 
ENDBRANCH  38  39
ENDBRANCH  35  37
ENDBRANCH  34  35
ENDBRANCH   6  34
BRANCH   3  45
ATOM     45  C   LIG A   1      -7.829   3.459 132.600  0.00  0.00    +0.190 C 
BRANCH  45  46
ATOM     46  O   LIG A   1      -8.784   3.304 133.647  0.00  0.00    -0.392 OA
ATOM     47  H   LIG A   1      -9.236   2.458 133.467  0.00  0.00    +0.209 HD
ENDBRANCH  45  46
ENDBRANCH   3  45
TORSDOF 13
ENDMDL
MODEL 2
REMARK VINA RESULT:      -8.5      5.098      8.624
REMARK  Name = NuBBE_368
REMARK  13 active torsions:
REMARK  status: ('A' for Active; 'I' for Inactive)
REMARK    1  A    between atoms: O_1  and  C_2
REMARK    2  A    between atoms: C_8  and  O_38
REMARK    3  A    between atoms: C_9  and  C_10
REMARK    4  A    between atoms: C_13  and  C_34
REMARK    5  A    between atoms: C_15  and  O_33
REMARK    6  A    between atoms: C_17  and  O_32
REMARK    7  A    between atoms: C_19  and  O_21
REMARK    8  A    between atoms: O_21  and  C_22
REMARK    9  A    between atoms: C_22  and  C_23
REMARK   10  A    between atoms: C_24  and  C_25
REMARK   11  A    between atoms: C_34  and  O_35
REMARK   12  A    between atoms: C_36  and  O_37
REMARK   13  A    between atoms: C_44  and  O_45
REMARK                            x       y       z     vdW  Elec       q    Type
REMARK                         _______ _______ _______ _____ _____    ______ ____
ROOT
ATOM      1  C   LIG A   1     -10.337   5.617 130.899  0.00  0.00    +0.199 C 
ATOM      2  O   LIG A   1     -11.350   5.424 129.891  0.00  0.00    -0.360 OA
ATOM      3  C   LIG A   1     -11.975   6.667 129.519  0.00  0.00    +0.175 C 
ATOM      4  C   LIG A   1     -10.958   7.588 128.825  0.00  0.00    +0.177 C 
ATOM      5  C   LIG A   1      -9.813   7.894 129.786  0.00  0.00    +0.189 C 
ATOM      6  C   LIG A   1      -9.245   6.615 130.411  0.00  0.00    +0.241 C 
ENDROOT
BRANCH   1  14
ATOM      7  C   LIG A   1      -6.841  -2.594 131.377  0.00  0.00    +0.162 A 
ATOM      8  C   LIG A   1      -7.323  -1.611 132.242  0.00  0.00    +0.096 A 
ATOM      9  C   LIG A   1      -7.801  -0.406 131.718  0.00  0.00    +0.143 A 
ATOM     10  O   LIG A   1      -8.249   0.529 132.621  0.00  0.00    -0.454 OA
ATOM     11  C   LIG A   1      -8.731   1.726 132.140  0.00  0.00    +0.146 A 
ATOM     12  C   LIG A   1      -9.156   2.650 133.091  0.00  0.00    +0.093 A 
ATOM     13  C   LIG A   1      -9.667   3.892 132.682  0.00  0.00    +0.130 A 
ATOM     14  C   LIG A   1      -9.777   4.250 131.321  0.00  0.00    +0.068 A 
ATOM     15  C   LIG A   1      -9.339   3.297 130.382  0.00  0.00    +0.141 A 
ATOM     16  C   LIG A   1      -8.815   2.052 130.791  0.00  0.00    +0.106 A 
ATOM     17  C   LIG A   1      -8.323   1.063 129.818  0.00  0.00    +0.204 A 
ATOM     18  O   LIG A   1      -8.351   1.302 128.615  0.00  0.00    -0.286 OA
ATOM     19  C   LIG A   1      -7.798  -0.205 130.339  0.00  0.00    +0.068 A 
ATOM     20  C   LIG A   1      -7.309  -1.185 129.468  0.00  0.00    +0.064 A 
ATOM     21  C   LIG A   1      -6.829  -2.379 129.996  0.00  0.00    +0.159 A 
BRANCH   7  22
ATOM     22  O   LIG A   1      -6.371  -3.779 131.869  0.00  0.00    -0.503 OA
ATOM     23  H   LIG A   1      -5.407  -3.820 131.762  0.00  0.00    +0.292 HD
ENDBRANCH   7  22
BRANCH  15  24
ATOM     24  O   LIG A   1      -9.434   3.611 129.050  0.00  0.00    -0.505 OA
ATOM     25  H   LIG A   1      -9.030   4.497 128.909  0.00  0.00    +0.292 HD
ENDBRANCH  15  24
BRANCH  13  26
ATOM     26  O   LIG A   1     -10.062   4.782 133.642  0.00  0.00    -0.506 OA
ATOM     27  H   LIG A   1      -9.281   5.150 134.090  0.00  0.00    +0.292 HD
ENDBRANCH  13  26
BRANCH  21  28
ATOM     28  O   LIG A   1      -6.341  -3.354 129.171  0.00  0.00    -0.503 OA
ATOM     29  H   LIG A   1      -5.384  -3.446 129.305  0.00  0.00    +0.292 HD
ENDBRANCH  21  28
ENDBRANCH   1  14
BRANCH   5  30
ATOM     30  O   LIG A   1      -8.776   8.599 129.073  0.00  0.00    -0.385 OA
ATOM     31  H   LIG A   1      -8.048   8.697 129.718  0.00  0.00    +0.210 HD
ENDBRANCH   5  30
BRANCH   4  32
ATOM     32  O   LIG A   1     -11.507   8.856 128.435  0.00  0.00    -0.387 OA
ATOM     33  H   LIG A   1     -10.798   9.518 128.417  0.00  0.00    +0.210 HD
ENDBRANCH   4  32
BRANCH   6  34
ATOM     34  O   LIG A   1      -8.320   6.929 131.469  0.00  0.00    -0.453 OA
BRANCH  34  35
ATOM     35  C   LIG A   1      -6.998   6.833 131.229  0.00  0.00    +0.332 C 
ATOM     36  O   LIG A   1      -6.291   7.615 130.595  0.00  0.00    -0.246 OA
BRANCH  35  37
ATOM     37  C   LIG A   1      -6.454   5.684 131.954  0.00  0.00    +0.092 C 
ATOM     38  C   LIG A   1      -6.030   4.605 131.273  0.00  0.00    +0.015 C 
BRANCH  38  39
ATOM     39  C   LIG A   1      -5.527   3.388 131.888  0.00  0.00    -0.025 A 
ATOM     40  C   LIG A   1      -5.031   2.383 131.050  0.00  0.00    +0.008 A 
ATOM     41  C   LIG A   1      -4.550   1.196 131.594  0.00  0.00    +0.001 A 
ATOM     42  C   LIG A   1      -4.575   1.006 132.975  0.00  0.00    +0.000 A 
ATOM     43  C   LIG A   1      -5.091   1.995 133.811  0.00  0.00    +0.001 A 
ATOM     44  C   LIG A   1      -5.576   3.181 133.269  0.00  0.00    +0.008 A 
ENDBRANCH  38  39
ENDBRANCH  35  37
ENDBRANCH  34  35
ENDBRANCH   6  34
BRANCH   3  45
ATOM     45  C   LIG A   1     -13.142   6.342 128.583  0.00  0.00    +0.190 C 
BRANCH  45  46
ATOM     46  O   LIG A   1     -12.788   6.574 127.222  0.00  0.00    -0.392 OA
ATOM     47  H   LIG A   1     -12.499   7.505 127.182  0.00  0.00    +0.209 HD
ENDBRANCH  45  46
ENDBRANCH   3  45
TORSDOF 13
ENDMDL
MODEL 3
REMARK VINA RESULT:      -8.4      2.978      8.877
REMARK  Name = NuBBE_368
REMARK  13 active torsions:
REMARK  status: ('A' for Active; 'I' for Inactive)
REMARK    1  A    between atoms: O_1  and  C_2
REMARK    2  A    between atoms: C_8  and  O_38
REMARK    3  A    between atoms: C_9  and  C_10
REMARK    4  A    between atoms: C_13  and  C_34
REMARK    5  A    between atoms: C_15  and  O_33
REMARK    6  A    between atoms: C_17  and  O_32
REMARK    7  A    between atoms: C_19  and  O_21
REMARK    8  A    between atoms: O_21  and  C_22
REMARK    9  A    between atoms: C_22  and  C_23
REMARK   10  A    between atoms: C_24  and  C_25
REMARK   11  A    between atoms: C_34  and  O_35
REMARK   12  A    between atoms: C_36  and  O_37
REMARK   13  A    between atoms: C_44  and  O_45
REMARK                            x       y       z     vdW  Elec       q    Type
REMARK                         _______ _______ _______ _____ _____    ______ ____
ROOT
ATOM      1  C   LIG A   1      -7.062   0.018 126.964  0.00  0.00    +0.199 C 
ATOM      2  O   LIG A   1      -7.507   1.282 126.431  0.00  0.00    -0.360 OA
ATOM      3  C   LIG A   1      -7.761   1.203 125.016  0.00  0.00    +0.175 C 
ATOM      4  C   LIG A   1      -8.948   0.266 124.740  0.00  0.00    +0.177 C 
ATOM      5  C   LIG A   1      -8.618  -1.134 125.247  0.00  0.00    +0.189 C 
ATOM      6  C   LIG A   1      -8.107  -1.104 126.692  0.00  0.00    +0.241 C 
ENDROOT
BRANCH   1  14
ATOM      7  C   LIG A   1      -3.461  -0.119 135.143  0.00  0.00    +0.162 A 
ATOM      8  C   LIG A   1      -4.577   0.418 134.500  0.00  0.00    +0.096 A 
ATOM      9  C   LIG A   1      -4.766   0.184 133.135  0.00  0.00    +0.143 A 
ATOM     10  O   LIG A   1      -5.876   0.752 132.556  0.00  0.00    -0.454 OA
ATOM     11  C   LIG A   1      -6.096   0.540 131.214  0.00  0.00    +0.146 A 
ATOM     12  C   LIG A   1      -7.221   1.149 130.665  0.00  0.00    +0.093 A 
ATOM     13  C   LIG A   1      -7.519   0.976 129.304  0.00  0.00    +0.130 A 
ATOM     14  C   LIG A   1      -6.716   0.190 128.451  0.00  0.00    +0.068 A 
ATOM     15  C   LIG A   1      -5.584  -0.414 129.032  0.00  0.00    +0.141 A 
ATOM     16  C   LIG A   1      -5.276  -0.232 130.398  0.00  0.00    +0.106 A 
ATOM     17  C   LIG A   1      -4.077  -0.832 131.006  0.00  0.00    +0.204 A 
ATOM     18  O   LIG A   1      -3.304  -1.504 130.332  0.00  0.00    -0.286 OA
ATOM     19  C   LIG A   1      -3.842  -0.588 132.434  0.00  0.00    +0.068 A 
ATOM     20  C   LIG A   1      -2.718  -1.124 133.072  0.00  0.00    +0.064 A 
ATOM     21  C   LIG A   1      -2.532  -0.883 134.430  0.00  0.00    +0.159 A 
BRANCH   7  22
ATOM     22  O   LIG A   1      -3.260   0.096 136.477  0.00  0.00    -0.503 OA
ATOM     23  H   LIG A   1      -3.623   0.960 136.729  0.00  0.00    +0.292 HD
ENDBRANCH   7  22
BRANCH  15  24
ATOM     24  O   LIG A   1      -4.782  -1.188 128.232  0.00  0.00    -0.505 OA
ATOM     25  H   LIG A   1      -3.867  -0.827 128.265  0.00  0.00    +0.292 HD
ENDBRANCH  15  24
BRANCH  13  26
ATOM     26  O   LIG A   1      -8.624   1.600 128.795  0.00  0.00    -0.506 OA
ATOM     27  H   LIG A   1      -8.786   1.292 127.886  0.00  0.00    +0.292 HD
ENDBRANCH  13  26
BRANCH  21  28
ATOM     28  O   LIG A   1      -1.442  -1.388 135.080  0.00  0.00    -0.503 OA
ATOM     29  H   LIG A   1      -1.594  -2.322 135.295  0.00  0.00    +0.292 HD
ENDBRANCH  21  28
ENDBRANCH   1  14
BRANCH   5  30
ATOM     30  O   LIG A   1      -9.798  -1.958 125.156  0.00  0.00    -0.385 OA
ATOM     31  H   LIG A   1      -9.993  -2.222 126.077  0.00  0.00    +0.210 HD
ENDBRANCH   5  30
BRANCH   4  32
ATOM     32  O   LIG A   1      -9.255   0.127 123.344  0.00  0.00    -0.387 OA
ATOM     33  H   LIG A   1      -9.519  -0.789 123.165  0.00  0.00    +0.210 HD
ENDBRANCH   4  32
BRANCH   6  34
ATOM     34  O   LIG A   1      -7.599  -2.393 127.082  0.00  0.00    -0.453 OA
BRANCH  34  35
ATOM     35  C   LIG A   1      -8.374  -3.200 127.832  0.00  0.00    +0.332 C 
ATOM     36  O   LIG A   1      -9.228  -3.996 127.442  0.00  0.00    -0.246 OA
BRANCH  35  37
ATOM     37  C   LIG A   1      -7.974  -3.095 129.235  0.00  0.00    +0.092 C 
ATOM     38  C   LIG A   1      -6.854  -3.708 129.658  0.00  0.00    +0.015 C 
BRANCH  38  39
ATOM     39  C   LIG A   1      -6.391  -3.721 131.036  0.00  0.00    -0.025 A 
ATOM     40  C   LIG A   1      -7.126  -3.001 131.984  0.00  0.00    +0.008 A 
ATOM     41  C   LIG A   1      -6.712  -2.976 133.312  0.00  0.00    +0.001 A 
ATOM     42  C   LIG A   1      -5.558  -3.659 133.693  0.00  0.00    +0.000 A 
ATOM     43  C   LIG A   1      -4.810  -4.357 132.746  0.00  0.00    +0.001 A 
ATOM     44  C   LIG A   1      -5.219  -4.380 131.416  0.00  0.00    +0.008 A 
ENDBRANCH  38  39
ENDBRANCH  35  37
ENDBRANCH  34  35
ENDBRANCH   6  34
BRANCH   3  45
ATOM     45  C   LIG A   1      -8.057   2.619 124.514  0.00  0.00    +0.190 C 
BRANCH  45  46
ATOM     46  O   LIG A   1      -9.433   2.947 124.686  0.00  0.00    -0.392 OA
ATOM     47  H   LIG A   1      -9.930   2.180 124.344  0.00  0.00    +0.209 HD
ENDBRANCH  45  46
ENDBRANCH   3  45
TORSDOF 13
ENDMDL
MODEL 4
REMARK VINA RESULT:      -8.4      3.712      8.132
REMARK  Name = NuBBE_368
REMARK  13 active torsions:
REMARK  status: ('A' for Active; 'I' for Inactive)
REMARK    1  A    between atoms: O_1  and  C_2
REMARK    2  A    between atoms: C_8  and  O_38
REMARK    3  A    between atoms: C_9  and  C_10
REMARK    4  A    between atoms: C_13  and  C_34
REMARK    5  A    between atoms: C_15  and  O_33
REMARK    6  A    between atoms: C_17  and  O_32
REMARK    7  A    between atoms: C_19  and  O_21
REMARK    8  A    between atoms: O_21  and  C_22
REMARK    9  A    between atoms: C_22  and  C_23
REMARK   10  A    between atoms: C_24  and  C_25
REMARK   11  A    between atoms: C_34  and  O_35
REMARK   12  A    between atoms: C_36  and  O_37
REMARK   13  A    between atoms: C_44  and  O_45
REMARK                            x       y       z     vdW  Elec       q    Type
REMARK                         _______ _______ _______ _____ _____    ______ ____
ROOT
ATOM      1  C   LIG A   1      -8.430   3.957 131.013  0.00  0.00    +0.199 C 
ATOM      2  O   LIG A   1      -9.545   4.476 131.765  0.00  0.00    -0.360 OA
ATOM      3  C   LIG A   1      -9.727   5.887 131.542  0.00  0.00    +0.175 C 
ATOM      4  C   LIG A   1     -10.133   6.148 130.083  0.00  0.00    +0.177 C 
ATOM      5  C   LIG A   1      -9.030   5.652 129.153  0.00  0.00    +0.189 C 
ATOM      6  C   LIG A   1      -8.614   4.216 129.488  0.00  0.00    +0.241 C 
ENDROOT
BRANCH   1  14
ATOM      7  C   LIG A   1      -5.312  -4.198 132.927  0.00  0.00    +0.162 A 
ATOM      8  C   LIG A   1      -6.543  -3.556 132.784  0.00  0.00    +0.096 A 
ATOM      9  C   LIG A   1      -6.577  -2.195 132.464  0.00  0.00    +0.143 A 
ATOM     10  O   LIG A   1      -7.819  -1.616 132.351  0.00  0.00    -0.454 OA
ATOM     11  C   LIG A   1      -7.892  -0.278 132.033  0.00  0.00    +0.146 A 
ATOM     12  C   LIG A   1      -9.169   0.271 131.948  0.00  0.00    +0.093 A 
ATOM     13  C   LIG A   1      -9.328   1.627 131.622  0.00  0.00    +0.130 A 
ATOM     14  C   LIG A   1      -8.230   2.475 131.365  0.00  0.00    +0.068 A 
ATOM     15  C   LIG A   1      -6.951   1.893 131.459  0.00  0.00    +0.141 A 
ATOM     16  C   LIG A   1      -6.786   0.532 131.798  0.00  0.00    +0.106 A 
ATOM     17  C   LIG A   1      -5.453  -0.076 131.931  0.00  0.00    +0.204 A 
ATOM     18  O   LIG A   1      -4.441   0.594 131.757  0.00  0.00    -0.286 OA
ATOM     19  C   LIG A   1      -5.384  -1.499 132.284  0.00  0.00    +0.068 A 
ATOM     20  C   LIG A   1      -4.147  -2.136 132.433  0.00  0.00    +0.064 A 
ATOM     21  C   LIG A   1      -4.119  -3.489 132.758  0.00  0.00    +0.159 A 
BRANCH   7  22
ATOM     22  O   LIG A   1      -5.257  -5.527 133.238  0.00  0.00    -0.503 OA
ATOM     23  H   LIG A   1      -4.808  -6.012 132.527  0.00  0.00    +0.292 HD
ENDBRANCH   7  22
BRANCH  15  24
ATOM     24  O   LIG A   1      -5.860   2.688 131.212  0.00  0.00    -0.505 OA
ATOM     25  H   LIG A   1      -6.053   3.594 131.543  0.00  0.00    +0.292 HD
ENDBRANCH  15  24
BRANCH  13  26
ATOM     26  O   LIG A   1     -10.596   2.137 131.561  0.00  0.00    -0.506 OA
ATOM     27  H   LIG A   1     -11.235   1.463 131.851  0.00  0.00    +0.292 HD
ENDBRANCH  13  26
BRANCH  21  28
ATOM     28  O   LIG A   1      -2.927  -4.139 132.914  0.00  0.00    -0.503 OA
ATOM     29  H   LIG A   1      -2.413  -4.080 132.092  0.00  0.00    +0.292 HD
ENDBRANCH  21  28
ENDBRANCH   1  14
BRANCH   5  30
ATOM     30  O   LIG A   1      -9.495   5.728 127.790  0.00  0.00    -0.385 OA
ATOM     31  H   LIG A   1      -8.790   5.308 127.259  0.00  0.00    +0.210 HD
ENDBRANCH   5  30
BRANCH   4  32
ATOM     32  O   LIG A   1     -10.320   7.540 129.782  0.00  0.00    -0.387 OA
ATOM     33  H   LIG A   1     -10.226   8.058 130.597  0.00  0.00    +0.210 HD
ENDBRANCH   4  32
BRANCH   6  34
ATOM     34  O   LIG A   1      -7.435   3.840 128.753  0.00  0.00    -0.453 OA
BRANCH  34  35
ATOM     35  C   LIG A   1      -7.565   3.036 127.680  0.00  0.00    +0.332 C 
ATOM     36  O   LIG A   1      -8.093   3.302 126.601  0.00  0.00    -0.246 OA
BRANCH  35  37
ATOM     37  C   LIG A   1      -6.858   1.778 127.926  0.00  0.00    +0.092 C 
ATOM     38  C   LIG A   1      -7.557   0.645 128.113  0.00  0.00    +0.015 C 
BRANCH  38  39
ATOM     39  C   LIG A   1      -6.966  -0.647 128.421  0.00  0.00    -0.025 A 
ATOM     40  C   LIG A   1      -5.574  -0.769 128.347  0.00  0.00    +0.008 A 
ATOM     41  C   LIG A   1      -4.966  -1.990 128.622  0.00  0.00    +0.001 A 
ATOM     42  C   LIG A   1      -5.748  -3.094 128.959  0.00  0.00    +0.000 A 
ATOM     43  C   LIG A   1      -7.137  -2.982 129.010  0.00  0.00    +0.001 A 
ATOM     44  C   LIG A   1      -7.747  -1.763 128.731  0.00  0.00    +0.008 A 
ENDBRANCH  38  39
ENDBRANCH  35  37
ENDBRANCH  34  35
ENDBRANCH   6  34
BRANCH   3  45
ATOM     45  C   LIG A   1     -10.811   6.378 132.506  0.00  0.00    +0.190 C 
BRANCH  45  46
ATOM     46  O   LIG A   1     -12.112   6.175 131.960  0.00  0.00    -0.392 OA
ATOM     47  H   LIG A   1     -12.520   7.061 131.921  0.00  0.00    +0.209 HD
ENDBRANCH  45  46
ENDBRANCH   3  45
TORSDOF 13
ENDMDL
MODEL 5
REMARK VINA RESULT:      -8.3      2.300      8.616
REMARK  Name = NuBBE_368
REMARK  13 active torsions:
REMARK  status: ('A' for Active; 'I' for Inactive)
REMARK    1  A    between atoms: O_1  and  C_2
REMARK    2  A    between atoms: C_8  and  O_38
REMARK    3  A    between atoms: C_9  and  C_10
REMARK    4  A    between atoms: C_13  and  C_34
REMARK    5  A    between atoms: C_15  and  O_33
REMARK    6  A    between atoms: C_17  and  O_32
REMARK    7  A    between atoms: C_19  and  O_21
REMARK    8  A    between atoms: O_21  and  C_22
REMARK    9  A    between atoms: C_22  and  C_23
REMARK   10  A    between atoms: C_24  and  C_25
REMARK   11  A    between atoms: C_34  and  O_35
REMARK   12  A    between atoms: C_36  and  O_37
REMARK   13  A    between atoms: C_44  and  O_45
REMARK                            x       y       z     vdW  Elec       q    Type
REMARK                         _______ _______ _______ _____ _____    ______ ____
ROOT
ATOM      1  C   LIG A   1      -8.377   1.613 125.545  0.00  0.00    +0.199 C 
ATOM      2  O   LIG A   1      -8.920   0.953 124.384  0.00  0.00    -0.360 OA
ATOM      3  C   LIG A   1      -9.424   1.899 123.421  0.00  0.00    +0.175 C 
ATOM      4  C   LIG A   1      -8.272   2.737 122.844  0.00  0.00    +0.177 C 
ATOM      5  C   LIG A   1      -7.595   3.512 123.970  0.00  0.00    +0.189 C 
ATOM      6  C   LIG A   1      -7.237   2.598 125.147  0.00  0.00    +0.241 C 
ENDROOT
BRANCH   1  14
ATOM      7  C   LIG A   1      -6.744  -3.299 132.831  0.00  0.00    +0.162 A 
ATOM      8  C   LIG A   1      -6.506  -3.355 131.457  0.00  0.00    +0.096 A 
ATOM      9  C   LIG A   1      -6.962  -2.319 130.636  0.00  0.00    +0.143 A 
ATOM     10  O   LIG A   1      -6.710  -2.438 129.289  0.00  0.00    -0.454 OA
ATOM     11  C   LIG A   1      -7.140  -1.435 128.451  0.00  0.00    +0.146 A 
ATOM     12  C   LIG A   1      -6.881  -1.606 127.093  0.00  0.00    +0.093 A 
ATOM     13  C   LIG A   1      -7.282  -0.626 126.173  0.00  0.00    +0.130 A 
ATOM     14  C   LIG A   1      -7.945   0.555 126.572  0.00  0.00    +0.068 A 
ATOM     15  C   LIG A   1      -8.195   0.701 127.950  0.00  0.00    +0.141 A 
ATOM     16  C   LIG A   1      -7.803  -0.289 128.876  0.00  0.00    +0.106 A 
ATOM     17  C   LIG A   1      -8.090  -0.160 130.314  0.00  0.00    +0.204 A 
ATOM     18  O   LIG A   1      -8.691   0.818 130.745  0.00  0.00    -0.286 OA
ATOM     19  C   LIG A   1      -7.640  -1.241 131.199  0.00  0.00    +0.068 A 
ATOM     20  C   LIG A   1      -7.888  -1.183 132.575  0.00  0.00    +0.064 A 
ATOM     21  C   LIG A   1      -7.437  -2.220 133.387  0.00  0.00    +0.159 A 
BRANCH   7  22
ATOM     22  O   LIG A   1      -6.306  -4.300 133.651  0.00  0.00    -0.503 OA
ATOM     23  H   LIG A   1      -6.967  -5.009 133.687  0.00  0.00    +0.292 HD
ENDBRANCH   7  22
BRANCH  15  24
ATOM     24  O   LIG A   1      -8.836   1.839 128.373  0.00  0.00    -0.505 OA
ATOM     25  H   LIG A   1      -9.729   1.590 128.701  0.00  0.00    +0.292 HD
ENDBRANCH  15  24
BRANCH  13  26
ATOM     26  O   LIG A   1      -7.023  -0.832 124.846  0.00  0.00    -0.506 OA
ATOM     27  H   LIG A   1      -6.075  -0.702 124.672  0.00  0.00    +0.292 HD
ENDBRANCH  13  26
BRANCH  21  28
ATOM     28  O   LIG A   1      -7.666  -2.194 134.733  0.00  0.00    -0.503 OA
ATOM     29  H   LIG A   1      -6.885  -2.525 135.204  0.00  0.00    +0.292 HD
ENDBRANCH  21  28
ENDBRANCH   1  14
BRANCH   5  30
ATOM     30  O   LIG A   1      -6.406   4.146 123.456  0.00  0.00    -0.385 OA
ATOM     31  H   LIG A   1      -6.631   4.397 122.539  0.00  0.00    +0.210 HD
ENDBRANCH   5  30
BRANCH   4  32
ATOM     32  O   LIG A   1      -8.701   3.713 121.883  0.00  0.00    -0.387 OA
ATOM     33  H   LIG A   1      -8.756   3.296 121.008  0.00  0.00    +0.210 HD
ENDBRANCH   4  32
BRANCH   6  34
ATOM     34  O   LIG A   1      -6.801   3.371 126.281  0.00  0.00    -0.453 OA
BRANCH  34  35
ATOM     35  C   LIG A   1      -5.503   3.330 126.637  0.00  0.00    +0.332 C 
ATOM     36  O   LIG A   1      -4.527   3.652 125.959  0.00  0.00    -0.246 OA
BRANCH  35  37
ATOM     37  C   LIG A   1      -5.395   2.948 128.046  0.00  0.00    +0.092 C 
ATOM     38  C   LIG A   1      -4.802   1.789 128.380  0.00  0.00    +0.015 C 
BRANCH  38  39
ATOM     39  C   LIG A   1      -4.690   1.281 129.737  0.00  0.00    -0.025 A 
ATOM     40  C   LIG A   1      -5.137   2.095 130.784  0.00  0.00    +0.008 A 
ATOM     41  C   LIG A   1      -5.038   1.654 132.099  0.00  0.00    +0.001 A 
ATOM     42  C   LIG A   1      -4.483   0.405 132.373  0.00  0.00    +0.000 A 
ATOM     43  C   LIG A   1      -4.014  -0.398 131.335  0.00  0.00    +0.001 A 
ATOM     44  C   LIG A   1      -4.108   0.042 130.018  0.00  0.00    +0.008 A 
ENDBRANCH  38  39
ENDBRANCH  35  37
ENDBRANCH  34  35
ENDBRANCH   6  34
BRANCH   3  45
ATOM     45  C   LIG A   1     -10.130   1.109 122.316  0.00  0.00    +0.190 C 
BRANCH  45  46
ATOM     46  O   LIG A   1     -11.364   0.568 122.781  0.00  0.00    -0.392 OA
ATOM     47  H   LIG A   1     -11.205   0.314 123.710  0.00  0.00    +0.209 HD
ENDBRANCH  45  46
ENDBRANCH   3  45
TORSDOF 13
ENDMDL
MODEL 6
REMARK VINA RESULT:      -8.2      2.858      7.757
REMARK  Name = NuBBE_368
REMARK  13 active torsions:
REMARK  status: ('A' for Active; 'I' for Inactive)
REMARK    1  A    between atoms: O_1  and  C_2
REMARK    2  A    between atoms: C_8  and  O_38
REMARK    3  A    between atoms: C_9  and  C_10
REMARK    4  A    between atoms: C_13  and  C_34
REMARK    5  A    between atoms: C_15  and  O_33
REMARK    6  A    between atoms: C_17  and  O_32
REMARK    7  A    between atoms: C_19  and  O_21
REMARK    8  A    between atoms: O_21  and  C_22
REMARK    9  A    between atoms: C_22  and  C_23
REMARK   10  A    between atoms: C_24  and  C_25
REMARK   11  A    between atoms: C_34  and  O_35
REMARK   12  A    between atoms: C_36  and  O_37
REMARK   13  A    between atoms: C_44  and  O_45
REMARK                            x       y       z     vdW  Elec       q    Type
REMARK                         _______ _______ _______ _____ _____    ______ ____
ROOT
ATOM      1  C   LIG A   1      -7.545  -0.103 125.875  0.00  0.00    +0.199 C 
ATOM      2  O   LIG A   1      -8.336   0.734 125.008  0.00  0.00    -0.360 OA
ATOM      3  C   LIG A   1      -8.691   0.053 123.789  0.00  0.00    +0.175 C 
ATOM      4  C   LIG A   1      -9.629  -1.126 124.092  0.00  0.00    +0.177 C 
ATOM      5  C   LIG A   1      -8.917  -2.118 125.007  0.00  0.00    +0.189 C 
ATOM      6  C   LIG A   1      -8.301  -1.420 126.224  0.00  0.00    +0.241 C 
ENDROOT
BRANCH   1  14
ATOM      7  C   LIG A   1      -6.981   5.219 133.033  0.00  0.00    +0.162 A 
ATOM      8  C   LIG A   1      -6.153   4.380 132.286  0.00  0.00    +0.096 A 
ATOM      9  C   LIG A   1      -6.678   3.697 131.185  0.00  0.00    +0.143 A 
ATOM     10  O   LIG A   1      -5.817   2.874 130.497  0.00  0.00    -0.454 OA
ATOM     11  C   LIG A   1      -6.298   2.189 129.404  0.00  0.00    +0.146 A 
ATOM     12  C   LIG A   1      -5.396   1.353 128.750  0.00  0.00    +0.093 A 
ATOM     13  C   LIG A   1      -5.807   0.624 127.623  0.00  0.00    +0.130 A 
ATOM     14  C   LIG A   1      -7.118   0.707 127.109  0.00  0.00    +0.068 A 
ATOM     15  C   LIG A   1      -8.009   1.559 127.791  0.00  0.00    +0.141 A 
ATOM     16  C   LIG A   1      -7.602   2.285 128.931  0.00  0.00    +0.106 A 
ATOM     17  C   LIG A   1      -8.535   3.151 129.670  0.00  0.00    +0.204 A 
ATOM     18  O   LIG A   1      -9.703   3.258 129.313  0.00  0.00    -0.286 OA
ATOM     19  C   LIG A   1      -8.018   3.867 130.842  0.00  0.00    +0.068 A 
ATOM     20  C   LIG A   1      -8.854   4.701 131.592  0.00  0.00    +0.064 A 
ATOM     21  C   LIG A   1      -8.328   5.374 132.691  0.00  0.00    +0.159 A 
BRANCH   7  22
ATOM     22  O   LIG A   1      -6.488   5.897 134.112  0.00  0.00    -0.503 OA
ATOM     23  H   LIG A   1      -7.191   6.026 134.768  0.00  0.00    +0.292 HD
ENDBRANCH   7  22
BRANCH  15  24
ATOM     24  O   LIG A   1      -9.292   1.665 127.316  0.00  0.00    -0.505 OA
ATOM     25  H   LIG A   1      -9.807   0.888 127.631  0.00  0.00    +0.292 HD
ENDBRANCH  15  24
BRANCH  13  26
ATOM     26  O   LIG A   1      -4.900  -0.198 127.013  0.00  0.00    -0.506 OA
ATOM     27  H   LIG A   1      -4.875  -0.009 126.059  0.00  0.00    +0.292 HD
ENDBRANCH  13  26
BRANCH  21  28
ATOM     28  O   LIG A   1      -9.120   6.193 133.445  0.00  0.00    -0.503 OA
ATOM     29  H   LIG A   1     -10.000   6.259 133.041  0.00  0.00    +0.292 HD
ENDBRANCH  21  28
ENDBRANCH   1  14
BRANCH   5  30
ATOM     30  O   LIG A   1      -9.860  -3.121 125.437  0.00  0.00    -0.385 OA
ATOM     31  H   LIG A   1     -10.225  -2.781 126.278  0.00  0.00    +0.210 HD
ENDBRANCH   5  30
BRANCH   4  32
ATOM     32  O   LIG A   1     -10.017  -1.863 122.922  0.00  0.00    -0.387 OA
ATOM     33  H   LIG A   1     -10.533  -2.640 123.192  0.00  0.00    +0.210 HD
ENDBRANCH   4  32
BRANCH   6  34
ATOM     34  O   LIG A   1      -7.455  -2.323 126.959  0.00  0.00    -0.453 OA
BRANCH  34  35
ATOM     35  C   LIG A   1      -7.933  -2.896 128.081  0.00  0.00    +0.332 C 
ATOM     36  O   LIG A   1      -8.709  -3.848 128.167  0.00  0.00    -0.246 OA
BRANCH  35  37
ATOM     37  C   LIG A   1      -7.290  -2.292 129.249  0.00  0.00    +0.092 C 
ATOM     38  C   LIG A   1      -7.980  -1.437 130.023  0.00  0.00    +0.015 C 
BRANCH  38  39
ATOM     39  C   LIG A   1      -7.429  -0.735 131.170  0.00  0.00    -0.025 A 
ATOM     40  C   LIG A   1      -8.257   0.162 131.854  0.00  0.00    +0.008 A 
ATOM     41  C   LIG A   1      -7.767   0.865 132.950  0.00  0.00    +0.001 A 
ATOM     42  C   LIG A   1      -6.447   0.683 133.358  0.00  0.00    +0.000 A 
ATOM     43  C   LIG A   1      -5.611  -0.192 132.664  0.00  0.00    +0.001 A 
ATOM     44  C   LIG A   1      -6.098  -0.892 131.565  0.00  0.00    +0.008 A 
ENDBRANCH  38  39
ENDBRANCH  35  37
ENDBRANCH  34  35
ENDBRANCH   6  34
BRANCH   3  45
ATOM     45  C   LIG A   1      -9.372   1.068 122.868  0.00  0.00    +0.190 C 
BRANCH  45  46
ATOM     46  O   LIG A   1     -10.739   0.728 122.652  0.00  0.00    -0.392 OA
ATOM     47  H   LIG A   1     -11.123   1.481 122.163  0.00  0.00    +0.209 HD
ENDBRANCH  45  46
ENDBRANCH   3  45
TORSDOF 13
ENDMDL
MODEL 7
REMARK VINA RESULT:      -8.0      3.041      6.186
REMARK  Name = NuBBE_368
REMARK  13 active torsions:
REMARK  status: ('A' for Active; 'I' for Inactive)
REMARK    1  A    between atoms: O_1  and  C_2
REMARK    2  A    between atoms: C_8  and  O_38
REMARK    3  A    between atoms: C_9  and  C_10
REMARK    4  A    between atoms: C_13  and  C_34
REMARK    5  A    between atoms: C_15  and  O_33
REMARK    6  A    between atoms: C_17  and  O_32
REMARK    7  A    between atoms: C_19  and  O_21
REMARK    8  A    between atoms: O_21  and  C_22
REMARK    9  A    between atoms: C_22  and  C_23
REMARK   10  A    between atoms: C_24  and  C_25
REMARK   11  A    between atoms: C_34  and  O_35
REMARK   12  A    between atoms: C_36  and  O_37
REMARK   13  A    between atoms: C_44  and  O_45
REMARK                            x       y       z     vdW  Elec       q    Type
REMARK                         _______ _______ _______ _____ _____    ______ ____
ROOT
ATOM      1  C   LIG A   1      -4.721  -2.018 131.840  0.00  0.00    +0.199 C 
ATOM      2  O   LIG A   1      -4.324  -3.261 132.454  0.00  0.00    -0.360 OA
ATOM      3  C   LIG A   1      -3.306  -3.060 133.453  0.00  0.00    +0.175 C 
ATOM      4  C   LIG A   1      -3.870  -2.249 134.631  0.00  0.00    +0.177 C 
ATOM      5  C   LIG A   1      -4.331  -0.883 134.132  0.00  0.00    +0.189 C 
ATOM      6  C   LIG A   1      -5.241  -1.009 132.906  0.00  0.00    +0.241 C 
ENDROOT
BRANCH   1  14
ATOM      7  C   LIG A   1      -9.204  -2.884 124.156  0.00  0.00    +0.162 A 
ATOM      8  C   LIG A   1      -9.385  -3.168 125.511  0.00  0.00    +0.096 A 
ATOM      9  C   LIG A   1      -8.373  -2.854 126.422  0.00  0.00    +0.143 A 
ATOM     10  O   LIG A   1      -8.604  -3.171 127.740  0.00  0.00    -0.454 OA
ATOM     11  C   LIG A   1      -7.631  -2.871 128.667  0.00  0.00    +0.146 A 
ATOM     12  C   LIG A   1      -7.900  -3.228 129.986  0.00  0.00    +0.093 A 
ATOM     13  C   LIG A   1      -6.961  -2.951 130.992  0.00  0.00    +0.130 A 
ATOM     14  C   LIG A   1      -5.734  -2.308 130.722  0.00  0.00    +0.068 A 
ATOM     15  C   LIG A   1      -5.489  -1.960 129.379  0.00  0.00    +0.141 A 
ATOM     16  C   LIG A   1      -6.426  -2.247 128.364  0.00  0.00    +0.106 A 
ATOM     17  C   LIG A   1      -6.163  -1.917 126.954  0.00  0.00    +0.204 A 
ATOM     18  O   LIG A   1      -5.109  -1.386 126.622  0.00  0.00    -0.286 OA
ATOM     19  C   LIG A   1      -7.200  -2.253 125.970  0.00  0.00    +0.068 A 
ATOM     20  C   LIG A   1      -7.010  -1.972 124.612  0.00  0.00    +0.064 A 
ATOM     21  C   LIG A   1      -8.018  -2.294 123.709  0.00  0.00    +0.159 A 
BRANCH   7  22
ATOM     22  O   LIG A   1     -10.181  -3.183 123.249  0.00  0.00    -0.503 OA
ATOM     23  H   LIG A   1     -10.632  -2.370 122.973  0.00  0.00    +0.292 HD
ENDBRANCH   7  22
BRANCH  15  24
ATOM     24  O   LIG A   1      -4.306  -1.330 129.081  0.00  0.00    -0.505 OA
ATOM     25  H   LIG A   1      -4.391  -0.379 129.317  0.00  0.00    +0.292 HD
ENDBRANCH  15  24
BRANCH  13  26
ATOM     26  O   LIG A   1      -7.251  -3.327 132.274  0.00  0.00    -0.506 OA
ATOM     27  H   LIG A   1      -7.486  -2.544 132.801  0.00  0.00    +0.292 HD
ENDBRANCH  13  26
BRANCH  21  28
ATOM     28  O   LIG A   1      -7.862  -2.036 122.376  0.00  0.00    -0.503 OA
ATOM     29  H   LIG A   1      -8.065  -1.103 122.198  0.00  0.00    +0.292 HD
ENDBRANCH  21  28
ENDBRANCH   1  14
BRANCH   5  30
ATOM     30  O   LIG A   1      -5.025  -0.204 135.198  0.00  0.00    -0.385 OA
ATOM     31  H   LIG A   1      -4.388  -0.179 135.939  0.00  0.00    +0.210 HD
ENDBRANCH   5  30
BRANCH   4  32
ATOM     32  O   LIG A   1      -2.906  -1.998 135.665  0.00  0.00    -0.387 OA
ATOM     33  H   LIG A   1      -3.258  -2.315 136.512  0.00  0.00    +0.210 HD
ENDBRANCH   4  32
BRANCH   6  34
ATOM     34  O   LIG A   1      -5.490   0.282 132.319  0.00  0.00    -0.453 OA
BRANCH  34  35
ATOM     35  C   LIG A   1      -6.732   0.801 132.390  0.00  0.00    +0.332 C 
ATOM     36  O   LIG A   1      -7.299   1.263 133.379  0.00  0.00    -0.246 OA
BRANCH  35  37
ATOM     37  C   LIG A   1      -7.311   0.860 131.047  0.00  0.00    +0.092 C 
ATOM     38  C   LIG A   1      -6.531   1.167 129.996  0.00  0.00    +0.015 C 
BRANCH  38  39
ATOM     39  C   LIG A   1      -7.007   1.311 128.630  0.00  0.00    -0.025 A 
ATOM     40  C   LIG A   1      -6.133   1.854 127.682  0.00  0.00    +0.008 A 
ATOM     41  C   LIG A   1      -6.551   2.021 126.365  0.00  0.00    +0.001 A 
ATOM     42  C   LIG A   1      -7.845   1.658 125.996  0.00  0.00    +0.000 A 
ATOM     43  C   LIG A   1      -8.727   1.140 126.943  0.00  0.00    +0.001 A 
ATOM     44  C   LIG A   1      -8.313   0.976 128.262  0.00  0.00    +0.008 A 
ENDBRANCH  38  39
ENDBRANCH  35  37
ENDBRANCH  34  35
ENDBRANCH   6  34
BRANCH   3  45
ATOM     45  C   LIG A   1      -2.830  -4.438 133.919  0.00  0.00    +0.190 C 
BRANCH  45  46
ATOM     46  O   LIG A   1      -1.424  -4.442 134.153  0.00  0.00    -0.392 OA
ATOM     47  H   LIG A   1      -1.091  -3.610 133.766  0.00  0.00    +0.209 HD
ENDBRANCH  45  46
ENDBRANCH   3  45
TORSDOF 13
ENDMDL
MODEL 8
REMARK VINA RESULT:      -8.0      2.694      8.472
REMARK  Name = NuBBE_368
REMARK  13 active torsions:
REMARK  status: ('A' for Active; 'I' for Inactive)
REMARK    1  A    between atoms: O_1  and  C_2
REMARK    2  A    between atoms: C_8  and  O_38
REMARK    3  A    between atoms: C_9  and  C_10
REMARK    4  A    between atoms: C_13  and  C_34
REMARK    5  A    between atoms: C_15  and  O_33
REMARK    6  A    between atoms: C_17  and  O_32
REMARK    7  A    between atoms: C_19  and  O_21
REMARK    8  A    between atoms: O_21  and  C_22
REMARK    9  A    between atoms: C_22  and  C_23
REMARK   10  A    between atoms: C_24  and  C_25
REMARK   11  A    between atoms: C_34  and  O_35
REMARK   12  A    between atoms: C_36  and  O_37
REMARK   13  A    between atoms: C_44  and  O_45
REMARK                            x       y       z     vdW  Elec       q    Type
REMARK                         _______ _______ _______ _____ _____    ______ ____
ROOT
ATOM      1  C   LIG A   1      -8.610   2.396 126.374  0.00  0.00    +0.199 C 
ATOM      2  O   LIG A   1      -8.958   1.507 125.293  0.00  0.00    -0.360 OA
ATOM      3  C   LIG A   1      -9.290   2.232 124.094  0.00  0.00    +0.175 C 
ATOM      4  C   LIG A   1      -8.053   2.971 123.558  0.00  0.00    +0.177 C 
ATOM      5  C   LIG A   1      -7.566   3.969 124.604  0.00  0.00    +0.189 C 
ATOM      6  C   LIG A   1      -7.414   3.313 125.981  0.00  0.00    +0.241 C 
ENDROOT
BRANCH   1  14
ATOM      7  C   LIG A   1      -6.343  -3.716 132.489  0.00  0.00    +0.162 A 
ATOM      8  C   LIG A   1      -6.963  -2.467 132.438  0.00  0.00    +0.096 A 
ATOM      9  C   LIG A   1      -7.121  -1.824 131.207  0.00  0.00    +0.143 A 
ATOM     10  O   LIG A   1      -7.726  -0.590 131.224  0.00  0.00    -0.454 OA
ATOM     11  C   LIG A   1      -7.901   0.070 130.028  0.00  0.00    +0.146 A 
ATOM     12  C   LIG A   1      -8.501   1.325 130.095  0.00  0.00    +0.093 A 
ATOM     13  C   LIG A   1      -8.722   2.060 128.920  0.00  0.00    +0.130 A 
ATOM     14  C   LIG A   1      -8.361   1.571 127.646  0.00  0.00    +0.068 A 
ATOM     15  C   LIG A   1      -7.755   0.300 127.609  0.00  0.00    +0.141 A 
ATOM     16  C   LIG A   1      -7.522  -0.437 128.790  0.00  0.00    +0.106 A 
ATOM     17  C   LIG A   1      -6.860  -1.751 128.764  0.00  0.00    +0.204 A 
ATOM     18  O   LIG A   1      -6.483  -2.240 127.704  0.00  0.00    -0.286 OA
ATOM     19  C   LIG A   1      -6.664  -2.441 130.044  0.00  0.00    +0.068 A 
ATOM     20  C   LIG A   1      -6.035  -3.691 130.090  0.00  0.00    +0.064 A 
ATOM     21  C   LIG A   1      -5.875  -4.323 131.319  0.00  0.00    +0.159 A 
BRANCH   7  22
ATOM     22  O   LIG A   1      -6.181  -4.361 133.682  0.00  0.00    -0.503 OA
ATOM     23  H   LIG A   1      -5.377  -4.042 134.121  0.00  0.00    +0.292 HD
ENDBRANCH   7  22
BRANCH  15  24
ATOM     24  O   LIG A   1      -7.394  -0.208 126.386  0.00  0.00    -0.505 OA
ATOM     25  H   LIG A   1      -7.517   0.494 125.708  0.00  0.00    +0.292 HD
ENDBRANCH  15  24
BRANCH  13  26
ATOM     26  O   LIG A   1      -9.300   3.295 129.023  0.00  0.00    -0.506 OA
ATOM     27  H   LIG A   1      -9.532   3.624 128.137  0.00  0.00    +0.292 HD
ENDBRANCH  13  26
BRANCH  21  28
ATOM     28  O   LIG A   1      -5.262  -5.541 131.397  0.00  0.00    -0.503 OA
ATOM     29  H   LIG A   1      -5.932  -6.241 131.448  0.00  0.00    +0.292 HD
ENDBRANCH  21  28
ENDBRANCH   1  14
BRANCH   5  30
ATOM     30  O   LIG A   1      -6.304   4.520 124.176  0.00  0.00    -0.385 OA
ATOM     31  H   LIG A   1      -5.693   3.757 124.146  0.00  0.00    +0.210 HD
ENDBRANCH   5  30
BRANCH   4  32
ATOM     32  O   LIG A   1      -8.311   3.729 122.366  0.00  0.00    -0.387 OA
ATOM     33  H   LIG A   1      -8.079   4.658 122.524  0.00  0.00    +0.210 HD
ENDBRANCH   4  32
BRANCH   6  34
ATOM     34  O   LIG A   1      -7.165   4.304 126.995  0.00  0.00    -0.453 OA
BRANCH  34  35
ATOM     35  C   LIG A   1      -5.898   4.518 127.401  0.00  0.00    +0.332 C 
ATOM     36  O   LIG A   1      -5.047   5.227 126.865  0.00  0.00    -0.246 OA
BRANCH  35  37
ATOM     37  C   LIG A   1      -5.682   3.862 128.691  0.00  0.00    +0.092 C 
ATOM     38  C   LIG A   1      -5.007   2.701 128.745  0.00  0.00    +0.015 C 
BRANCH  38  39
ATOM     39  C   LIG A   1      -4.783   1.933 129.959  0.00  0.00    -0.025 A 
ATOM     40  C   LIG A   1      -4.197   0.668 129.839  0.00  0.00    +0.008 A 
ATOM     41  C   LIG A   1      -3.975  -0.107 130.973  0.00  0.00    +0.001 A 
ATOM     42  C   LIG A   1      -4.348   0.375 132.227  0.00  0.00    +0.000 A 
ATOM     43  C   LIG A   1      -4.954   1.625 132.347  0.00  0.00    +0.001 A 
ATOM     44  C   LIG A   1      -5.181   2.399 131.214  0.00  0.00    +0.008 A 
ENDBRANCH  38  39
ENDBRANCH  35  37
ENDBRANCH  34  35
ENDBRANCH   6  34
BRANCH   3  45
ATOM     45  C   LIG A   1      -9.810   1.224 123.066  0.00  0.00    +0.190 C 
BRANCH  45  46
ATOM     46  O   LIG A   1      -9.984  -0.063 123.653  0.00  0.00    -0.392 OA
ATOM     47  H   LIG A   1     -10.941  -0.146 123.825  0.00  0.00    +0.209 HD
ENDBRANCH  45  46
ENDBRANCH   3  45
TORSDOF 13
ENDMDL
MODEL 9
REMARK VINA RESULT:      -8.0      4.504      7.939
REMARK  Name = NuBBE_368
REMARK  13 active torsions:
REMARK  status: ('A' for Active; 'I' for Inactive)
REMARK    1  A    between atoms: O_1  and  C_2
REMARK    2  A    between atoms: C_8  and  O_38
REMARK    3  A    between atoms: C_9  and  C_10
REMARK    4  A    between atoms: C_13  and  C_34
REMARK    5  A    between atoms: C_15  and  O_33
REMARK    6  A    between atoms: C_17  and  O_32
REMARK    7  A    between atoms: C_19  and  O_21
REMARK    8  A    between atoms: O_21  and  C_22
REMARK    9  A    between atoms: C_22  and  C_23
REMARK   10  A    between atoms: C_24  and  C_25
REMARK   11  A    between atoms: C_34  and  O_35
REMARK   12  A    between atoms: C_36  and  O_37
REMARK   13  A    between atoms: C_44  and  O_45
REMARK                            x       y       z     vdW  Elec       q    Type
REMARK                         _______ _______ _______ _____ _____    ______ ____
ROOT
ATOM      1  C   LIG A   1     -10.110   3.775 130.854  0.00  0.00    +0.199 C 
ATOM      2  O   LIG A   1     -10.523   4.625 129.765  0.00  0.00    -0.360 OA
ATOM      3  C   LIG A   1     -11.609   5.491 130.147  0.00  0.00    +0.175 C 
ATOM      4  C   LIG A   1     -11.141   6.491 131.217  0.00  0.00    +0.177 C 
ATOM      5  C   LIG A   1     -10.674   5.729 132.454  0.00  0.00    +0.189 C 
ATOM      6  C   LIG A   1      -9.681   4.619 132.091  0.00  0.00    +0.241 C 
ENDROOT
BRANCH   1  14
ATOM      7  C   LIG A   1      -4.635  -3.105 129.254  0.00  0.00    +0.162 A 
ATOM      8  C   LIG A   1      -4.809  -1.787 128.831  0.00  0.00    +0.096 A 
ATOM      9  C   LIG A   1      -5.850  -1.023 129.366  0.00  0.00    +0.143 A 
ATOM     10  O   LIG A   1      -5.980   0.263 128.899  0.00  0.00    -0.454 OA
ATOM     11  C   LIG A   1      -6.992   1.046 129.406  0.00  0.00    +0.146 A 
ATOM     12  C   LIG A   1      -7.097   2.336 128.891  0.00  0.00    +0.093 A 
ATOM     13  C   LIG A   1      -8.099   3.199 129.361  0.00  0.00    +0.130 A 
ATOM     14  C   LIG A   1      -9.020   2.813 130.358  0.00  0.00    +0.068 A 
ATOM     15  C   LIG A   1      -8.891   1.503 130.860  0.00  0.00    +0.141 A 
ATOM     16  C   LIG A   1      -7.891   0.629 130.382  0.00  0.00    +0.106 A 
ATOM     17  C   LIG A   1      -7.770  -0.752 130.876  0.00  0.00    +0.204 A 
ATOM     18  O   LIG A   1      -8.548  -1.183 131.720  0.00  0.00    -0.286 OA
ATOM     19  C   LIG A   1      -6.697  -1.584 130.320  0.00  0.00    +0.068 A 
ATOM     20  C   LIG A   1      -6.531  -2.908 130.742  0.00  0.00    +0.064 A 
ATOM     21  C   LIG A   1      -5.496  -3.665 130.202  0.00  0.00    +0.159 A 
BRANCH   7  22
ATOM     22  O   LIG A   1      -3.622  -3.868 128.745  0.00  0.00    -0.503 OA
ATOM     23  H   LIG A   1      -3.023  -4.138 129.459  0.00  0.00    +0.292 HD
ENDBRANCH   7  22
BRANCH  15  24
ATOM     24  O   LIG A   1      -9.769   1.095 131.833  0.00  0.00    -0.505 OA
ATOM     25  H   LIG A   1     -10.680   1.132 131.465  0.00  0.00    +0.292 HD
ENDBRANCH  15  24
BRANCH  13  26
ATOM     26  O   LIG A   1      -8.183   4.453 128.823  0.00  0.00    -0.506 OA
ATOM     27  H   LIG A   1      -7.360   4.662 128.346  0.00  0.00    +0.292 HD
ENDBRANCH  13  26
BRANCH  21  28
ATOM     28  O   LIG A   1      -5.311  -4.962 130.591  0.00  0.00    -0.503 OA
ATOM     29  H   LIG A   1      -4.616  -5.003 131.267  0.00  0.00    +0.292 HD
ENDBRANCH  21  28
ENDBRANCH   1  14
BRANCH   5  30
ATOM     30  O   LIG A   1     -10.064   6.656 133.374  0.00  0.00    -0.385 OA
ATOM     31  H   LIG A   1      -9.393   6.132 133.853  0.00  0.00    +0.210 HD
ENDBRANCH   5  30
BRANCH   4  32
ATOM     32  O   LIG A   1     -12.176   7.382 131.658  0.00  0.00    -0.387 OA
ATOM     33  H   LIG A   1     -12.259   7.321 132.624  0.00  0.00    +0.210 HD
ENDBRANCH   4  32
BRANCH   6  34
ATOM     34  O   LIG A   1      -9.418   3.776 133.227  0.00  0.00    -0.453 OA
BRANCH  34  35
ATOM     35  C   LIG A   1      -8.266   3.938 133.906  0.00  0.00    +0.332 C 
ATOM     36  O   LIG A   1      -7.910   4.919 134.559  0.00  0.00    -0.246 OA
BRANCH  35  37
ATOM     37  C   LIG A   1      -7.499   2.692 133.869  0.00  0.00    +0.092 C 
ATOM     38  C   LIG A   1      -6.366   2.627 133.148  0.00  0.00    +0.015 C 
BRANCH  38  39
ATOM     39  C   LIG A   1      -5.556   1.430 132.992  0.00  0.00    -0.025 A 
ATOM     40  C   LIG A   1      -5.834   0.334 133.817  0.00  0.00    +0.008 A 
ATOM     41  C   LIG A   1      -5.076  -0.828 133.710  0.00  0.00    +0.001 A 
ATOM     42  C   LIG A   1      -4.034  -0.894 132.787  0.00  0.00    +0.000 A 
ATOM     43  C   LIG A   1      -3.739   0.204 131.980  0.00  0.00    +0.001 A 
ATOM     44  C   LIG A   1      -4.492   1.369 132.089  0.00  0.00    +0.008 A 
ENDBRANCH  38  39
ENDBRANCH  35  37
ENDBRANCH  34  35
ENDBRANCH   6  34
BRANCH   3  45
ATOM     45  C   LIG A   1     -12.089   6.222 128.891  0.00  0.00    +0.190 C 
BRANCH  45  46
ATOM     46  O   LIG A   1     -13.360   6.830 129.106  0.00  0.00    -0.392 OA
ATOM     47  H   LIG A   1     -13.507   6.797 130.070  0.00  0.00    +0.209 HD
ENDBRANCH  45  46
ENDBRANCH   3  45
TORSDOF 13
ENDMDL
