MODEL 1
REMARK VINA RESULT:      -7.3      0.000      0.000
REMARK  Name = NuBBE_260
REMARK  11 active torsions:
REMARK  status: ('A' for Active; 'I' for Inactive)
REMARK    1  A    between atoms: O_1  and  C_2
REMARK    2  A    between atoms: C_2  and  C_3
REMARK    3  A    between atoms: C_3  and  C_4
REMARK    4  A    between atoms: C_4  and  C_5
REMARK    5  A    between atoms: C_7  and  O_8
REMARK    6  A    between atoms: O_8  and  C_9
REMARK    7  A    between atoms: C_12  and  C_13
REMARK    8  A    between atoms: C_15  and  O_16
REMARK    9  A    between atoms: O_16  and  C_17
REMARK   10  A    between atoms: C_18  and  O_19
REMARK   11  A    between atoms: O_19  and  C_20
REMARK                            x       y       z     vdW  Elec       q    Type
REMARK                         _______ _______ _______ _____ _____    ______ ____
ROOT
ATOM      1  C   LIG A   1     -12.444   8.555 130.134  0.00  0.00    -0.043 A 
ATOM      2  C   LIG A   1     -11.702   8.489 128.942  0.00  0.00    +0.053 A 
ATOM      3  C   LIG A   1     -10.890   7.389 128.634  0.00  0.00    +0.163 A 
ATOM      4  C   LIG A   1     -10.860   6.359 129.582  0.00  0.00    +0.177 A 
ATOM      5  O   LIG A   1     -10.159   5.198 129.490  0.00  0.00    -0.451 OA
ATOM      6  C   LIG A   1     -10.403   4.457 130.607  0.00  0.00    +0.137 A 
ATOM      7  C   LIG A   1     -11.254   5.154 131.441  0.00  0.00    +0.058 A 
ATOM      8  C   LIG A   1     -11.571   6.377 130.777  0.00  0.00    +0.025 A 
ATOM      9  C   LIG A   1     -12.385   7.492 131.057  0.00  0.00    +0.015 A 
ENDROOT
BRANCH   6  10
ATOM     10  C   LIG A   1      -9.728   3.164 130.632  0.00  0.00    +0.021 A 
ATOM     11  C   LIG A   1      -8.977   2.695 129.552  0.00  0.00    +0.061 A 
ATOM     12  C   LIG A   1      -8.368   1.425 129.578  0.00  0.00    +0.162 A 
ATOM     13  C   LIG A   1      -8.513   0.602 130.714  0.00  0.00    +0.162 A 
ATOM     14  C   LIG A   1      -9.245   1.086 131.803  0.00  0.00    +0.050 A 
ATOM     15  C   LIG A   1      -9.846   2.345 131.762  0.00  0.00    +0.015 A 
BRANCH  12  16
ATOM     16  O   LIG A   1      -7.682   1.153 128.419  0.00  0.00    -0.491 OA
ATOM     17  C   LIG A   1      -8.347   1.318 127.177  0.00  0.00    +0.277 C 
ENDBRANCH  12  16
BRANCH  13  18
ATOM     18  O   LIG A   1      -7.946  -0.643 130.701  0.00  0.00    -0.491 OA
ATOM     19  C   LIG A   1      -7.728  -1.306 131.940  0.00  0.00    +0.277 C 
ENDBRANCH  13  18
ENDBRANCH   6  10
BRANCH   3  20
ATOM     20  O   LIG A   1     -10.219   7.460 127.423  0.00  0.00    -0.491 OA
ATOM     21  C   LIG A   1     -11.037   7.621 126.269  0.00  0.00    +0.277 C 
ENDBRANCH   3  20
BRANCH   1  22
ATOM     22  C   LIG A   1     -13.311   9.764 130.415  0.00  0.00    +0.037 C 
BRANCH  22  23
ATOM     23  C   LIG A   1     -13.520  10.631 129.170  0.00  0.00    +0.032 C 
BRANCH  23  24
ATOM     24  C   LIG A   1     -13.887  12.066 129.528  0.00  0.00    +0.156 C 
BRANCH  24  25
ATOM     25  O   LIG A   1     -13.416  12.379 130.831  0.00  0.00    -0.395 OA
ATOM     26  H   LIG A   1     -13.837  11.754 131.447  0.00  0.00    +0.209 HD
ENDBRANCH  24  25
ENDBRANCH  23  24
ENDBRANCH  22  23
ENDBRANCH   1  22
TORSDOF 8
ENDMDL
MODEL 2
REMARK VINA RESULT:      -6.9      4.106     10.157
REMARK  Name = NuBBE_260
REMARK  11 active torsions:
REMARK  status: ('A' for Active; 'I' for Inactive)
REMARK    1  A    between atoms: O_1  and  C_2
REMARK    2  A    between atoms: C_2  and  C_3
REMARK    3  A    between atoms: C_3  and  C_4
REMARK    4  A    between atoms: C_4  and  C_5
REMARK    5  A    between atoms: C_7  and  O_8
REMARK    6  A    between atoms: O_8  and  C_9
REMARK    7  A    between atoms: C_12  and  C_13
REMARK    8  A    between atoms: C_15  and  O_16
REMARK    9  A    between atoms: O_16  and  C_17
REMARK   10  A    between atoms: C_18  and  O_19
REMARK   11  A    between atoms: O_19  and  C_20
REMARK                            x       y       z     vdW  Elec       q    Type
REMARK                         _______ _______ _______ _____ _____    ______ ____
ROOT
ATOM      1  C   LIG A   1      -6.354  -1.848 123.824  0.00  0.00    -0.043 A 
ATOM      2  C   LIG A   1      -7.631  -1.390 123.459  0.00  0.00    +0.053 A 
ATOM      3  C   LIG A   1      -8.448  -0.679 124.350  0.00  0.00    +0.163 A 
ATOM      4  C   LIG A   1      -7.917  -0.452 125.626  0.00  0.00    +0.177 A 
ATOM      5  O   LIG A   1      -8.518   0.221 126.642  0.00  0.00    -0.451 OA
ATOM      6  C   LIG A   1      -7.673   0.233 127.712  0.00  0.00    +0.137 A 
ATOM      7  C   LIG A   1      -6.522  -0.458 127.393  0.00  0.00    +0.058 A 
ATOM      8  C   LIG A   1      -6.661  -0.888 126.038  0.00  0.00    +0.025 A 
ATOM      9  C   LIG A   1      -5.861  -1.593 125.119  0.00  0.00    +0.015 A 
ENDROOT
BRANCH   6  10
ATOM     10  C   LIG A   1      -8.184   0.948 128.875  0.00  0.00    +0.021 A 
ATOM     11  C   LIG A   1      -8.788   2.204 128.772  0.00  0.00    +0.061 A 
ATOM     12  C   LIG A   1      -9.237   2.899 129.913  0.00  0.00    +0.162 A 
ATOM     13  C   LIG A   1      -9.079   2.324 131.190  0.00  0.00    +0.162 A 
ATOM     14  C   LIG A   1      -8.497   1.055 131.286  0.00  0.00    +0.050 A 
ATOM     15  C   LIG A   1      -8.054   0.380 130.148  0.00  0.00    +0.015 A 
BRANCH  12  16
ATOM     16  O   LIG A   1      -9.794   4.114 129.596  0.00  0.00    -0.491 OA
ATOM     17  C   LIG A   1      -8.960   5.260 129.564  0.00  0.00    +0.277 C 
ENDBRANCH  12  16
BRANCH  13  18
ATOM     18  O   LIG A   1      -9.486   3.033 132.287  0.00  0.00    -0.491 OA
ATOM     19  C   LIG A   1      -8.679   3.003 133.457  0.00  0.00    +0.277 C 
ENDBRANCH  13  18
ENDBRANCH   6  10
BRANCH   3  20
ATOM     20  O   LIG A   1      -9.680  -0.287 123.852  0.00  0.00    -0.491 OA
ATOM     21  C   LIG A   1      -9.755   1.048 123.364  0.00  0.00    +0.277 C 
ENDBRANCH   3  20
BRANCH   1  22
ATOM     22  C   LIG A   1      -5.511  -2.605 122.820  0.00  0.00    +0.037 C 
BRANCH  22  23
ATOM     23  C   LIG A   1      -4.335  -3.332 123.478  0.00  0.00    +0.032 C 
BRANCH  23  24
ATOM     24  C   LIG A   1      -4.679  -4.775 123.829  0.00  0.00    +0.156 C 
BRANCH  24  25
ATOM     25  O   LIG A   1      -4.093  -5.659 122.885  0.00  0.00    -0.395 OA
ATOM     26  H   LIG A   1      -3.441  -5.146 122.377  0.00  0.00    +0.209 HD
ENDBRANCH  24  25
ENDBRANCH  23  24
ENDBRANCH  22  23
ENDBRANCH   1  22
TORSDOF 8
ENDMDL
MODEL 3
REMARK VINA RESULT:      -6.9      4.476      7.985
REMARK  Name = NuBBE_260
REMARK  11 active torsions:
REMARK  status: ('A' for Active; 'I' for Inactive)
REMARK    1  A    between atoms: O_1  and  C_2
REMARK    2  A    between atoms: C_2  and  C_3
REMARK    3  A    between atoms: C_3  and  C_4
REMARK    4  A    between atoms: C_4  and  C_5
REMARK    5  A    between atoms: C_7  and  O_8
REMARK    6  A    between atoms: O_8  and  C_9
REMARK    7  A    between atoms: C_12  and  C_13
REMARK    8  A    between atoms: C_15  and  O_16
REMARK    9  A    between atoms: O_16  and  C_17
REMARK   10  A    between atoms: C_18  and  O_19
REMARK   11  A    between atoms: O_19  and  C_20
REMARK                            x       y       z     vdW  Elec       q    Type
REMARK                         _______ _______ _______ _____ _____    ______ ____
ROOT
ATOM      1  C   LIG A   1      -6.013   3.851 122.887  0.00  0.00    -0.043 A 
ATOM      2  C   LIG A   1      -7.275   3.268 122.681  0.00  0.00    +0.053 A 
ATOM      3  C   LIG A   1      -8.134   2.960 123.746  0.00  0.00    +0.163 A 
ATOM      4  C   LIG A   1      -7.661   3.268 125.028  0.00  0.00    +0.177 A 
ATOM      5  O   LIG A   1      -8.322   3.073 126.200  0.00  0.00    -0.451 OA
ATOM      6  C   LIG A   1      -7.531   3.512 127.219  0.00  0.00    +0.137 A 
ATOM      7  C   LIG A   1      -6.337   3.976 126.705  0.00  0.00    +0.058 A 
ATOM      8  C   LIG A   1      -6.421   3.841 125.286  0.00  0.00    +0.025 A 
ATOM      9  C   LIG A   1      -5.582   4.146 124.196  0.00  0.00    +0.015 A 
ENDROOT
BRANCH   6  10
ATOM     10  C   LIG A   1      -8.129   3.384 128.543  0.00  0.00    +0.021 A 
ATOM     11  C   LIG A   1      -8.593   4.489 129.261  0.00  0.00    +0.061 A 
ATOM     12  C   LIG A   1      -9.129   4.350 130.557  0.00  0.00    +0.162 A 
ATOM     13  C   LIG A   1      -9.201   3.074 131.152  0.00  0.00    +0.162 A 
ATOM     14  C   LIG A   1      -8.759   1.968 130.419  0.00  0.00    +0.050 A 
ATOM     15  C   LIG A   1      -8.228   2.120 129.138  0.00  0.00    +0.015 A 
BRANCH  12  16
ATOM     16  O   LIG A   1      -9.521   5.555 131.089  0.00  0.00    -0.491 OA
ATOM     17  C   LIG A   1      -8.533   6.534 131.367  0.00  0.00    +0.277 C 
ENDBRANCH  12  16
BRANCH  13  18
ATOM     18  O   LIG A   1      -9.688   2.968 132.426  0.00  0.00    -0.491 OA
ATOM     19  C   LIG A   1      -8.794   3.158 133.515  0.00  0.00    +0.277 C 
ENDBRANCH  13  18
ENDBRANCH   6  10
BRANCH   3  20
ATOM     20  O   LIG A   1      -9.347   2.392 123.393  0.00  0.00    -0.491 OA
ATOM     21  C   LIG A   1      -9.384   0.969 123.373  0.00  0.00    +0.277 C 
ENDBRANCH   3  20
BRANCH   1  22
ATOM     22  C   LIG A   1      -5.129   4.169 121.701  0.00  0.00    +0.037 C 
BRANCH  22  23
ATOM     23  C   LIG A   1      -5.909   4.192 120.383  0.00  0.00    +0.032 C 
BRANCH  23  24
ATOM     24  C   LIG A   1      -5.514   5.374 119.506  0.00  0.00    +0.156 C 
BRANCH  24  25
ATOM     25  O   LIG A   1      -4.736   6.297 120.254  0.00  0.00    -0.395 OA
ATOM     26  H   LIG A   1      -4.356   5.811 121.006  0.00  0.00    +0.209 HD
ENDBRANCH  24  25
ENDBRANCH  23  24
ENDBRANCH  22  23
ENDBRANCH   1  22
TORSDOF 8
ENDMDL
MODEL 4
REMARK VINA RESULT:      -6.8      8.832     10.056
REMARK  Name = NuBBE_260
REMARK  11 active torsions:
REMARK  status: ('A' for Active; 'I' for Inactive)
REMARK    1  A    between atoms: O_1  and  C_2
REMARK    2  A    between atoms: C_2  and  C_3
REMARK    3  A    between atoms: C_3  and  C_4
REMARK    4  A    between atoms: C_4  and  C_5
REMARK    5  A    between atoms: C_7  and  O_8
REMARK    6  A    between atoms: O_8  and  C_9
REMARK    7  A    between atoms: C_12  and  C_13
REMARK    8  A    between atoms: C_15  and  O_16
REMARK    9  A    between atoms: O_16  and  C_17
REMARK   10  A    between atoms: C_18  and  O_19
REMARK   11  A    between atoms: O_19  and  C_20
REMARK                            x       y       z     vdW  Elec       q    Type
REMARK                         _______ _______ _______ _____ _____    ______ ____
ROOT
ATOM      1  C   LIG A   1      -8.628  -2.466 124.714  0.00  0.00    -0.043 A 
ATOM      2  C   LIG A   1      -7.355  -1.872 124.757  0.00  0.00    +0.053 A 
ATOM      3  C   LIG A   1      -6.563  -1.896 125.914  0.00  0.00    +0.163 A 
ATOM      4  C   LIG A   1      -7.114  -2.548 127.025  0.00  0.00    +0.177 A 
ATOM      5  O   LIG A   1      -6.526  -2.707 128.240  0.00  0.00    -0.451 OA
ATOM      6  C   LIG A   1      -7.379  -3.404 129.043  0.00  0.00    +0.137 A 
ATOM      7  C   LIG A   1      -8.539  -3.680 128.349  0.00  0.00    +0.058 A 
ATOM      8  C   LIG A   1      -8.369  -3.148 127.035  0.00  0.00    +0.025 A 
ATOM      9  C   LIG A   1      -9.139  -3.114 125.856  0.00  0.00    +0.015 A 
ENDROOT
BRANCH   6  10
ATOM     10  C   LIG A   1      -6.863  -3.670 130.382  0.00  0.00    +0.021 A 
ATOM     11  C   LIG A   1      -7.360  -3.020 131.514  0.00  0.00    +0.061 A 
ATOM     12  C   LIG A   1      -6.820  -3.259 132.793  0.00  0.00    +0.162 A 
ATOM     13  C   LIG A   1      -5.755  -4.170 132.945  0.00  0.00    +0.162 A 
ATOM     14  C   LIG A   1      -5.278  -4.837 131.812  0.00  0.00    +0.050 A 
ATOM     15  C   LIG A   1      -5.820  -4.589 130.551  0.00  0.00    +0.015 A 
BRANCH  12  16
ATOM     16  O   LIG A   1      -7.444  -2.518 133.768  0.00  0.00    -0.491 OA
ATOM     17  C   LIG A   1      -8.326  -3.173 134.664  0.00  0.00    +0.277 C 
ENDBRANCH  12  16
BRANCH  13  18
ATOM     18  O   LIG A   1      -5.220  -4.356 134.191  0.00  0.00    -0.491 OA
ATOM     19  C   LIG A   1      -4.963  -5.683 134.631  0.00  0.00    +0.277 C 
ENDBRANCH  13  18
ENDBRANCH   6  10
BRANCH   3  20
ATOM     20  O   LIG A   1      -5.330  -1.273 125.810  0.00  0.00    -0.491 OA
ATOM     21  C   LIG A   1      -5.304   0.112 126.139  0.00  0.00    +0.277 C 
ENDBRANCH   3  20
BRANCH   1  22
ATOM     22  C   LIG A   1      -9.438  -2.416 123.437  0.00  0.00    +0.037 C 
BRANCH  22  23
ATOM     23  C   LIG A   1      -9.084  -1.205 122.570  0.00  0.00    +0.032 C 
BRANCH  23  24
ATOM     24  C   LIG A   1      -9.669   0.087 123.127  0.00  0.00    +0.156 C 
BRANCH  24  25
ATOM     25  O   LIG A   1     -10.934   0.344 122.536  0.00  0.00    -0.395 OA
ATOM     26  H   LIG A   1     -10.967   1.294 122.326  0.00  0.00    +0.209 HD
ENDBRANCH  24  25
ENDBRANCH  23  24
ENDBRANCH  22  23
ENDBRANCH   1  22
TORSDOF 8
ENDMDL
MODEL 5
REMARK VINA RESULT:      -6.7      5.564     10.225
REMARK  Name = NuBBE_260
REMARK  11 active torsions:
REMARK  status: ('A' for Active; 'I' for Inactive)
REMARK    1  A    between atoms: O_1  and  C_2
REMARK    2  A    between atoms: C_2  and  C_3
REMARK    3  A    between atoms: C_3  and  C_4
REMARK    4  A    between atoms: C_4  and  C_5
REMARK    5  A    between atoms: C_7  and  O_8
REMARK    6  A    between atoms: O_8  and  C_9
REMARK    7  A    between atoms: C_12  and  C_13
REMARK    8  A    between atoms: C_15  and  O_16
REMARK    9  A    between atoms: O_16  and  C_17
REMARK   10  A    between atoms: C_18  and  O_19
REMARK   11  A    between atoms: O_19  and  C_20
REMARK                            x       y       z     vdW  Elec       q    Type
REMARK                         _______ _______ _______ _____ _____    ______ ____
ROOT
ATOM      1  C   LIG A   1      -6.320  -1.856 124.111  0.00  0.00    -0.043 A 
ATOM      2  C   LIG A   1      -7.613  -1.354 123.883  0.00  0.00    +0.053 A 
ATOM      3  C   LIG A   1      -8.358  -0.736 124.897  0.00  0.00    +0.163 A 
ATOM      4  C   LIG A   1      -7.739  -0.646 126.151  0.00  0.00    +0.177 A 
ATOM      5  O   LIG A   1      -8.262  -0.079 127.270  0.00  0.00    -0.451 OA
ATOM      6  C   LIG A   1      -7.346  -0.184 128.274  0.00  0.00    +0.137 A 
ATOM      7  C   LIG A   1      -6.229  -0.845 127.807  0.00  0.00    +0.058 A 
ATOM      8  C   LIG A   1      -6.465  -1.130 126.428  0.00  0.00    +0.025 A 
ATOM      9  C   LIG A   1      -5.737  -1.740 125.388  0.00  0.00    +0.015 A 
ENDROOT
BRANCH   6  10
ATOM     10  C   LIG A   1      -7.769   0.409 129.538  0.00  0.00    +0.021 A 
ATOM     11  C   LIG A   1      -7.523  -0.206 130.768  0.00  0.00    +0.061 A 
ATOM     12  C   LIG A   1      -7.977   0.361 131.976  0.00  0.00    +0.162 A 
ATOM     13  C   LIG A   1      -8.694   1.574 131.953  0.00  0.00    +0.162 A 
ATOM     14  C   LIG A   1      -8.915   2.200 130.722  0.00  0.00    +0.050 A 
ATOM     15  C   LIG A   1      -8.463   1.625 129.533  0.00  0.00    +0.015 A 
BRANCH  12  16
ATOM     16  O   LIG A   1      -7.638  -0.401 133.068  0.00  0.00    -0.491 OA
ATOM     17  C   LIG A   1      -7.758  -1.811 132.981  0.00  0.00    +0.277 C 
ENDBRANCH  12  16
BRANCH  13  18
ATOM     18  O   LIG A   1      -9.159   2.086 133.134  0.00  0.00    -0.491 OA
ATOM     19  C   LIG A   1      -9.124   3.494 133.327  0.00  0.00    +0.277 C 
ENDBRANCH  13  18
ENDBRANCH   6  10
BRANCH   3  20
ATOM     20  O   LIG A   1      -9.616  -0.287 124.528  0.00  0.00    -0.491 OA
ATOM     21  C   LIG A   1      -9.700   1.085 124.156  0.00  0.00    +0.277 C 
ENDBRANCH   3  20
BRANCH   1  22
ATOM     22  C   LIG A   1      -5.556  -2.509 122.978  0.00  0.00    +0.037 C 
BRANCH  22  23
ATOM     23  C   LIG A   1      -4.390  -3.364 123.480  0.00  0.00    +0.032 C 
BRANCH  23  24
ATOM     24  C   LIG A   1      -4.814  -4.801 123.761  0.00  0.00    +0.156 C 
BRANCH  24  25
ATOM     25  O   LIG A   1      -4.084  -5.695 122.936  0.00  0.00    -0.395 OA
ATOM     26  H   LIG A   1      -4.671  -6.444 122.732  0.00  0.00    +0.209 HD
ENDBRANCH  24  25
ENDBRANCH  23  24
ENDBRANCH  22  23
ENDBRANCH   1  22
TORSDOF 8
ENDMDL
MODEL 6
REMARK VINA RESULT:      -6.7      1.234      2.174
REMARK  Name = NuBBE_260
REMARK  11 active torsions:
REMARK  status: ('A' for Active; 'I' for Inactive)
REMARK    1  A    between atoms: O_1  and  C_2
REMARK    2  A    between atoms: C_2  and  C_3
REMARK    3  A    between atoms: C_3  and  C_4
REMARK    4  A    between atoms: C_4  and  C_5
REMARK    5  A    between atoms: C_7  and  O_8
REMARK    6  A    between atoms: O_8  and  C_9
REMARK    7  A    between atoms: C_12  and  C_13
REMARK    8  A    between atoms: C_15  and  O_16
REMARK    9  A    between atoms: O_16  and  C_17
REMARK   10  A    between atoms: C_18  and  O_19
REMARK   11  A    between atoms: O_19  and  C_20
REMARK                            x       y       z     vdW  Elec       q    Type
REMARK                         _______ _______ _______ _____ _____    ______ ____
ROOT
ATOM      1  C   LIG A   1     -11.952   7.685 130.308  0.00  0.00    -0.043 A 
ATOM      2  C   LIG A   1     -11.355   7.733 129.037  0.00  0.00    +0.053 A 
ATOM      3  C   LIG A   1     -10.545   6.694 128.557  0.00  0.00    +0.163 A 
ATOM      4  C   LIG A   1     -10.367   5.603 129.418  0.00  0.00    +0.177 A 
ATOM      5  O   LIG A   1      -9.640   4.484 129.162  0.00  0.00    -0.451 OA
ATOM      6  C   LIG A   1      -9.724   3.658 130.243  0.00  0.00    +0.137 A 
ATOM      7  C   LIG A   1     -10.495   4.258 131.218  0.00  0.00    +0.058 A 
ATOM      8  C   LIG A   1     -10.933   5.509 130.685  0.00  0.00    +0.025 A 
ATOM      9  C   LIG A   1     -11.747   6.565 131.137  0.00  0.00    +0.015 A 
ENDROOT
BRANCH   6  10
ATOM     10  C   LIG A   1      -9.005   2.398 130.096  0.00  0.00    +0.021 A 
ATOM     11  C   LIG A   1      -8.710   1.577 131.187  0.00  0.00    +0.061 A 
ATOM     12  C   LIG A   1      -7.976   0.384 131.030  0.00  0.00    +0.162 A 
ATOM     13  C   LIG A   1      -7.526   0.002 129.751  0.00  0.00    +0.162 A 
ATOM     14  C   LIG A   1      -7.845   0.814 128.657  0.00  0.00    +0.050 A 
ATOM     15  C   LIG A   1      -8.570   1.994 128.827  0.00  0.00    +0.015 A 
BRANCH  12  16
ATOM     16  O   LIG A   1      -7.789  -0.272 132.223  0.00  0.00    -0.491 OA
ATOM     17  C   LIG A   1      -6.748   0.159 133.084  0.00  0.00    +0.277 C 
ENDBRANCH  12  16
BRANCH  13  18
ATOM     18  O   LIG A   1      -6.781  -1.140 129.628  0.00  0.00    -0.491 OA
ATOM     19  C   LIG A   1      -5.364  -1.039 129.685  0.00  0.00    +0.277 C 
ENDBRANCH  13  18
ENDBRANCH   6  10
BRANCH   3  20
ATOM     20  O   LIG A   1     -10.025   6.876 127.286  0.00  0.00    -0.491 OA
ATOM     21  C   LIG A   1     -10.848   7.600 126.376  0.00  0.00    +0.277 C 
ENDBRANCH   3  20
BRANCH   1  22
ATOM     22  C   LIG A   1     -12.824   8.832 130.773  0.00  0.00    +0.037 C 
BRANCH  22  23
ATOM     23  C   LIG A   1     -13.161   9.804 129.639  0.00  0.00    +0.032 C 
BRANCH  23  24
ATOM     24  C   LIG A   1     -13.573  11.174 130.164  0.00  0.00    +0.156 C 
BRANCH  24  25
ATOM     25  O   LIG A   1     -13.405  12.155 129.152  0.00  0.00    -0.395 OA
ATOM     26  H   LIG A   1     -14.236  12.659 129.100  0.00  0.00    +0.209 HD
ENDBRANCH  24  25
ENDBRANCH  23  24
ENDBRANCH  22  23
ENDBRANCH   1  22
TORSDOF 8
ENDMDL
MODEL 7
REMARK VINA RESULT:      -6.7      7.760      8.734
REMARK  Name = NuBBE_260
REMARK  11 active torsions:
REMARK  status: ('A' for Active; 'I' for Inactive)
REMARK    1  A    between atoms: O_1  and  C_2
REMARK    2  A    between atoms: C_2  and  C_3
REMARK    3  A    between atoms: C_3  and  C_4
REMARK    4  A    between atoms: C_4  and  C_5
REMARK    5  A    between atoms: C_7  and  O_8
REMARK    6  A    between atoms: O_8  and  C_9
REMARK    7  A    between atoms: C_12  and  C_13
REMARK    8  A    between atoms: C_15  and  O_16
REMARK    9  A    between atoms: O_16  and  C_17
REMARK   10  A    between atoms: C_18  and  O_19
REMARK   11  A    between atoms: O_19  and  C_20
REMARK                            x       y       z     vdW  Elec       q    Type
REMARK                         _______ _______ _______ _____ _____    ______ ____
ROOT
ATOM      1  C   LIG A   1      -6.537   2.856 122.893  0.00  0.00    -0.043 A 
ATOM      2  C   LIG A   1      -5.951   3.567 123.954  0.00  0.00    +0.053 A 
ATOM      3  C   LIG A   1      -5.766   2.992 125.220  0.00  0.00    +0.163 A 
ATOM      4  C   LIG A   1      -6.198   1.668 125.365  0.00  0.00    +0.177 A 
ATOM      5  O   LIG A   1      -6.108   0.908 126.488  0.00  0.00    -0.451 OA
ATOM      6  C   LIG A   1      -6.627  -0.323 126.220  0.00  0.00    +0.137 A 
ATOM      7  C   LIG A   1      -7.079  -0.354 124.916  0.00  0.00    +0.058 A 
ATOM      8  C   LIG A   1      -6.786   0.923 124.348  0.00  0.00    +0.025 A 
ATOM      9  C   LIG A   1      -6.953   1.524 123.086  0.00  0.00    +0.015 A 
ENDROOT
BRANCH   6  10
ATOM     10  C   LIG A   1      -6.573  -1.256 127.339  0.00  0.00    +0.021 A 
ATOM     11  C   LIG A   1      -5.382  -1.549 128.009  0.00  0.00    +0.061 A 
ATOM     12  C   LIG A   1      -5.343  -2.486 129.060  0.00  0.00    +0.162 A 
ATOM     13  C   LIG A   1      -6.524  -3.149 129.452  0.00  0.00    +0.162 A 
ATOM     14  C   LIG A   1      -7.718  -2.834 128.796  0.00  0.00    +0.050 A 
ATOM     15  C   LIG A   1      -7.742  -1.906 127.754  0.00  0.00    +0.015 A 
BRANCH  12  16
ATOM     16  O   LIG A   1      -4.079  -2.632 129.580  0.00  0.00    -0.491 OA
ATOM     17  C   LIG A   1      -3.252  -3.672 129.083  0.00  0.00    +0.277 C 
ENDBRANCH  12  16
BRANCH  13  18
ATOM     18  O   LIG A   1      -6.454  -4.084 130.449  0.00  0.00    -0.491 OA
ATOM     19  C   LIG A   1      -6.387  -3.639 131.798  0.00  0.00    +0.277 C 
ENDBRANCH  13  18
ENDBRANCH   6  10
BRANCH   3  20
ATOM     20  O   LIG A   1      -5.174   3.809 126.169  0.00  0.00    -0.491 OA
ATOM     21  C   LIG A   1      -3.756   3.728 126.260  0.00  0.00    +0.277 C 
ENDBRANCH   3  20
BRANCH   1  22
ATOM     22  C   LIG A   1      -6.707   3.523 121.545  0.00  0.00    +0.037 C 
BRANCH  22  23
ATOM     23  C   LIG A   1      -5.370   3.954 120.936  0.00  0.00    +0.032 C 
BRANCH  23  24
ATOM     24  C   LIG A   1      -5.541   5.068 119.911  0.00  0.00    +0.156 C 
BRANCH  24  25
ATOM     25  O   LIG A   1      -4.735   6.183 120.262  0.00  0.00    -0.395 OA
ATOM     26  H   LIG A   1      -3.867   6.054 119.842  0.00  0.00    +0.209 HD
ENDBRANCH  24  25
ENDBRANCH  23  24
ENDBRANCH  22  23
ENDBRANCH   1  22
TORSDOF 8
ENDMDL
MODEL 8
REMARK VINA RESULT:      -6.6      5.418      7.969
REMARK  Name = NuBBE_260
REMARK  11 active torsions:
REMARK  status: ('A' for Active; 'I' for Inactive)
REMARK    1  A    between atoms: O_1  and  C_2
REMARK    2  A    between atoms: C_2  and  C_3
REMARK    3  A    between atoms: C_3  and  C_4
REMARK    4  A    between atoms: C_4  and  C_5
REMARK    5  A    between atoms: C_7  and  O_8
REMARK    6  A    between atoms: O_8  and  C_9
REMARK    7  A    between atoms: C_12  and  C_13
REMARK    8  A    between atoms: C_15  and  O_16
REMARK    9  A    between atoms: O_16  and  C_17
REMARK   10  A    between atoms: C_18  and  O_19
REMARK   11  A    between atoms: O_19  and  C_20
REMARK                            x       y       z     vdW  Elec       q    Type
REMARK                         _______ _______ _______ _____ _____    ______ ____
ROOT
ATOM      1  C   LIG A   1      -7.236   3.348 122.352  0.00  0.00    -0.043 A 
ATOM      2  C   LIG A   1      -8.448   2.654 122.509  0.00  0.00    +0.053 A 
ATOM      3  C   LIG A   1      -8.951   2.317 123.774  0.00  0.00    +0.163 A 
ATOM      4  C   LIG A   1      -8.177   2.712 124.872  0.00  0.00    +0.177 A 
ATOM      5  O   LIG A   1      -8.471   2.507 126.183  0.00  0.00    -0.451 OA
ATOM      6  C   LIG A   1      -7.476   3.049 126.938  0.00  0.00    +0.137 A 
ATOM      7  C   LIG A   1      -6.515   3.591 126.109  0.00  0.00    +0.058 A 
ATOM      8  C   LIG A   1      -6.970   3.396 124.770  0.00  0.00    +0.025 A 
ATOM      9  C   LIG A   1      -6.493   3.728 123.487  0.00  0.00    +0.015 A 
ENDROOT
BRANCH   6  10
ATOM     10  C   LIG A   1      -7.675   2.923 128.378  0.00  0.00    +0.021 A 
ATOM     11  C   LIG A   1      -7.063   3.783 129.293  0.00  0.00    +0.061 A 
ATOM     12  C   LIG A   1      -7.234   3.618 130.682  0.00  0.00    +0.162 A 
ATOM     13  C   LIG A   1      -8.036   2.566 131.169  0.00  0.00    +0.162 A 
ATOM     14  C   LIG A   1      -8.666   1.722 130.248  0.00  0.00    +0.050 A 
ATOM     15  C   LIG A   1      -8.486   1.896 128.876  0.00  0.00    +0.015 A 
BRANCH  12  16
ATOM     16  O   LIG A   1      -6.546   4.562 131.406  0.00  0.00    -0.491 OA
ATOM     17  C   LIG A   1      -5.440   5.212 130.804  0.00  0.00    +0.277 C 
ENDBRANCH  12  16
BRANCH  13  18
ATOM     18  O   LIG A   1      -8.155   2.401 132.522  0.00  0.00    -0.491 OA
ATOM     19  C   LIG A   1      -9.278   2.970 133.182  0.00  0.00    +0.277 C 
ENDBRANCH  13  18
ENDBRANCH   6  10
BRANCH   3  20
ATOM     20  O   LIG A   1     -10.158   1.636 123.777  0.00  0.00    -0.491 OA
ATOM     21  C   LIG A   1     -10.334   0.680 122.737  0.00  0.00    +0.277 C 
ENDBRANCH   3  20
BRANCH   1  22
ATOM     22  C   LIG A   1      -6.742   3.693 120.963  0.00  0.00    +0.037 C 
BRANCH  22  23
ATOM     23  C   LIG A   1      -5.264   4.095 120.955  0.00  0.00    +0.032 C 
BRANCH  23  24
ATOM     24  C   LIG A   1      -5.021   5.359 120.139  0.00  0.00    +0.156 C 
BRANCH  24  25
ATOM     25  O   LIG A   1      -4.258   6.288 120.894  0.00  0.00    -0.395 OA
ATOM     26  H   LIG A   1      -4.355   7.156 120.465  0.00  0.00    +0.209 HD
ENDBRANCH  24  25
ENDBRANCH  23  24
ENDBRANCH  22  23
ENDBRANCH   1  22
TORSDOF 8
ENDMDL
MODEL 9
REMARK VINA RESULT:      -6.5      3.834      8.983
REMARK  Name = NuBBE_260
REMARK  11 active torsions:
REMARK  status: ('A' for Active; 'I' for Inactive)
REMARK    1  A    between atoms: O_1  and  C_2
REMARK    2  A    between atoms: C_2  and  C_3
REMARK    3  A    between atoms: C_3  and  C_4
REMARK    4  A    between atoms: C_4  and  C_5
REMARK    5  A    between atoms: C_7  and  O_8
REMARK    6  A    between atoms: O_8  and  C_9
REMARK    7  A    between atoms: C_12  and  C_13
REMARK    8  A    between atoms: C_15  and  O_16
REMARK    9  A    between atoms: O_16  and  C_17
REMARK   10  A    between atoms: C_18  and  O_19
REMARK   11  A    between atoms: O_19  and  C_20
REMARK                            x       y       z     vdW  Elec       q    Type
REMARK                         _______ _______ _______ _____ _____    ______ ____
ROOT
ATOM      1  C   LIG A   1      -6.506   3.583 134.611  0.00  0.00    -0.043 A 
ATOM      2  C   LIG A   1      -6.838   4.677 135.429  0.00  0.00    +0.053 A 
ATOM      3  C   LIG A   1      -7.739   5.667 135.014  0.00  0.00    +0.163 A 
ATOM      4  C   LIG A   1      -8.291   5.503 133.737  0.00  0.00    +0.177 A 
ATOM      5  O   LIG A   1      -9.191   6.324 133.135  0.00  0.00    -0.451 OA
ATOM      6  C   LIG A   1      -9.488   5.814 131.907  0.00  0.00    +0.137 A 
ATOM      7  C   LIG A   1      -8.756   4.663 131.701  0.00  0.00    +0.058 A 
ATOM      8  C   LIG A   1      -7.994   4.442 132.889  0.00  0.00    +0.025 A 
ATOM      9  C   LIG A   1      -7.090   3.458 133.335  0.00  0.00    +0.015 A 
ENDROOT
BRANCH   6  10
ATOM     10  C   LIG A   1     -10.468   6.588 131.154  0.00  0.00    +0.021 A 
ATOM     11  C   LIG A   1     -10.149   7.227 129.952  0.00  0.00    +0.061 A 
ATOM     12  C   LIG A   1     -11.098   8.005 129.261  0.00  0.00    +0.162 A 
ATOM     13  C   LIG A   1     -12.399   8.151 129.783  0.00  0.00    +0.162 A 
ATOM     14  C   LIG A   1     -12.721   7.489 130.973  0.00  0.00    +0.050 A 
ATOM     15  C   LIG A   1     -11.771   6.724 131.649  0.00  0.00    +0.015 A 
BRANCH  12  16
ATOM     16  O   LIG A   1     -10.584   8.549 128.108  0.00  0.00    -0.491 OA
ATOM     17  C   LIG A   1     -10.883   7.930 126.868  0.00  0.00    +0.277 C 
ENDBRANCH  12  16
BRANCH  13  18
ATOM     18  O   LIG A   1     -13.292   8.944 129.116  0.00  0.00    -0.491 OA
ATOM     19  C   LIG A   1     -13.333  10.332 129.422  0.00  0.00    +0.277 C 
ENDBRANCH  13  18
ENDBRANCH   6  10
BRANCH   3  20
ATOM     20  O   LIG A   1      -7.973   6.685 135.924  0.00  0.00    -0.491 OA
ATOM     21  C   LIG A   1      -7.769   6.352 137.293  0.00  0.00    +0.277 C 
ENDBRANCH   3  20
BRANCH   1  22
ATOM     22  C   LIG A   1      -5.532   2.538 135.112  0.00  0.00    +0.037 C 
BRANCH  22  23
ATOM     23  C   LIG A   1      -4.687   1.942 133.982  0.00  0.00    +0.032 C 
BRANCH  23  24
ATOM     24  C   LIG A   1      -3.857   0.755 134.456  0.00  0.00    +0.156 C 
BRANCH  24  25
ATOM     25  O   LIG A   1      -2.561   0.805 133.877  0.00  0.00    -0.395 OA
ATOM     26  H   LIG A   1      -2.159  -0.074 133.995  0.00  0.00    +0.209 HD
ENDBRANCH  24  25
ENDBRANCH  23  24
ENDBRANCH  22  23
ENDBRANCH   1  22
TORSDOF 8
ENDMDL
