MODEL 1
REMARK VINA RESULT:      -6.7      0.000      0.000
REMARK  Name = NuBBE_1504
REMARK  16 active torsions:
REMARK  status: ('A' for Active; 'I' for Inactive)
REMARK    1  A    between atoms: C_1  and  C_2
REMARK    2  A    between atoms: C_1  and  C_16
REMARK    3  A    between atoms: C_2  and  C_3
REMARK    4  A    between atoms: C_3  and  C_5
REMARK    5  A    between atoms: C_5  and  C_6
REMARK    6  A    between atoms: C_6  and  C_8
REMARK    7  A    between atoms: C_6  and  O_15
REMARK    8  A    between atoms: C_8  and  C_9
REMARK    9  A    between atoms: C_9  and  C_10
REMARK   10  A    between atoms: C_10  and  C_11
REMARK   11  A    between atoms: C_11  and  C_12
REMARK   12  A    between atoms: C_12  and  C_13
REMARK   13  A    between atoms: C_13  and  C_14
REMARK   14  A    between atoms: C_18  and  O_19
REMARK   15  A    between atoms: O_19  and  C_20
REMARK   16  A    between atoms: C_21  and  O_24
REMARK                            x       y       z     vdW  Elec       q    Type
REMARK                         _______ _______ _______ _____ _____    ______ ____
ROOT
ATOM      1  C   LIG A   1      -8.251   2.382 124.802  0.00  0.00    +0.136 C 
ATOM      2  O   LIG A   1      -9.255   2.893 125.278  0.00  0.00    -0.297 OA
ENDROOT
BRANCH   1   3
ATOM      3  C   LIG A   1      -7.186   3.234 124.101  0.00  0.00    +0.079 C 
BRANCH   3   4
ATOM      4  C   LIG A   1      -6.536   2.548 122.896  0.00  0.00    +0.042 C 
BRANCH   4   5
ATOM      5  C   LIG A   1      -6.307   3.441 121.695  0.00  0.00    -0.043 A 
ATOM      6  C   LIG A   1      -7.279   3.524 120.681  0.00  0.00    +0.053 A 
ATOM      7  C   LIG A   1      -7.118   4.367 119.583  0.00  0.00    +0.162 A 
ATOM      8  C   LIG A   1      -5.930   5.093 119.473  0.00  0.00    +0.159 A 
ATOM      9  C   LIG A   1      -4.928   4.985 120.431  0.00  0.00    +0.049 A 
ATOM     10  C   LIG A   1      -5.119   4.165 121.545  0.00  0.00    +0.007 A 
BRANCH   7  11
ATOM     11  O   LIG A   1      -8.039   4.543 118.581  0.00  0.00    -0.491 OA
ATOM     12  C   LIG A   1      -9.408   4.347 118.942  0.00  0.00    +0.277 C 
ENDBRANCH   7  11
BRANCH   8  13
ATOM     13  O   LIG A   1      -5.717   5.932 118.414  0.00  0.00    -0.503 OA
ATOM     14  H   LIG A   1      -4.780   6.199 118.481  0.00  0.00    +0.292 HD
ENDBRANCH   8  13
ENDBRANCH   4   5
ENDBRANCH   3   4
ENDBRANCH   1   3
BRANCH   1  15
ATOM     15  C   LIG A   1      -7.923   0.901 124.989  0.00  0.00    +0.105 C 
BRANCH  15  16
ATOM     16  C   LIG A   1      -9.043  -0.007 124.478  0.00  0.00    +0.122 C 
BRANCH  16  17
ATOM     17  O   LIG A   1     -10.252   0.759 124.472  0.00  0.00    -0.391 OA
ATOM     18  H   LIG A   1     -10.096   1.541 123.912  0.00  0.00    +0.210 HD
ENDBRANCH  16  17
BRANCH  16  19
ATOM     19  C   LIG A   1      -8.827  -0.493 123.031  0.00  0.00    +0.032 C 
BRANCH  19  20
ATOM     20  C   LIG A   1      -7.870  -1.680 122.873  0.00  0.00    +0.002 C 
BRANCH  20  21
ATOM     21  C   LIG A   1      -8.132  -2.763 123.933  0.00  0.00    +0.000 C 
BRANCH  21  22
ATOM     22  C   LIG A   1      -6.858  -3.542 124.288  0.00  0.00    -0.000 C 
BRANCH  22  23
ATOM     23  C   LIG A   1      -5.567  -2.716 124.196  0.00  0.00    -0.000 C 
BRANCH  23  24
ATOM     24  C   LIG A   1      -4.461  -3.368 123.364  0.00  0.00    -0.003 C 
ATOM     25  C   LIG A   1      -4.391  -4.870 123.607  0.00  0.00    +0.004 C 
ENDBRANCH  23  24
ENDBRANCH  22  23
ENDBRANCH  21  22
ENDBRANCH  20  21
ENDBRANCH  19  20
ENDBRANCH  16  19
ENDBRANCH  15  16
ENDBRANCH   1  15
TORSDOF 14
ENDMDL
MODEL 2
REMARK VINA RESULT:      -6.3      3.014      5.458
REMARK  Name = NuBBE_1504
REMARK  16 active torsions:
REMARK  status: ('A' for Active; 'I' for Inactive)
REMARK    1  A    between atoms: C_1  and  C_2
REMARK    2  A    between atoms: C_1  and  C_16
REMARK    3  A    between atoms: C_2  and  C_3
REMARK    4  A    between atoms: C_3  and  C_5
REMARK    5  A    between atoms: C_5  and  C_6
REMARK    6  A    between atoms: C_6  and  C_8
REMARK    7  A    between atoms: C_6  and  O_15
REMARK    8  A    between atoms: C_8  and  C_9
REMARK    9  A    between atoms: C_9  and  C_10
REMARK   10  A    between atoms: C_10  and  C_11
REMARK   11  A    between atoms: C_11  and  C_12
REMARK   12  A    between atoms: C_12  and  C_13
REMARK   13  A    between atoms: C_13  and  C_14
REMARK   14  A    between atoms: C_18  and  O_19
REMARK   15  A    between atoms: O_19  and  C_20
REMARK   16  A    between atoms: C_21  and  O_24
REMARK                            x       y       z     vdW  Elec       q    Type
REMARK                         _______ _______ _______ _____ _____    ______ ____
ROOT
ATOM      1  C   LIG A   1      -6.815  -2.334 123.484  0.00  0.00    +0.136 C 
ATOM      2  O   LIG A   1      -7.066  -1.925 122.359  0.00  0.00    -0.297 OA
ENDROOT
BRANCH   1   3
ATOM      3  C   LIG A   1      -5.624  -1.785 124.277  0.00  0.00    +0.079 C 
BRANCH   3   4
ATOM      4  C   LIG A   1      -6.012  -1.125 125.603  0.00  0.00    +0.042 C 
BRANCH   4   5
ATOM      5  C   LIG A   1      -6.845   0.134 125.473  0.00  0.00    -0.043 A 
ATOM      6  C   LIG A   1      -6.525   1.095 124.497  0.00  0.00    +0.053 A 
ATOM      7  C   LIG A   1      -7.295   2.244 124.324  0.00  0.00    +0.162 A 
ATOM      8  C   LIG A   1      -8.369   2.459 125.190  0.00  0.00    +0.159 A 
ATOM      9  C   LIG A   1      -8.672   1.553 126.202  0.00  0.00    +0.049 A 
ATOM     10  C   LIG A   1      -7.915   0.388 126.338  0.00  0.00    +0.007 A 
BRANCH   7  11
ATOM     11  O   LIG A   1      -7.080   3.201 123.365  0.00  0.00    -0.491 OA
ATOM     12  C   LIG A   1      -5.900   3.992 123.517  0.00  0.00    +0.277 C 
ENDBRANCH   7  11
BRANCH   8  13
ATOM     13  O   LIG A   1      -9.155   3.571 125.069  0.00  0.00    -0.503 OA
ATOM     14  H   LIG A   1      -8.606   4.311 125.392  0.00  0.00    +0.292 HD
ENDBRANCH   8  13
ENDBRANCH   4   5
ENDBRANCH   3   4
ENDBRANCH   1   3
BRANCH   1  15
ATOM     15  C   LIG A   1      -7.736  -3.305 124.223  0.00  0.00    +0.105 C 
BRANCH  15  16
ATOM     16  C   LIG A   1      -9.127  -2.714 124.460  0.00  0.00    +0.122 C 
BRANCH  16  17
ATOM     17  O   LIG A   1     -10.047  -3.427 123.627  0.00  0.00    -0.391 OA
ATOM     18  H   LIG A   1      -9.591  -3.619 122.788  0.00  0.00    +0.210 HD
ENDBRANCH  16  17
BRANCH  16  19
ATOM     19  C   LIG A   1      -9.627  -2.885 125.908  0.00  0.00    +0.032 C 
BRANCH  19  20
ATOM     20  C   LIG A   1      -8.663  -3.612 126.853  0.00  0.00    +0.002 C 
BRANCH  20  21
ATOM     21  C   LIG A   1      -8.239  -2.717 128.029  0.00  0.00    +0.000 C 
BRANCH  21  22
ATOM     22  C   LIG A   1      -7.919  -3.533 129.289  0.00  0.00    -0.000 C 
BRANCH  22  23
ATOM     23  C   LIG A   1      -6.487  -3.348 129.814  0.00  0.00    -0.000 C 
BRANCH  23  24
ATOM     24  C   LIG A   1      -5.517  -2.747 128.796  0.00  0.00    -0.003 C 
ATOM     25  C   LIG A   1      -4.988  -1.395 129.257  0.00  0.00    +0.004 C 
ENDBRANCH  23  24
ENDBRANCH  22  23
ENDBRANCH  21  22
ENDBRANCH  20  21
ENDBRANCH  19  20
ENDBRANCH  16  19
ENDBRANCH  15  16
ENDBRANCH   1  15
TORSDOF 14
ENDMDL
MODEL 3
REMARK VINA RESULT:      -6.3      3.676      5.341
REMARK  Name = NuBBE_1504
REMARK  16 active torsions:
REMARK  status: ('A' for Active; 'I' for Inactive)
REMARK    1  A    between atoms: C_1  and  C_2
REMARK    2  A    between atoms: C_1  and  C_16
REMARK    3  A    between atoms: C_2  and  C_3
REMARK    4  A    between atoms: C_3  and  C_5
REMARK    5  A    between atoms: C_5  and  C_6
REMARK    6  A    between atoms: C_6  and  C_8
REMARK    7  A    between atoms: C_6  and  O_15
REMARK    8  A    between atoms: C_8  and  C_9
REMARK    9  A    between atoms: C_9  and  C_10
REMARK   10  A    between atoms: C_10  and  C_11
REMARK   11  A    between atoms: C_11  and  C_12
REMARK   12  A    between atoms: C_12  and  C_13
REMARK   13  A    between atoms: C_13  and  C_14
REMARK   14  A    between atoms: C_18  and  O_19
REMARK   15  A    between atoms: O_19  and  C_20
REMARK   16  A    between atoms: C_21  and  O_24
REMARK                            x       y       z     vdW  Elec       q    Type
REMARK                         _______ _______ _______ _____ _____    ______ ____
ROOT
ATOM      1  C   LIG A   1      -8.908  -3.414 124.555  0.00  0.00    +0.136 C 
ATOM      2  O   LIG A   1      -8.061  -4.293 124.641  0.00  0.00    -0.297 OA
ENDROOT
BRANCH   1   3
ATOM      3  C   LIG A   1      -9.222  -2.746 123.212  0.00  0.00    +0.079 C 
BRANCH   3   4
ATOM      4  C   LIG A   1      -8.207  -1.677 122.798  0.00  0.00    +0.042 C 
BRANCH   4   5
ATOM      5  C   LIG A   1      -8.462  -0.296 123.366  0.00  0.00    -0.043 A 
ATOM      6  C   LIG A   1      -7.410   0.434 123.948  0.00  0.00    +0.053 A 
ATOM      7  C   LIG A   1      -7.601   1.723 124.442  0.00  0.00    +0.162 A 
ATOM      8  C   LIG A   1      -8.889   2.261 124.407  0.00  0.00    +0.159 A 
ATOM      9  C   LIG A   1      -9.959   1.539 123.890  0.00  0.00    +0.049 A 
ATOM     10  C   LIG A   1      -9.745   0.263 123.363  0.00  0.00    +0.007 A 
BRANCH   7  11
ATOM     11  O   LIG A   1      -6.618   2.517 124.977  0.00  0.00    -0.491 OA
ATOM     12  C   LIG A   1      -5.626   1.852 125.761  0.00  0.00    +0.277 C 
ENDBRANCH   7  11
BRANCH   8  13
ATOM     13  O   LIG A   1      -9.136   3.520 124.883  0.00  0.00    -0.503 OA
ATOM     14  H   LIG A   1      -9.623   3.388 125.719  0.00  0.00    +0.292 HD
ENDBRANCH   8  13
ENDBRANCH   4   5
ENDBRANCH   3   4
ENDBRANCH   1   3
BRANCH   1  15
ATOM     15  C   LIG A   1      -9.797  -3.022 125.736  0.00  0.00    +0.105 C 
BRANCH  15  16
ATOM     16  C   LIG A   1      -8.983  -2.708 126.992  0.00  0.00    +0.122 C 
BRANCH  16  17
ATOM     17  O   LIG A   1      -8.271  -3.896 127.354  0.00  0.00    -0.391 OA
ATOM     18  H   LIG A   1      -8.531  -4.125 128.264  0.00  0.00    +0.210 HD
ENDBRANCH  16  17
BRANCH  16  19
ATOM     19  C   LIG A   1      -7.920  -1.612 126.776  0.00  0.00    +0.032 C 
BRANCH  19  20
ATOM     20  C   LIG A   1      -6.697  -1.695 127.696  0.00  0.00    +0.002 C 
BRANCH  20  21
ATOM     21  C   LIG A   1      -5.385  -1.711 126.895  0.00  0.00    +0.000 C 
BRANCH  21  22
ATOM     22  C   LIG A   1      -5.428  -2.720 125.739  0.00  0.00    -0.000 C 
BRANCH  22  23
ATOM     23  C   LIG A   1      -5.033  -2.134 124.375  0.00  0.00    -0.000 C 
BRANCH  23  24
ATOM     24  C   LIG A   1      -4.883  -3.173 123.263  0.00  0.00    -0.003 C 
ATOM     25  C   LIG A   1      -4.432  -4.520 123.815  0.00  0.00    +0.004 C 
ENDBRANCH  23  24
ENDBRANCH  22  23
ENDBRANCH  21  22
ENDBRANCH  20  21
ENDBRANCH  19  20
ENDBRANCH  16  19
ENDBRANCH  15  16
ENDBRANCH   1  15
TORSDOF 14
ENDMDL
MODEL 4
REMARK VINA RESULT:      -6.2      8.050     10.399
REMARK  Name = NuBBE_1504
REMARK  16 active torsions:
REMARK  status: ('A' for Active; 'I' for Inactive)
REMARK    1  A    between atoms: C_1  and  C_2
REMARK    2  A    between atoms: C_1  and  C_16
REMARK    3  A    between atoms: C_2  and  C_3
REMARK    4  A    between atoms: C_3  and  C_5
REMARK    5  A    between atoms: C_5  and  C_6
REMARK    6  A    between atoms: C_6  and  C_8
REMARK    7  A    between atoms: C_6  and  O_15
REMARK    8  A    between atoms: C_8  and  C_9
REMARK    9  A    between atoms: C_9  and  C_10
REMARK   10  A    between atoms: C_10  and  C_11
REMARK   11  A    between atoms: C_11  and  C_12
REMARK   12  A    between atoms: C_12  and  C_13
REMARK   13  A    between atoms: C_13  and  C_14
REMARK   14  A    between atoms: C_18  and  O_19
REMARK   15  A    between atoms: O_19  and  C_20
REMARK   16  A    between atoms: C_21  and  O_24
REMARK                            x       y       z     vdW  Elec       q    Type
REMARK                         _______ _______ _______ _____ _____    ______ ____
ROOT
ATOM      1  C   LIG A   1      -5.994   4.917 129.719  0.00  0.00    +0.136 C 
ATOM      2  O   LIG A   1      -5.522   5.428 128.712  0.00  0.00    -0.297 OA
ENDROOT
BRANCH   1   3
ATOM      3  C   LIG A   1      -5.961   5.646 131.066  0.00  0.00    +0.079 C 
BRANCH   3   4
ATOM      4  C   LIG A   1      -6.791   6.933 131.097  0.00  0.00    +0.042 C 
BRANCH   4   5
ATOM      5  C   LIG A   1      -8.278   6.732 131.298  0.00  0.00    -0.043 A 
ATOM      6  C   LIG A   1      -9.185   7.114 130.293  0.00  0.00    +0.053 A 
ATOM      7  C   LIG A   1     -10.556   6.905 130.429  0.00  0.00    +0.162 A 
ATOM      8  C   LIG A   1     -11.028   6.360 131.625  0.00  0.00    +0.159 A 
ATOM      9  C   LIG A   1     -10.159   6.028 132.659  0.00  0.00    +0.049 A 
ATOM     10  C   LIG A   1      -8.784   6.207 132.493  0.00  0.00    +0.007 A 
BRANCH   7  11
ATOM     11  O   LIG A   1     -11.499   7.201 129.476  0.00  0.00    -0.491 OA
ATOM     12  C   LIG A   1     -12.012   8.535 129.492  0.00  0.00    +0.277 C 
ENDBRANCH   7  11
BRANCH   8  13
ATOM     13  O   LIG A   1     -12.364   6.138 131.816  0.00  0.00    -0.503 OA
ATOM     14  H   LIG A   1     -12.635   6.772 132.508  0.00  0.00    +0.292 HD
ENDBRANCH   8  13
ENDBRANCH   4   5
ENDBRANCH   3   4
ENDBRANCH   1   3
BRANCH   1  15
ATOM     15  C   LIG A   1      -6.763   3.596 129.678  0.00  0.00    +0.105 C 
BRANCH  15  16
ATOM     16  C   LIG A   1      -8.207   3.782 129.212  0.00  0.00    +0.122 C 
BRANCH  16  17
ATOM     17  O   LIG A   1      -8.197   3.832 127.781  0.00  0.00    -0.391 OA
ATOM     18  H   LIG A   1      -8.022   4.755 127.524  0.00  0.00    +0.210 HD
ENDBRANCH  16  17
BRANCH  16  19
ATOM     19  C   LIG A   1      -9.133   2.612 129.600  0.00  0.00    +0.032 C 
BRANCH  19  20
ATOM     20  C   LIG A   1     -10.155   2.923 130.700  0.00  0.00    +0.002 C 
BRANCH  20  21
ATOM     21  C   LIG A   1      -9.970   2.007 131.921  0.00  0.00    +0.000 C 
BRANCH  21  22
ATOM     22  C   LIG A   1      -8.533   2.047 132.459  0.00  0.00    -0.000 C 
BRANCH  22  23
ATOM     23  C   LIG A   1      -8.348   2.935 133.698  0.00  0.00    -0.000 C 
BRANCH  23  24
ATOM     24  C   LIG A   1      -6.893   3.111 134.134  0.00  0.00    -0.003 C 
ATOM     25  C   LIG A   1      -6.703   4.384 134.949  0.00  0.00    +0.004 C 
ENDBRANCH  23  24
ENDBRANCH  22  23
ENDBRANCH  21  22
ENDBRANCH  20  21
ENDBRANCH  19  20
ENDBRANCH  16  19
ENDBRANCH  15  16
ENDBRANCH   1  15
TORSDOF 14
ENDMDL
MODEL 5
REMARK VINA RESULT:      -6.2      3.576      5.805
REMARK  Name = NuBBE_1504
REMARK  16 active torsions:
REMARK  status: ('A' for Active; 'I' for Inactive)
REMARK    1  A    between atoms: C_1  and  C_2
REMARK    2  A    between atoms: C_1  and  C_16
REMARK    3  A    between atoms: C_2  and  C_3
REMARK    4  A    between atoms: C_3  and  C_5
REMARK    5  A    between atoms: C_5  and  C_6
REMARK    6  A    between atoms: C_6  and  C_8
REMARK    7  A    between atoms: C_6  and  O_15
REMARK    8  A    between atoms: C_8  and  C_9
REMARK    9  A    between atoms: C_9  and  C_10
REMARK   10  A    between atoms: C_10  and  C_11
REMARK   11  A    between atoms: C_11  and  C_12
REMARK   12  A    between atoms: C_12  and  C_13
REMARK   13  A    between atoms: C_13  and  C_14
REMARK   14  A    between atoms: C_18  and  O_19
REMARK   15  A    between atoms: O_19  and  C_20
REMARK   16  A    between atoms: C_21  and  O_24
REMARK                            x       y       z     vdW  Elec       q    Type
REMARK                         _______ _______ _______ _____ _____    ______ ____
ROOT
ATOM      1  C   LIG A   1      -8.922  -3.020 123.366  0.00  0.00    +0.136 C 
ATOM      2  O   LIG A   1     -10.043  -3.469 123.174  0.00  0.00    -0.297 OA
ENDROOT
BRANCH   1   3
ATOM      3  C   LIG A   1      -8.294  -2.018 122.391  0.00  0.00    +0.079 C 
BRANCH   3   4
ATOM      4  C   LIG A   1      -7.207  -1.139 123.017  0.00  0.00    +0.042 C 
BRANCH   4   5
ATOM      5  C   LIG A   1      -7.690   0.192 123.554  0.00  0.00    -0.043 A 
ATOM      6  C   LIG A   1      -6.789   1.066 124.189  0.00  0.00    +0.053 A 
ATOM      7  C   LIG A   1      -7.191   2.316 124.658  0.00  0.00    +0.162 A 
ATOM      8  C   LIG A   1      -8.538   2.665 124.540  0.00  0.00    +0.159 A 
ATOM      9  C   LIG A   1      -9.462   1.796 123.969  0.00  0.00    +0.049 A 
ATOM     10  C   LIG A   1      -9.037   0.563 123.470  0.00  0.00    +0.007 A 
BRANCH   7  11
ATOM     11  O   LIG A   1      -6.365   3.244 125.241  0.00  0.00    -0.491 OA
ATOM     12  C   LIG A   1      -5.557   4.016 124.350  0.00  0.00    +0.277 C 
ENDBRANCH   7  11
BRANCH   8  13
ATOM     13  O   LIG A   1      -8.990   3.876 124.987  0.00  0.00    -0.503 OA
ATOM     14  H   LIG A   1      -8.485   4.054 125.804  0.00  0.00    +0.292 HD
ENDBRANCH   8  13
ENDBRANCH   4   5
ENDBRANCH   3   4
ENDBRANCH   1   3
BRANCH   1  15
ATOM     15  C   LIG A   1      -8.133  -3.314 124.642  0.00  0.00    +0.105 C 
BRANCH  15  16
ATOM     16  C   LIG A   1      -8.679  -2.547 125.848  0.00  0.00    +0.122 C 
BRANCH  16  17
ATOM     17  O   LIG A   1      -9.997  -3.040 126.113  0.00  0.00    -0.391 OA
ATOM     18  H   LIG A   1      -9.927  -3.671 126.853  0.00  0.00    +0.210 HD
ENDBRANCH  16  17
BRANCH  16  19
ATOM     19  C   LIG A   1      -7.863  -2.769 127.137  0.00  0.00    +0.032 C 
BRANCH  19  20
ATOM     20  C   LIG A   1      -8.550  -3.623 128.209  0.00  0.00    +0.002 C 
BRANCH  20  21
ATOM     21  C   LIG A   1      -8.097  -3.229 129.624  0.00  0.00    +0.000 C 
BRANCH  21  22
ATOM     22  C   LIG A   1      -6.723  -2.544 129.619  0.00  0.00    -0.000 C 
BRANCH  22  23
ATOM     23  C   LIG A   1      -5.545  -3.492 129.891  0.00  0.00    -0.000 C 
BRANCH  23  24
ATOM     24  C   LIG A   1      -5.909  -4.726 130.717  0.00  0.00    -0.003 C 
ATOM     25  C   LIG A   1      -5.045  -4.837 131.968  0.00  0.00    +0.004 C 
ENDBRANCH  23  24
ENDBRANCH  22  23
ENDBRANCH  21  22
ENDBRANCH  20  21
ENDBRANCH  19  20
ENDBRANCH  16  19
ENDBRANCH  15  16
ENDBRANCH   1  15
TORSDOF 14
ENDMDL
MODEL 6
REMARK VINA RESULT:      -6.1      2.538      3.890
REMARK  Name = NuBBE_1504
REMARK  16 active torsions:
REMARK  status: ('A' for Active; 'I' for Inactive)
REMARK    1  A    between atoms: C_1  and  C_2
REMARK    2  A    between atoms: C_1  and  C_16
REMARK    3  A    between atoms: C_2  and  C_3
REMARK    4  A    between atoms: C_3  and  C_5
REMARK    5  A    between atoms: C_5  and  C_6
REMARK    6  A    between atoms: C_6  and  C_8
REMARK    7  A    between atoms: C_6  and  O_15
REMARK    8  A    between atoms: C_8  and  C_9
REMARK    9  A    between atoms: C_9  and  C_10
REMARK   10  A    between atoms: C_10  and  C_11
REMARK   11  A    between atoms: C_11  and  C_12
REMARK   12  A    between atoms: C_12  and  C_13
REMARK   13  A    between atoms: C_13  and  C_14
REMARK   14  A    between atoms: C_18  and  O_19
REMARK   15  A    between atoms: O_19  and  C_20
REMARK   16  A    between atoms: C_21  and  O_24
REMARK                            x       y       z     vdW  Elec       q    Type
REMARK                         _______ _______ _______ _____ _____    ______ ____
ROOT
ATOM      1  C   LIG A   1      -9.470   1.299 123.990  0.00  0.00    +0.136 C 
ATOM      2  O   LIG A   1     -10.237   0.561 123.389  0.00  0.00    -0.297 OA
ENDROOT
BRANCH   1   3
ATOM      3  C   LIG A   1      -8.887   2.549 123.322  0.00  0.00    +0.079 C 
BRANCH   3   4
ATOM      4  C   LIG A   1      -7.356   2.565 123.265  0.00  0.00    +0.042 C 
BRANCH   4   5
ATOM      5  C   LIG A   1      -6.765   3.374 122.129  0.00  0.00    -0.043 A 
ATOM      6  C   LIG A   1      -7.479   3.531 120.928  0.00  0.00    +0.053 A 
ATOM      7  C   LIG A   1      -6.982   4.303 119.878  0.00  0.00    +0.162 A 
ATOM      8  C   LIG A   1      -5.716   4.875 120.018  0.00  0.00    +0.159 A 
ATOM      9  C   LIG A   1      -4.964   4.688 121.173  0.00  0.00    +0.049 A 
ATOM     10  C   LIG A   1      -5.491   3.944 122.231  0.00  0.00    +0.007 A 
BRANCH   7  11
ATOM     11  O   LIG A   1      -7.638   4.546 118.698  0.00  0.00    -0.491 OA
ATOM     12  C   LIG A   1      -9.043   4.288 118.693  0.00  0.00    +0.277 C 
ENDBRANCH   7  11
BRANCH   8  13
ATOM     13  O   LIG A   1      -5.177   5.638 119.019  0.00  0.00    -0.503 OA
ATOM     14  H   LIG A   1      -5.689   5.413 118.219  0.00  0.00    +0.292 HD
ENDBRANCH   8  13
ENDBRANCH   4   5
ENDBRANCH   3   4
ENDBRANCH   1   3
BRANCH   1  15
ATOM     15  C   LIG A   1      -9.151   1.108 125.474  0.00  0.00    +0.105 C 
BRANCH  15  16
ATOM     16  C   LIG A   1      -8.387  -0.191 125.737  0.00  0.00    +0.122 C 
BRANCH  16  17
ATOM     17  O   LIG A   1      -7.950  -0.699 124.472  0.00  0.00    -0.391 OA
ATOM     18  H   LIG A   1      -7.429   0.002 124.042  0.00  0.00    +0.210 HD
ENDBRANCH  16  17
BRANCH  16  19
ATOM     19  C   LIG A   1      -7.117   0.006 126.589  0.00  0.00    +0.032 C 
BRANCH  19  20
ATOM     20  C   LIG A   1      -6.640   1.457 126.728  0.00  0.00    +0.002 C 
BRANCH  20  21
ATOM     21  C   LIG A   1      -5.156   1.603 126.353  0.00  0.00    +0.000 C 
BRANCH  21  22
ATOM     22  C   LIG A   1      -4.842   2.992 125.779  0.00  0.00    -0.000 C 
BRANCH  22  23
ATOM     23  C   LIG A   1      -3.923   3.847 126.665  0.00  0.00    -0.000 C 
BRANCH  23  24
ATOM     24  C   LIG A   1      -2.806   3.063 127.354  0.00  0.00    -0.003 C 
ATOM     25  C   LIG A   1      -1.546   3.015 126.499  0.00  0.00    +0.004 C 
ENDBRANCH  23  24
ENDBRANCH  22  23
ENDBRANCH  21  22
ENDBRANCH  20  21
ENDBRANCH  19  20
ENDBRANCH  16  19
ENDBRANCH  15  16
ENDBRANCH   1  15
TORSDOF 14
ENDMDL
MODEL 7
REMARK VINA RESULT:      -6.1      3.899      6.031
REMARK  Name = NuBBE_1504
REMARK  16 active torsions:
REMARK  status: ('A' for Active; 'I' for Inactive)
REMARK    1  A    between atoms: C_1  and  C_2
REMARK    2  A    between atoms: C_1  and  C_16
REMARK    3  A    between atoms: C_2  and  C_3
REMARK    4  A    between atoms: C_3  and  C_5
REMARK    5  A    between atoms: C_5  and  C_6
REMARK    6  A    between atoms: C_6  and  C_8
REMARK    7  A    between atoms: C_6  and  O_15
REMARK    8  A    between atoms: C_8  and  C_9
REMARK    9  A    between atoms: C_9  and  C_10
REMARK   10  A    between atoms: C_10  and  C_11
REMARK   11  A    between atoms: C_11  and  C_12
REMARK   12  A    between atoms: C_12  and  C_13
REMARK   13  A    between atoms: C_13  and  C_14
REMARK   14  A    between atoms: C_18  and  O_19
REMARK   15  A    between atoms: O_19  and  C_20
REMARK   16  A    between atoms: C_21  and  O_24
REMARK                            x       y       z     vdW  Elec       q    Type
REMARK                         _______ _______ _______ _____ _____    ______ ____
ROOT
ATOM      1  C   LIG A   1      -8.944  -3.178 123.549  0.00  0.00    +0.136 C 
ATOM      2  O   LIG A   1     -10.076  -3.438 123.167  0.00  0.00    -0.297 OA
ENDROOT
BRANCH   1   3
ATOM      3  C   LIG A   1      -8.049  -2.208 122.770  0.00  0.00    +0.079 C 
BRANCH   3   4
ATOM      4  C   LIG A   1      -6.620  -2.110 123.311  0.00  0.00    +0.042 C 
BRANCH   4   5
ATOM      5  C   LIG A   1      -6.366  -0.947 124.247  0.00  0.00    -0.043 A 
ATOM      6  C   LIG A   1      -6.854   0.334 123.931  0.00  0.00    +0.053 A 
ATOM      7  C   LIG A   1      -6.674   1.417 124.789  0.00  0.00    +0.162 A 
ATOM      8  C   LIG A   1      -5.935   1.220 125.958  0.00  0.00    +0.159 A 
ATOM      9  C   LIG A   1      -5.392  -0.023 126.267  0.00  0.00    +0.049 A 
ATOM     10  C   LIG A   1      -5.613  -1.107 125.416  0.00  0.00    +0.007 A 
BRANCH   7  11
ATOM     11  O   LIG A   1      -7.161   2.682 124.578  0.00  0.00    -0.491 OA
ATOM     12  C   LIG A   1      -8.562   2.862 124.794  0.00  0.00    +0.277 C 
ENDBRANCH   7  11
BRANCH   8  13
ATOM     13  O   LIG A   1      -5.723   2.248 126.835  0.00  0.00    -0.503 OA
ATOM     14  H   LIG A   1      -5.497   3.018 126.279  0.00  0.00    +0.292 HD
ENDBRANCH   8  13
ENDBRANCH   4   5
ENDBRANCH   3   4
ENDBRANCH   1   3
BRANCH   1  15
ATOM     15  C   LIG A   1      -8.398  -3.684 124.885  0.00  0.00    +0.105 C 
BRANCH  15  16
ATOM     16  C   LIG A   1      -9.002  -2.937 126.076  0.00  0.00    +0.122 C 
BRANCH  16  17
ATOM     17  O   LIG A   1     -10.426  -3.038 125.972  0.00  0.00    -0.391 OA
ATOM     18  H   LIG A   1     -10.790  -2.142 126.090  0.00  0.00    +0.210 HD
ENDBRANCH  16  17
BRANCH  16  19
ATOM     19  C   LIG A   1      -8.620  -3.547 127.440  0.00  0.00    +0.032 C 
BRANCH  19  20
ATOM     20  C   LIG A   1      -7.713  -2.676 128.316  0.00  0.00    +0.002 C 
BRANCH  20  21
ATOM     21  C   LIG A   1      -7.493  -3.303 129.702  0.00  0.00    +0.000 C 
BRANCH  21  22
ATOM     22  C   LIG A   1      -6.021  -3.669 129.943  0.00  0.00    -0.000 C 
BRANCH  22  23
ATOM     23  C   LIG A   1      -5.030  -2.918 129.041  0.00  0.00    -0.000 C 
BRANCH  23  24
ATOM     24  C   LIG A   1      -4.071  -1.994 129.794  0.00  0.00    -0.003 C 
ATOM     25  C   LIG A   1      -4.617  -0.574 129.881  0.00  0.00    +0.004 C 
ENDBRANCH  23  24
ENDBRANCH  22  23
ENDBRANCH  21  22
ENDBRANCH  20  21
ENDBRANCH  19  20
ENDBRANCH  16  19
ENDBRANCH  15  16
ENDBRANCH   1  15
TORSDOF 14
ENDMDL
MODEL 8
REMARK VINA RESULT:      -6.0      2.763      4.101
REMARK  Name = NuBBE_1504
REMARK  16 active torsions:
REMARK  status: ('A' for Active; 'I' for Inactive)
REMARK    1  A    between atoms: C_1  and  C_2
REMARK    2  A    between atoms: C_1  and  C_16
REMARK    3  A    between atoms: C_2  and  C_3
REMARK    4  A    between atoms: C_3  and  C_5
REMARK    5  A    between atoms: C_5  and  C_6
REMARK    6  A    between atoms: C_6  and  C_8
REMARK    7  A    between atoms: C_6  and  O_15
REMARK    8  A    between atoms: C_8  and  C_9
REMARK    9  A    between atoms: C_9  and  C_10
REMARK   10  A    between atoms: C_10  and  C_11
REMARK   11  A    between atoms: C_11  and  C_12
REMARK   12  A    between atoms: C_12  and  C_13
REMARK   13  A    between atoms: C_13  and  C_14
REMARK   14  A    between atoms: C_18  and  O_19
REMARK   15  A    between atoms: O_19  and  C_20
REMARK   16  A    between atoms: C_21  and  O_24
REMARK                            x       y       z     vdW  Elec       q    Type
REMARK                         _______ _______ _______ _____ _____    ______ ____
ROOT
ATOM      1  C   LIG A   1      -7.808   0.505 127.590  0.00  0.00    +0.136 C 
ATOM      2  O   LIG A   1      -8.033   1.669 127.892  0.00  0.00    -0.297 OA
ENDROOT
BRANCH   1   3
ATOM      3  C   LIG A   1      -7.592   0.094 126.130  0.00  0.00    +0.079 C 
BRANCH   3   4
ATOM      4  C   LIG A   1      -6.612   0.994 125.370  0.00  0.00    +0.042 C 
BRANCH   4   5
ATOM      5  C   LIG A   1      -7.212   1.757 124.207  0.00  0.00    -0.043 A 
ATOM      6  C   LIG A   1      -6.413   2.632 123.449  0.00  0.00    +0.053 A 
ATOM      7  C   LIG A   1      -6.923   3.317 122.348  0.00  0.00    +0.162 A 
ATOM      8  C   LIG A   1      -8.277   3.167 122.043  0.00  0.00    +0.159 A 
ATOM      9  C   LIG A   1      -9.104   2.354 122.811  0.00  0.00    +0.049 A 
ATOM     10  C   LIG A   1      -8.570   1.644 123.888  0.00  0.00    +0.007 A 
BRANCH   7  11
ATOM     11  O   LIG A   1      -6.198   4.147 121.529  0.00  0.00    -0.491 OA
ATOM     12  C   LIG A   1      -4.895   4.507 121.992  0.00  0.00    +0.277 C 
ENDBRANCH   7  11
BRANCH   8  13
ATOM     13  O   LIG A   1      -8.832   3.821 120.977  0.00  0.00    -0.503 OA
ATOM     14  H   LIG A   1      -8.510   3.345 120.187  0.00  0.00    +0.292 HD
ENDBRANCH   8  13
ENDBRANCH   4   5
ENDBRANCH   3   4
ENDBRANCH   1   3
BRANCH   1  15
ATOM     15  C   LIG A   1      -7.593  -0.583 128.643  0.00  0.00    +0.105 C 
BRANCH  15  16
ATOM     16  C   LIG A   1      -7.258  -1.936 128.014  0.00  0.00    +0.122 C 
BRANCH  16  17
ATOM     17  O   LIG A   1      -5.880  -2.211 128.288  0.00  0.00    -0.391 OA
ATOM     18  H   LIG A   1      -5.579  -1.558 128.946  0.00  0.00    +0.210 HD
ENDBRANCH  16  17
BRANCH  16  19
ATOM     19  C   LIG A   1      -8.063  -3.107 128.612  0.00  0.00    +0.032 C 
BRANCH  19  20
ATOM     20  C   LIG A   1      -8.927  -3.886 127.614  0.00  0.00    +0.002 C 
BRANCH  20  21
ATOM     21  C   LIG A   1      -9.075  -3.131 126.282  0.00  0.00    +0.000 C 
BRANCH  21  22
ATOM     22  C   LIG A   1      -8.445  -3.898 125.112  0.00  0.00    -0.000 C 
BRANCH  22  23
ATOM     23  C   LIG A   1      -8.122  -3.027 123.888  0.00  0.00    -0.000 C 
BRANCH  23  24
ATOM     24  C   LIG A   1      -6.655  -2.608 123.785  0.00  0.00    -0.003 C 
ATOM     25  C   LIG A   1      -6.440  -1.593 122.670  0.00  0.00    +0.004 C 
ENDBRANCH  23  24
ENDBRANCH  22  23
ENDBRANCH  21  22
ENDBRANCH  20  21
ENDBRANCH  19  20
ENDBRANCH  16  19
ENDBRANCH  15  16
ENDBRANCH   1  15
TORSDOF 14
ENDMDL
MODEL 9
REMARK VINA RESULT:      -6.0      3.556      6.007
REMARK  Name = NuBBE_1504
REMARK  16 active torsions:
REMARK  status: ('A' for Active; 'I' for Inactive)
REMARK    1  A    between atoms: C_1  and  C_2
REMARK    2  A    between atoms: C_1  and  C_16
REMARK    3  A    between atoms: C_2  and  C_3
REMARK    4  A    between atoms: C_3  and  C_5
REMARK    5  A    between atoms: C_5  and  C_6
REMARK    6  A    between atoms: C_6  and  C_8
REMARK    7  A    between atoms: C_6  and  O_15
REMARK    8  A    between atoms: C_8  and  C_9
REMARK    9  A    between atoms: C_9  and  C_10
REMARK   10  A    between atoms: C_10  and  C_11
REMARK   11  A    between atoms: C_11  and  C_12
REMARK   12  A    between atoms: C_12  and  C_13
REMARK   13  A    between atoms: C_13  and  C_14
REMARK   14  A    between atoms: C_18  and  O_19
REMARK   15  A    between atoms: O_19  and  C_20
REMARK   16  A    between atoms: C_21  and  O_24
REMARK                            x       y       z     vdW  Elec       q    Type
REMARK                         _______ _______ _______ _____ _____    ______ ____
ROOT
ATOM      1  C   LIG A   1      -7.167  -2.945 124.650  0.00  0.00    +0.136 C 
ATOM      2  O   LIG A   1      -7.471  -4.103 124.401  0.00  0.00    -0.297 OA
ENDROOT
BRANCH   1   3
ATOM      3  C   LIG A   1      -6.711  -1.990 123.541  0.00  0.00    +0.079 C 
BRANCH   3   4
ATOM      4  C   LIG A   1      -7.856  -1.229 122.867  0.00  0.00    +0.042 C 
BRANCH   4   5
ATOM      5  C   LIG A   1      -8.161   0.130 123.462  0.00  0.00    -0.043 A 
ATOM      6  C   LIG A   1      -7.172   1.129 123.485  0.00  0.00    +0.053 A 
ATOM      7  C   LIG A   1      -7.431   2.403 123.987  0.00  0.00    +0.162 A 
ATOM      8  C   LIG A   1      -8.691   2.656 124.533  0.00  0.00    +0.159 A 
ATOM      9  C   LIG A   1      -9.670   1.668 124.576  0.00  0.00    +0.049 A 
ATOM     10  C   LIG A   1      -9.408   0.408 124.034  0.00  0.00    +0.007 A 
BRANCH   7  11
ATOM     11  O   LIG A   1      -6.538   3.445 123.999  0.00  0.00    -0.491 OA
ATOM     12  C   LIG A   1      -5.960   3.793 122.739  0.00  0.00    +0.277 C 
ENDBRANCH   7  11
BRANCH   8  13
ATOM     13  O   LIG A   1      -9.000   3.886 125.045  0.00  0.00    -0.503 OA
ATOM     14  H   LIG A   1      -8.264   4.106 125.649  0.00  0.00    +0.292 HD
ENDBRANCH   8  13
ENDBRANCH   4   5
ENDBRANCH   3   4
ENDBRANCH   1   3
BRANCH   1  15
ATOM     15  C   LIG A   1      -7.348  -2.336 126.041  0.00  0.00    +0.105 C 
BRANCH  15  16
ATOM     16  C   LIG A   1      -8.760  -2.555 126.587  0.00  0.00    +0.122 C 
BRANCH  16  17
ATOM     17  O   LIG A   1      -9.614  -2.843 125.474  0.00  0.00    -0.391 OA
ATOM     18  H   LIG A   1      -9.051  -2.888 124.680  0.00  0.00    +0.210 HD
ENDBRANCH  16  17
BRANCH  16  19
ATOM     19  C   LIG A   1      -8.868  -3.760 127.543  0.00  0.00    +0.032 C 
BRANCH  19  20
ATOM     20  C   LIG A   1      -8.713  -3.431 129.032  0.00  0.00    +0.002 C 
BRANCH  20  21
ATOM     21  C   LIG A   1      -7.245  -3.517 129.482  0.00  0.00    +0.000 C 
BRANCH  21  22
ATOM     22  C   LIG A   1      -6.652  -2.133 129.782  0.00  0.00    -0.000 C 
BRANCH  22  23
ATOM     23  C   LIG A   1      -7.679  -0.991 129.769  0.00  0.00    -0.000 C 
BRANCH  23  24
ATOM     24  C   LIG A   1      -7.637  -0.094 131.007  0.00  0.00    -0.003 C 
ATOM     25  C   LIG A   1      -8.999  -0.011 131.685  0.00  0.00    +0.004 C 
ENDBRANCH  23  24
ENDBRANCH  22  23
ENDBRANCH  21  22
ENDBRANCH  20  21
ENDBRANCH  19  20
ENDBRANCH  16  19
ENDBRANCH  15  16
ENDBRANCH   1  15
TORSDOF 14
ENDMDL
