MODEL 1
REMARK VINA RESULT:      -5.7      0.000      0.000
REMARK  Name = NuBBE_1803
REMARK  15 active torsions:
REMARK  status: ('A' for Active; 'I' for Inactive)
REMARK    1  A    between atoms: C_4  and  C_5
REMARK    2  A    between atoms: C_5  and  C_6
REMARK    3  A    between atoms: C_6  and  O_7
REMARK    4  A    between atoms: C_6  and  C_8
REMARK    5  A    between atoms: C_8  and  O_9
REMARK    6  A    between atoms: O_9  and  C_10
REMARK    7  A    between atoms: C_12  and  C_13
REMARK    8  A    between atoms: C_13  and  C_14
REMARK    9  A    between atoms: C_14  and  C_15
REMARK   10  A    between atoms: C_15  and  C_16
REMARK   11  A    between atoms: C_16  and  C_17
REMARK   12  A    between atoms: C_17  and  C_18
REMARK   13  A    between atoms: C_18  and  C_19
REMARK   14  A    between atoms: C_19  and  C_20
REMARK   15  A    between atoms: C_20  and  C_21
REMARK                            x       y       z     vdW  Elec       q    Type
REMARK                         _______ _______ _______ _____ _____    ______ ____
ROOT
ATOM      1  O   LIG A   1      -7.658  -1.925 131.071  0.00  0.00    -0.251 OA
ATOM      2  C   LIG A   1      -7.598  -2.368 129.943  0.00  0.00    +0.311 C 
ATOM      3  O   LIG A   1      -8.600  -3.096 129.351  0.00  0.00    -0.461 OA
ATOM      4  C   LIG A   1      -6.414  -2.250 129.010  0.00  0.00    +0.104 C 
ATOM      5  C   LIG A   1      -7.081  -2.558 127.686  0.00  0.00    +0.059 C 
ATOM      6  C   LIG A   1      -8.144  -3.561 128.081  0.00  0.00    +0.177 C 
ENDROOT
BRANCH   4   7
ATOM      7  C   LIG A   1      -5.328  -3.250 129.434  0.00  0.00    +0.048 C 
BRANCH   7   8
ATOM      8  C   LIG A   1      -4.036  -2.598 129.935  0.00  0.00    +0.141 C 
BRANCH   8   9
ATOM      9  O   LIG A   1      -3.859  -1.337 129.289  0.00  0.00    -0.390 OA
ATOM     10  H   LIG A   1      -4.628  -0.798 129.566  0.00  0.00    +0.210 HD
ENDBRANCH   8   9
BRANCH   8  11
ATOM     11  C   LIG A   1      -4.066  -2.384 131.456  0.00  0.00    +0.190 C 
BRANCH  11  12
ATOM     12  O   LIG A   1      -2.745  -2.014 131.875  0.00  0.00    -0.380 OA
ATOM     13  C   LIG A   1      -2.728  -1.609 133.240  0.00  0.00    +0.194 C 
ENDBRANCH  11  12
ENDBRANCH   8  11
ENDBRANCH   7   8
ENDBRANCH   4   7
BRANCH   6  14
ATOM     14  C   LIG A   1      -9.295  -3.638 127.087  0.00  0.00    +0.045 C 
BRANCH  14  15
ATOM     15  C   LIG A   1      -9.010  -2.794 125.844  0.00  0.00    +0.003 C 
BRANCH  15  16
ATOM     16  C   LIG A   1      -9.250  -3.586 124.571  0.00  0.00    +0.000 C 
BRANCH  16  17
ATOM     17  C   LIG A   1      -9.199  -2.685 123.334  0.00  0.00    -0.000 C 
BRANCH  17  18
ATOM     18  C   LIG A   1      -8.378  -1.418 123.584  0.00  0.00    +0.000 C 
BRANCH  18  19
ATOM     19  C   LIG A   1      -7.002  -1.513 122.928  0.00  0.00    +0.000 C 
BRANCH  19  20
ATOM     20  C   LIG A   1      -5.875  -1.586 123.950  0.00  0.00    +0.004 C 
BRANCH  20  21
ATOM     21  C   LIG A   1      -5.567  -3.030 124.362  0.00  0.00    +0.026 C 
BRANCH  21  22
ATOM     22  C   LIG A   1      -4.495  -3.662 123.518  0.00  0.00    -0.035 C 
ATOM     23  C   LIG A   1      -4.262  -4.979 123.470  0.00  0.00    +0.004 C 
ENDBRANCH  21  22
ENDBRANCH  20  21
ENDBRANCH  19  20
ENDBRANCH  18  19
ENDBRANCH  17  18
ENDBRANCH  16  17
ENDBRANCH  15  16
ENDBRANCH  14  15
ENDBRANCH   6  14
TORSDOF 14
ENDMDL
MODEL 2
REMARK VINA RESULT:      -5.7      8.078     10.501
REMARK  Name = NuBBE_1803
REMARK  15 active torsions:
REMARK  status: ('A' for Active; 'I' for Inactive)
REMARK    1  A    between atoms: C_4  and  C_5
REMARK    2  A    between atoms: C_5  and  C_6
REMARK    3  A    between atoms: C_6  and  O_7
REMARK    4  A    between atoms: C_6  and  C_8
REMARK    5  A    between atoms: C_8  and  O_9
REMARK    6  A    between atoms: O_9  and  C_10
REMARK    7  A    between atoms: C_12  and  C_13
REMARK    8  A    between atoms: C_13  and  C_14
REMARK    9  A    between atoms: C_14  and  C_15
REMARK   10  A    between atoms: C_15  and  C_16
REMARK   11  A    between atoms: C_16  and  C_17
REMARK   12  A    between atoms: C_17  and  C_18
REMARK   13  A    between atoms: C_18  and  C_19
REMARK   14  A    between atoms: C_19  and  C_20
REMARK   15  A    between atoms: C_20  and  C_21
REMARK                            x       y       z     vdW  Elec       q    Type
REMARK                         _______ _______ _______ _____ _____    ______ ____
ROOT
ATOM      1  O   LIG A   1     -12.640   6.758 131.753  0.00  0.00    -0.251 OA
ATOM      2  C   LIG A   1     -11.475   6.483 131.557  0.00  0.00    +0.311 C 
ATOM      3  O   LIG A   1     -10.549   6.316 132.556  0.00  0.00    -0.461 OA
ATOM      4  C   LIG A   1     -10.820   6.326 130.204  0.00  0.00    +0.104 C 
ATOM      5  C   LIG A   1      -9.569   5.568 130.595  0.00  0.00    +0.059 C 
ATOM      6  C   LIG A   1      -9.263   6.128 131.968  0.00  0.00    +0.177 C 
ENDROOT
BRANCH   4   7
ATOM      7  C   LIG A   1     -10.569   7.713 129.593  0.00  0.00    +0.048 C 
BRANCH   7   8
ATOM      8  C   LIG A   1     -11.494   8.060 128.422  0.00  0.00    +0.141 C 
BRANCH   8   9
ATOM      9  O   LIG A   1     -12.032   9.368 128.614  0.00  0.00    -0.390 OA
ATOM     10  H   LIG A   1     -11.310   9.884 129.027  0.00  0.00    +0.210 HD
ENDBRANCH   8   9
BRANCH   8  11
ATOM     11  C   LIG A   1     -10.746   8.015 127.081  0.00  0.00    +0.190 C 
BRANCH  11  12
ATOM     12  O   LIG A   1     -11.324   6.969 126.288  0.00  0.00    -0.380 OA
ATOM     13  C   LIG A   1     -12.729   6.874 126.501  0.00  0.00    +0.194 C 
ENDBRANCH  11  12
ENDBRANCH   8  11
ENDBRANCH   7   8
ENDBRANCH   4   7
BRANCH   6  14
ATOM     14  C   LIG A   1      -8.407   5.199 132.818  0.00  0.00    +0.045 C 
BRANCH  14  15
ATOM     15  C   LIG A   1      -9.263   4.133 133.504  0.00  0.00    +0.003 C 
BRANCH  15  16
ATOM     16  C   LIG A   1      -8.806   2.734 133.130  0.00  0.00    +0.000 C 
BRANCH  16  17
ATOM     17  C   LIG A   1      -9.767   2.079 132.134  0.00  0.00    -0.000 C 
BRANCH  17  18
ATOM     18  C   LIG A   1      -9.349   0.647 131.795  0.00  0.00    +0.000 C 
BRANCH  18  19
ATOM     19  C   LIG A   1      -8.391   0.618 130.605  0.00  0.00    +0.000 C 
BRANCH  19  20
ATOM     20  C   LIG A   1      -7.246  -0.367 130.805  0.00  0.00    +0.004 C 
BRANCH  20  21
ATOM     21  C   LIG A   1      -7.734  -1.820 130.821  0.00  0.00    +0.026 C 
BRANCH  21  22
ATOM     22  C   LIG A   1      -7.565  -2.506 129.494  0.00  0.00    -0.035 C 
ATOM     23  C   LIG A   1      -8.485  -3.313 128.949  0.00  0.00    +0.004 C 
ENDBRANCH  21  22
ENDBRANCH  20  21
ENDBRANCH  19  20
ENDBRANCH  18  19
ENDBRANCH  17  18
ENDBRANCH  16  17
ENDBRANCH  15  16
ENDBRANCH  14  15
ENDBRANCH   6  14
TORSDOF 14
ENDMDL
MODEL 3
REMARK VINA RESULT:      -5.6      8.446     10.895
REMARK  Name = NuBBE_1803
REMARK  15 active torsions:
REMARK  status: ('A' for Active; 'I' for Inactive)
REMARK    1  A    between atoms: C_4  and  C_5
REMARK    2  A    between atoms: C_5  and  C_6
REMARK    3  A    between atoms: C_6  and  O_7
REMARK    4  A    between atoms: C_6  and  C_8
REMARK    5  A    between atoms: C_8  and  O_9
REMARK    6  A    between atoms: O_9  and  C_10
REMARK    7  A    between atoms: C_12  and  C_13
REMARK    8  A    between atoms: C_13  and  C_14
REMARK    9  A    between atoms: C_14  and  C_15
REMARK   10  A    between atoms: C_15  and  C_16
REMARK   11  A    between atoms: C_16  and  C_17
REMARK   12  A    between atoms: C_17  and  C_18
REMARK   13  A    between atoms: C_18  and  C_19
REMARK   14  A    between atoms: C_19  and  C_20
REMARK   15  A    between atoms: C_20  and  C_21
REMARK                            x       y       z     vdW  Elec       q    Type
REMARK                         _______ _______ _______ _____ _____    ______ ____
ROOT
ATOM      1  O   LIG A   1     -12.659   6.843 131.751  0.00  0.00    -0.251 OA
ATOM      2  C   LIG A   1     -11.495   6.551 131.575  0.00  0.00    +0.311 C 
ATOM      3  O   LIG A   1     -10.579   6.412 132.588  0.00  0.00    -0.461 OA
ATOM      4  C   LIG A   1     -10.830   6.339 130.234  0.00  0.00    +0.104 C 
ATOM      5  C   LIG A   1      -9.590   5.584 130.663  0.00  0.00    +0.059 C 
ATOM      6  C   LIG A   1      -9.290   6.191 132.017  0.00  0.00    +0.177 C 
ENDROOT
BRANCH   4   7
ATOM      7  C   LIG A   1     -10.561   7.700 129.575  0.00  0.00    +0.048 C 
BRANCH   7   8
ATOM      8  C   LIG A   1     -11.527   8.049 128.439  0.00  0.00    +0.141 C 
BRANCH   8   9
ATOM      9  O   LIG A   1     -12.065   9.353 128.656  0.00  0.00    -0.390 OA
ATOM     10  H   LIG A   1     -12.019   9.491 129.625  0.00  0.00    +0.210 HD
ENDBRANCH   8   9
BRANCH   8  11
ATOM     11  C   LIG A   1     -10.825   8.016 127.073  0.00  0.00    +0.190 C 
BRANCH  11  12
ATOM     12  O   LIG A   1     -11.343   6.898 126.337  0.00  0.00    -0.380 OA
ATOM     13  C   LIG A   1     -12.767   6.895 126.334  0.00  0.00    +0.194 C 
ENDBRANCH  11  12
ENDBRANCH   8  11
ENDBRANCH   7   8
ENDBRANCH   4   7
BRANCH   6  14
ATOM     14  C   LIG A   1      -8.449   5.285 132.908  0.00  0.00    +0.045 C 
BRANCH  14  15
ATOM     15  C   LIG A   1      -9.315   4.226 133.591  0.00  0.00    +0.003 C 
BRANCH  15  16
ATOM     16  C   LIG A   1      -8.774   2.828 133.344  0.00  0.00    +0.000 C 
BRANCH  16  17
ATOM     17  C   LIG A   1      -9.581   2.099 132.266  0.00  0.00    -0.000 C 
BRANCH  17  18
ATOM     18  C   LIG A   1      -8.969   0.741 131.916  0.00  0.00    +0.000 C 
BRANCH  18  19
ATOM     19  C   LIG A   1      -8.462   0.718 130.475  0.00  0.00    +0.000 C 
BRANCH  19  20
ATOM     20  C   LIG A   1      -8.527   2.090 129.814  0.00  0.00    +0.004 C 
BRANCH  20  21
ATOM     21  C   LIG A   1      -7.142   2.584 129.382  0.00  0.00    +0.026 C 
BRANCH  21  22
ATOM     22  C   LIG A   1      -6.504   3.491 130.397  0.00  0.00    -0.035 C 
ATOM     23  C   LIG A   1      -5.947   4.672 130.098  0.00  0.00    +0.004 C 
ENDBRANCH  21  22
ENDBRANCH  20  21
ENDBRANCH  19  20
ENDBRANCH  18  19
ENDBRANCH  17  18
ENDBRANCH  16  17
ENDBRANCH  15  16
ENDBRANCH  14  15
ENDBRANCH   6  14
TORSDOF 14
ENDMDL
MODEL 4
REMARK VINA RESULT:      -5.6      1.628      2.317
REMARK  Name = NuBBE_1803
REMARK  15 active torsions:
REMARK  status: ('A' for Active; 'I' for Inactive)
REMARK    1  A    between atoms: C_4  and  C_5
REMARK    2  A    between atoms: C_5  and  C_6
REMARK    3  A    between atoms: C_6  and  O_7
REMARK    4  A    between atoms: C_6  and  C_8
REMARK    5  A    between atoms: C_8  and  O_9
REMARK    6  A    between atoms: O_9  and  C_10
REMARK    7  A    between atoms: C_12  and  C_13
REMARK    8  A    between atoms: C_13  and  C_14
REMARK    9  A    between atoms: C_14  and  C_15
REMARK   10  A    between atoms: C_15  and  C_16
REMARK   11  A    between atoms: C_16  and  C_17
REMARK   12  A    between atoms: C_17  and  C_18
REMARK   13  A    between atoms: C_18  and  C_19
REMARK   14  A    between atoms: C_19  and  C_20
REMARK   15  A    between atoms: C_20  and  C_21
REMARK                            x       y       z     vdW  Elec       q    Type
REMARK                         _______ _______ _______ _____ _____    ______ ____
ROOT
ATOM      1  O   LIG A   1      -5.206  -2.246 129.081  0.00  0.00    -0.251 OA
ATOM      2  C   LIG A   1      -6.364  -2.491 128.816  0.00  0.00    +0.311 C 
ATOM      3  O   LIG A   1      -6.863  -2.543 127.539  0.00  0.00    -0.461 OA
ATOM      4  C   LIG A   1      -7.468  -2.730 129.821  0.00  0.00    +0.104 C 
ATOM      5  C   LIG A   1      -8.495  -3.407 128.938  0.00  0.00    +0.059 C 
ATOM      6  C   LIG A   1      -8.277  -2.729 127.602  0.00  0.00    +0.177 C 
ENDROOT
BRANCH   4   7
ATOM      7  C   LIG A   1      -7.915  -1.387 130.418  0.00  0.00    +0.048 C 
BRANCH   7   8
ATOM      8  C   LIG A   1      -7.593  -1.225 131.907  0.00  0.00    +0.141 C 
BRANCH   8   9
ATOM      9  O   LIG A   1      -6.759  -2.303 132.332  0.00  0.00    -0.390 OA
ATOM     10  H   LIG A   1      -6.748  -2.248 133.310  0.00  0.00    +0.210 HD
ENDBRANCH   8   9
BRANCH   8  11
ATOM     11  C   LIG A   1      -6.877   0.105 132.187  0.00  0.00    +0.190 C 
BRANCH  11  12
ATOM     12  O   LIG A   1      -5.909   0.311 131.147  0.00  0.00    -0.380 OA
ATOM     13  C   LIG A   1      -4.603   0.493 131.684  0.00  0.00    +0.194 C 
ENDBRANCH  11  12
ENDBRANCH   8  11
ENDBRANCH   7   8
ENDBRANCH   4   7
BRANCH   6  14
ATOM     14  C   LIG A   1      -8.770  -3.554 126.422  0.00  0.00    +0.045 C 
BRANCH  14  15
ATOM     15  C   LIG A   1      -9.375  -2.662 125.337  0.00  0.00    +0.003 C 
BRANCH  15  16
ATOM     16  C   LIG A   1      -9.391  -3.363 123.990  0.00  0.00    +0.000 C 
BRANCH  16  17
ATOM     17  C   LIG A   1      -8.962  -2.419 122.863  0.00  0.00    -0.000 C 
BRANCH  17  18
ATOM     18  C   LIG A   1      -8.181  -1.215 123.394  0.00  0.00    +0.000 C 
BRANCH  18  19
ATOM     19  C   LIG A   1      -6.705  -1.301 123.009  0.00  0.00    +0.000 C 
BRANCH  19  20
ATOM     20  C   LIG A   1      -5.819  -1.683 124.188  0.00  0.00    +0.004 C 
BRANCH  20  21
ATOM     21  C   LIG A   1      -5.654  -3.202 124.315  0.00  0.00    +0.026 C 
BRANCH  21  22
ATOM     22  C   LIG A   1      -4.432  -3.717 123.606  0.00  0.00    -0.035 C 
ATOM     23  C   LIG A   1      -4.185  -5.015 123.392  0.00  0.00    +0.004 C 
ENDBRANCH  21  22
ENDBRANCH  20  21
ENDBRANCH  19  20
ENDBRANCH  18  19
ENDBRANCH  17  18
ENDBRANCH  16  17
ENDBRANCH  15  16
ENDBRANCH  14  15
ENDBRANCH   6  14
TORSDOF 14
ENDMDL
MODEL 5
REMARK VINA RESULT:      -5.6      8.803     10.915
REMARK  Name = NuBBE_1803
REMARK  15 active torsions:
REMARK  status: ('A' for Active; 'I' for Inactive)
REMARK    1  A    between atoms: C_4  and  C_5
REMARK    2  A    between atoms: C_5  and  C_6
REMARK    3  A    between atoms: C_6  and  O_7
REMARK    4  A    between atoms: C_6  and  C_8
REMARK    5  A    between atoms: C_8  and  O_9
REMARK    6  A    between atoms: O_9  and  C_10
REMARK    7  A    between atoms: C_12  and  C_13
REMARK    8  A    between atoms: C_13  and  C_14
REMARK    9  A    between atoms: C_14  and  C_15
REMARK   10  A    between atoms: C_15  and  C_16
REMARK   11  A    between atoms: C_16  and  C_17
REMARK   12  A    between atoms: C_17  and  C_18
REMARK   13  A    between atoms: C_18  and  C_19
REMARK   14  A    between atoms: C_19  and  C_20
REMARK   15  A    between atoms: C_20  and  C_21
REMARK                            x       y       z     vdW  Elec       q    Type
REMARK                         _______ _______ _______ _____ _____    ______ ____
ROOT
ATOM      1  O   LIG A   1      -9.839   4.124 129.604  0.00  0.00    -0.251 OA
ATOM      2  C   LIG A   1      -9.228   4.880 130.329  0.00  0.00    +0.311 C 
ATOM      3  O   LIG A   1      -8.156   4.503 131.099  0.00  0.00    -0.461 OA
ATOM      4  C   LIG A   1      -9.554   6.338 130.561  0.00  0.00    +0.104 C 
ATOM      5  C   LIG A   1      -8.242   6.819 131.146  0.00  0.00    +0.059 C 
ATOM      6  C   LIG A   1      -7.765   5.606 131.917  0.00  0.00    +0.177 C 
ENDROOT
BRANCH   4   7
ATOM      7  C   LIG A   1     -10.761   6.449 131.504  0.00  0.00    +0.048 C 
BRANCH   7   8
ATOM      8  C   LIG A   1     -12.109   6.558 130.786  0.00  0.00    +0.141 C 
BRANCH   8   9
ATOM      9  O   LIG A   1     -13.054   7.197 131.645  0.00  0.00    -0.390 OA
ATOM     10  H   LIG A   1     -12.641   7.186 132.533  0.00  0.00    +0.210 HD
ENDBRANCH   8   9
BRANCH   8  11
ATOM     11  C   LIG A   1     -11.991   7.363 129.483  0.00  0.00    +0.190 C 
BRANCH  11  12
ATOM     12  O   LIG A   1     -12.398   6.512 128.401  0.00  0.00    -0.380 OA
ATOM     13  C   LIG A   1     -13.596   6.984 127.794  0.00  0.00    +0.194 C 
ENDBRANCH  11  12
ENDBRANCH   8  11
ENDBRANCH   7   8
ENDBRANCH   4   7
BRANCH   6  14
ATOM     14  C   LIG A   1      -6.260   5.600 132.154  0.00  0.00    +0.045 C 
BRANCH  14  15
ATOM     15  C   LIG A   1      -5.527   6.395 131.073  0.00  0.00    +0.003 C 
BRANCH  15  16
ATOM     16  C   LIG A   1      -4.266   7.039 131.621  0.00  0.00    +0.000 C 
BRANCH  16  17
ATOM     17  C   LIG A   1      -3.365   7.553 130.494  0.00  0.00    -0.000 C 
BRANCH  17  18
ATOM     18  C   LIG A   1      -2.382   6.483 130.017  0.00  0.00    +0.000 C 
BRANCH  18  19
ATOM     19  C   LIG A   1      -2.254   6.489 128.495  0.00  0.00    +0.000 C 
BRANCH  19  20
ATOM     20  C   LIG A   1      -3.426   5.797 127.810  0.00  0.00    +0.004 C 
BRANCH  20  21
ATOM     21  C   LIG A   1      -3.330   4.270 127.912  0.00  0.00    +0.026 C 
BRANCH  21  22
ATOM     22  C   LIG A   1      -2.728   3.641 126.686  0.00  0.00    -0.035 C 
ATOM     23  C   LIG A   1      -1.545   3.013 126.674  0.00  0.00    +0.004 C 
ENDBRANCH  21  22
ENDBRANCH  20  21
ENDBRANCH  19  20
ENDBRANCH  18  19
ENDBRANCH  17  18
ENDBRANCH  16  17
ENDBRANCH  15  16
ENDBRANCH  14  15
ENDBRANCH   6  14
TORSDOF 14
ENDMDL
MODEL 6
REMARK VINA RESULT:      -5.6     10.781     14.245
REMARK  Name = NuBBE_1803
REMARK  15 active torsions:
REMARK  status: ('A' for Active; 'I' for Inactive)
REMARK    1  A    between atoms: C_4  and  C_5
REMARK    2  A    between atoms: C_5  and  C_6
REMARK    3  A    between atoms: C_6  and  O_7
REMARK    4  A    between atoms: C_6  and  C_8
REMARK    5  A    between atoms: C_8  and  O_9
REMARK    6  A    between atoms: O_9  and  C_10
REMARK    7  A    between atoms: C_12  and  C_13
REMARK    8  A    between atoms: C_13  and  C_14
REMARK    9  A    between atoms: C_14  and  C_15
REMARK   10  A    between atoms: C_15  and  C_16
REMARK   11  A    between atoms: C_16  and  C_17
REMARK   12  A    between atoms: C_17  and  C_18
REMARK   13  A    between atoms: C_18  and  C_19
REMARK   14  A    between atoms: C_19  and  C_20
REMARK   15  A    between atoms: C_20  and  C_21
REMARK                            x       y       z     vdW  Elec       q    Type
REMARK                         _______ _______ _______ _____ _____    ______ ____
ROOT
ATOM      1  O   LIG A   1     -12.334   6.518 131.747  0.00  0.00    -0.251 OA
ATOM      2  C   LIG A   1     -11.183   6.499 131.365  0.00  0.00    +0.311 C 
ATOM      3  O   LIG A   1     -10.098   6.597 132.199  0.00  0.00    -0.461 OA
ATOM      4  C   LIG A   1     -10.732   6.418 129.924  0.00  0.00    +0.104 C 
ATOM      5  C   LIG A   1      -9.295   5.979 130.114  0.00  0.00    +0.059 C 
ATOM      6  C   LIG A   1      -8.912   6.668 131.407  0.00  0.00    +0.177 C 
ENDROOT
BRANCH   4   7
ATOM      7  C   LIG A   1     -10.905   7.791 129.256  0.00  0.00    +0.048 C 
BRANCH   7   8
ATOM      8  C   LIG A   1     -11.964   7.821 128.150  0.00  0.00    +0.141 C 
BRANCH   8   9
ATOM      9  O   LIG A   1     -12.457   6.500 127.929  0.00  0.00    -0.390 OA
ATOM     10  H   LIG A   1     -11.668   5.968 127.698  0.00  0.00    +0.210 HD
ENDBRANCH   8   9
BRANCH   8  11
ATOM     11  C   LIG A   1     -13.138   8.740 128.520  0.00  0.00    +0.190 C 
BRANCH  11  12
ATOM     12  O   LIG A   1     -12.816   9.389 129.759  0.00  0.00    -0.380 OA
ATOM     13  C   LIG A   1     -13.381  10.695 129.823  0.00  0.00    +0.194 C 
ENDBRANCH  11  12
ENDBRANCH   8  11
ENDBRANCH   7   8
ENDBRANCH   4   7
BRANCH   6  14
ATOM     14  C   LIG A   1      -7.743   6.000 132.119  0.00  0.00    +0.045 C 
BRANCH  14  15
ATOM     15  C   LIG A   1      -8.068   5.739 133.591  0.00  0.00    +0.003 C 
BRANCH  15  16
ATOM     16  C   LIG A   1      -6.809   5.472 134.396  0.00  0.00    +0.000 C 
BRANCH  16  17
ATOM     17  C   LIG A   1      -7.108   5.405 135.896  0.00  0.00    -0.000 C 
BRANCH  17  18
ATOM     18  C   LIG A   1      -6.652   6.671 136.625  0.00  0.00    +0.000 C 
BRANCH  18  19
ATOM     19  C   LIG A   1      -7.244   6.742 138.031  0.00  0.00    +0.000 C 
BRANCH  19  20
ATOM     20  C   LIG A   1      -8.741   7.024 138.018  0.00  0.00    +0.004 C 
BRANCH  20  21
ATOM     21  C   LIG A   1      -9.081   8.285 137.216  0.00  0.00    +0.026 C 
BRANCH  21  22
ATOM     22  C   LIG A   1      -9.807   9.318 138.033  0.00  0.00    -0.035 C 
ATOM     23  C   LIG A   1      -9.262   9.966 139.071  0.00  0.00    +0.004 C 
ENDBRANCH  21  22
ENDBRANCH  20  21
ENDBRANCH  19  20
ENDBRANCH  18  19
ENDBRANCH  17  18
ENDBRANCH  16  17
ENDBRANCH  15  16
ENDBRANCH  14  15
ENDBRANCH   6  14
TORSDOF 14
ENDMDL
MODEL 7
REMARK VINA RESULT:      -5.5      4.031      5.993
REMARK  Name = NuBBE_1803
REMARK  15 active torsions:
REMARK  status: ('A' for Active; 'I' for Inactive)
REMARK    1  A    between atoms: C_4  and  C_5
REMARK    2  A    between atoms: C_5  and  C_6
REMARK    3  A    between atoms: C_6  and  O_7
REMARK    4  A    between atoms: C_6  and  C_8
REMARK    5  A    between atoms: C_8  and  O_9
REMARK    6  A    between atoms: O_9  and  C_10
REMARK    7  A    between atoms: C_12  and  C_13
REMARK    8  A    between atoms: C_13  and  C_14
REMARK    9  A    between atoms: C_14  and  C_15
REMARK   10  A    between atoms: C_15  and  C_16
REMARK   11  A    between atoms: C_16  and  C_17
REMARK   12  A    between atoms: C_17  and  C_18
REMARK   13  A    between atoms: C_18  and  C_19
REMARK   14  A    between atoms: C_19  and  C_20
REMARK   15  A    between atoms: C_20  and  C_21
REMARK                            x       y       z     vdW  Elec       q    Type
REMARK                         _______ _______ _______ _____ _____    ______ ____
ROOT
ATOM      1  O   LIG A   1      -5.376   2.768 127.501  0.00  0.00    -0.251 OA
ATOM      2  C   LIG A   1      -6.200   1.922 127.225  0.00  0.00    +0.311 C 
ATOM      3  O   LIG A   1      -6.181   0.644 127.725  0.00  0.00    -0.461 OA
ATOM      4  C   LIG A   1      -7.351   2.091 126.259  0.00  0.00    +0.104 C 
ATOM      5  C   LIG A   1      -8.230   0.931 126.680  0.00  0.00    +0.059 C 
ATOM      6  C   LIG A   1      -7.216  -0.113 127.096  0.00  0.00    +0.177 C 
ENDROOT
BRANCH   4   7
ATOM      7  C   LIG A   1      -6.825   2.012 124.818  0.00  0.00    +0.048 C 
BRANCH   7   8
ATOM      8  C   LIG A   1      -7.134   3.249 123.970  0.00  0.00    +0.141 C 
BRANCH   8   9
ATOM      9  O   LIG A   1      -8.401   3.784 124.354  0.00  0.00    -0.390 OA
ATOM     10  H   LIG A   1      -8.511   4.594 123.815  0.00  0.00    +0.210 HD
ENDBRANCH   8   9
BRANCH   8  11
ATOM     11  C   LIG A   1      -6.059   4.332 124.139  0.00  0.00    +0.190 C 
BRANCH  11  12
ATOM     12  O   LIG A   1      -5.437   4.540 122.863  0.00  0.00    -0.380 OA
ATOM     13  C   LIG A   1      -6.129   3.847 121.830  0.00  0.00    +0.194 C 
ENDBRANCH  11  12
ENDBRANCH   8  11
ENDBRANCH   7   8
ENDBRANCH   4   7
BRANCH   6  14
ATOM     14  C   LIG A   1      -7.784  -1.154 128.051  0.00  0.00    +0.045 C 
BRANCH  14  15
ATOM     15  C   LIG A   1      -7.506  -2.573 127.551  0.00  0.00    +0.003 C 
BRANCH  15  16
ATOM     16  C   LIG A   1      -8.778  -3.246 127.066  0.00  0.00    +0.000 C 
BRANCH  16  17
ATOM     17  C   LIG A   1      -9.097  -2.861 125.618  0.00  0.00    -0.000 C 
BRANCH  17  18
ATOM     18  C   LIG A   1      -8.296  -3.695 124.616  0.00  0.00    +0.000 C 
BRANCH  18  19
ATOM     19  C   LIG A   1      -7.763  -2.829 123.477  0.00  0.00    +0.000 C 
BRANCH  19  20
ATOM     20  C   LIG A   1      -6.765  -1.783 123.959  0.00  0.00    +0.004 C 
BRANCH  20  21
ATOM     21  C   LIG A   1      -5.450  -2.417 124.428  0.00  0.00    +0.026 C 
BRANCH  21  22
ATOM     22  C   LIG A   1      -4.818  -3.290 123.380  0.00  0.00    -0.035 C 
ATOM     23  C   LIG A   1      -4.384  -4.536 123.610  0.00  0.00    +0.004 C 
ENDBRANCH  21  22
ENDBRANCH  20  21
ENDBRANCH  19  20
ENDBRANCH  18  19
ENDBRANCH  17  18
ENDBRANCH  16  17
ENDBRANCH  15  16
ENDBRANCH  14  15
ENDBRANCH   6  14
TORSDOF 14
ENDMDL
MODEL 8
REMARK VINA RESULT:      -5.4      9.598     11.422
REMARK  Name = NuBBE_1803
REMARK  15 active torsions:
REMARK  status: ('A' for Active; 'I' for Inactive)
REMARK    1  A    between atoms: C_4  and  C_5
REMARK    2  A    between atoms: C_5  and  C_6
REMARK    3  A    between atoms: C_6  and  O_7
REMARK    4  A    between atoms: C_6  and  C_8
REMARK    5  A    between atoms: C_8  and  O_9
REMARK    6  A    between atoms: O_9  and  C_10
REMARK    7  A    between atoms: C_12  and  C_13
REMARK    8  A    between atoms: C_13  and  C_14
REMARK    9  A    between atoms: C_14  and  C_15
REMARK   10  A    between atoms: C_15  and  C_16
REMARK   11  A    between atoms: C_16  and  C_17
REMARK   12  A    between atoms: C_17  and  C_18
REMARK   13  A    between atoms: C_18  and  C_19
REMARK   14  A    between atoms: C_19  and  C_20
REMARK   15  A    between atoms: C_20  and  C_21
REMARK                            x       y       z     vdW  Elec       q    Type
REMARK                         _______ _______ _______ _____ _____    ______ ____
ROOT
ATOM      1  O   LIG A   1      -9.795   6.465 127.343  0.00  0.00    -0.251 OA
ATOM      2  C   LIG A   1      -9.666   6.399 128.547  0.00  0.00    +0.311 C 
ATOM      3  O   LIG A   1      -8.759   5.583 129.177  0.00  0.00    -0.461 OA
ATOM      4  C   LIG A   1     -10.496   7.146 129.567  0.00  0.00    +0.104 C 
ATOM      5  C   LIG A   1      -9.604   7.024 130.784  0.00  0.00    +0.059 C 
ATOM      6  C   LIG A   1      -8.966   5.664 130.587  0.00  0.00    +0.177 C 
ENDROOT
BRANCH   4   7
ATOM      7  C   LIG A   1     -11.869   6.471 129.702  0.00  0.00    +0.048 C 
BRANCH   7   8
ATOM      8  C   LIG A   1     -12.997   7.422 130.116  0.00  0.00    +0.141 C 
BRANCH   8   9
ATOM      9  O   LIG A   1     -13.105   7.439 131.539  0.00  0.00    -0.390 OA
ATOM     10  H   LIG A   1     -13.375   8.353 131.764  0.00  0.00    +0.210 HD
ENDBRANCH   8   9
BRANCH   8  11
ATOM     11  C   LIG A   1     -12.741   8.851 129.614  0.00  0.00    +0.190 C 
BRANCH  11  12
ATOM     12  O   LIG A   1     -13.143   9.760 130.650  0.00  0.00    -0.380 OA
ATOM     13  C   LIG A   1     -13.542  11.016 130.111  0.00  0.00    +0.194 C 
ENDBRANCH  11  12
ENDBRANCH   8  11
ENDBRANCH   7   8
ENDBRANCH   4   7
BRANCH   6  14
ATOM     14  C   LIG A   1      -7.652   5.503 131.339  0.00  0.00    +0.045 C 
BRANCH  14  15
ATOM     15  C   LIG A   1      -6.833   6.793 131.304  0.00  0.00    +0.003 C 
BRANCH  15  16
ATOM     16  C   LIG A   1      -5.352   6.513 131.485  0.00  0.00    +0.000 C 
BRANCH  16  17
ATOM     17  C   LIG A   1      -4.718   6.000 130.189  0.00  0.00    -0.000 C 
BRANCH  17  18
ATOM     18  C   LIG A   1      -3.242   5.644 130.377  0.00  0.00    +0.000 C 
BRANCH  18  19
ATOM     19  C   LIG A   1      -2.360   6.402 129.386  0.00  0.00    +0.000 C 
BRANCH  19  20
ATOM     20  C   LIG A   1      -2.469   5.849 127.971  0.00  0.00    +0.004 C 
BRANCH  20  21
ATOM     21  C   LIG A   1      -2.986   4.406 127.956  0.00  0.00    +0.026 C 
BRANCH  21  22
ATOM     22  C   LIG A   1      -2.620   3.669 126.697  0.00  0.00    -0.035 C 
ATOM     23  C   LIG A   1      -1.467   3.011 126.526  0.00  0.00    +0.004 C 
ENDBRANCH  21  22
ENDBRANCH  20  21
ENDBRANCH  19  20
ENDBRANCH  18  19
ENDBRANCH  17  18
ENDBRANCH  16  17
ENDBRANCH  15  16
ENDBRANCH  14  15
ENDBRANCH   6  14
TORSDOF 14
ENDMDL
MODEL 9
REMARK VINA RESULT:      -5.3      3.660      6.263
REMARK  Name = NuBBE_1803
REMARK  15 active torsions:
REMARK  status: ('A' for Active; 'I' for Inactive)
REMARK    1  A    between atoms: C_4  and  C_5
REMARK    2  A    between atoms: C_5  and  C_6
REMARK    3  A    between atoms: C_6  and  O_7
REMARK    4  A    between atoms: C_6  and  C_8
REMARK    5  A    between atoms: C_8  and  O_9
REMARK    6  A    between atoms: O_9  and  C_10
REMARK    7  A    between atoms: C_12  and  C_13
REMARK    8  A    between atoms: C_13  and  C_14
REMARK    9  A    between atoms: C_14  and  C_15
REMARK   10  A    between atoms: C_15  and  C_16
REMARK   11  A    between atoms: C_16  and  C_17
REMARK   12  A    between atoms: C_17  and  C_18
REMARK   13  A    between atoms: C_18  and  C_19
REMARK   14  A    between atoms: C_19  and  C_20
REMARK   15  A    between atoms: C_20  and  C_21
REMARK                            x       y       z     vdW  Elec       q    Type
REMARK                         _______ _______ _______ _____ _____    ______ ____
ROOT
ATOM      1  O   LIG A   1      -5.534   0.722 126.571  0.00  0.00    -0.251 OA
ATOM      2  C   LIG A   1      -6.208   0.409 125.611  0.00  0.00    +0.311 C 
ATOM      3  O   LIG A   1      -5.923  -0.651 124.788  0.00  0.00    -0.461 OA
ATOM      4  C   LIG A   1      -7.435   1.142 125.117  0.00  0.00    +0.104 C 
ATOM      5  C   LIG A   1      -8.057   0.071 124.246  0.00  0.00    +0.059 C 
ATOM      6  C   LIG A   1      -6.844  -0.649 123.697  0.00  0.00    +0.177 C 
ENDROOT
BRANCH   4   7
ATOM      7  C   LIG A   1      -7.005   2.413 124.370  0.00  0.00    +0.048 C 
BRANCH   7   8
ATOM      8  C   LIG A   1      -7.716   3.687 124.837  0.00  0.00    +0.141 C 
BRANCH   8   9
ATOM      9  O   LIG A   1      -9.122   3.449 124.901  0.00  0.00    -0.390 OA
ATOM     10  H   LIG A   1      -9.463   4.098 125.551  0.00  0.00    +0.210 HD
ENDBRANCH   8   9
BRANCH   8  11
ATOM     11  C   LIG A   1      -7.219   4.134 126.220  0.00  0.00    +0.190 C 
BRANCH  11  12
ATOM     12  O   LIG A   1      -8.284   3.927 127.159  0.00  0.00    -0.380 OA
ATOM     13  C   LIG A   1      -7.854   3.142 128.267  0.00  0.00    +0.194 C 
ENDBRANCH  11  12
ENDBRANCH   8  11
ENDBRANCH   7   8
ENDBRANCH   4   7
BRANCH   6  14
ATOM     14  C   LIG A   1      -7.145  -2.070 123.240  0.00  0.00    +0.045 C 
BRANCH  14  15
ATOM     15  C   LIG A   1      -8.531  -2.162 122.598  0.00  0.00    +0.003 C 
BRANCH  15  16
ATOM     16  C   LIG A   1      -9.404  -3.178 123.313  0.00  0.00    +0.000 C 
BRANCH  16  17
ATOM     17  C   LIG A   1      -8.773  -3.627 124.634  0.00  0.00    -0.000 C 
BRANCH  17  18
ATOM     18  C   LIG A   1      -9.499  -3.033 125.844  0.00  0.00    +0.000 C 
BRANCH  18  19
ATOM     19  C   LIG A   1      -8.808  -3.423 127.149  0.00  0.00    +0.000 C 
BRANCH  19  20
ATOM     20  C   LIG A   1      -7.587  -2.559 127.442  0.00  0.00    +0.004 C 
BRANCH  20  21
ATOM     21  C   LIG A   1      -6.997  -2.850 128.826  0.00  0.00    +0.026 C 
BRANCH  21  22
ATOM     22  C   LIG A   1      -7.908  -2.435 129.947  0.00  0.00    -0.035 C 
ATOM     23  C   LIG A   1      -7.823  -1.258 130.581  0.00  0.00    +0.004 C 
ENDBRANCH  21  22
ENDBRANCH  20  21
ENDBRANCH  19  20
ENDBRANCH  18  19
ENDBRANCH  17  18
ENDBRANCH  16  17
ENDBRANCH  15  16
ENDBRANCH  14  15
ENDBRANCH   6  14
TORSDOF 14
ENDMDL
