MODEL 1
REMARK VINA RESULT:     -10.0      0.000      0.000
REMARK  Name = NuBBE_198
REMARK  11 active torsions:
REMARK  status: ('A' for Active; 'I' for Inactive)
REMARK    1  A    between atoms: O_1  and  C_2
REMARK    2  A    between atoms: C_4  and  O_5
REMARK    3  A    between atoms: C_9  and  C_10
REMARK    4  A    between atoms: C_12  and  C_13
REMARK    5  A    between atoms: C_14  and  O_15
REMARK    6  A    between atoms: O_15  and  C_16
REMARK    7  A    between atoms: C_18  and  O_19
REMARK    8  A    between atoms: C_23  and  C_24
REMARK    9  A    between atoms: C_27  and  O_28
REMARK   10  A    between atoms: O_28  and  C_29
REMARK   11  A    between atoms: C_35  and  O_36
REMARK                            x       y       z     vdW  Elec       q    Type
REMARK                         _______ _______ _______ _____ _____    ______ ____
ROOT
ATOM      1  C   LIG A   1      -8.551   2.334 129.077  0.00  0.00    +0.018 A 
ATOM      2  C   LIG A   1      -7.860   1.303 129.800  0.00  0.00    +0.024 A 
ATOM      3  C   LIG A   1      -7.918   1.064 131.221  0.00  0.00    +0.031 A 
ATOM      4  C   LIG A   1      -8.764   1.986 131.874  0.00  0.00    +0.125 A 
ATOM      5  C   LIG A   1      -9.535   2.961 131.181  0.00  0.00    +0.046 A 
ATOM      6  C   LIG A   1      -9.433   3.133 129.802  0.00  0.00    +0.015 A 
ENDROOT
BRANCH   1  13
ATOM      7  C   LIG A   1      -9.966   1.182 123.298  0.00  0.00    +0.124 A 
ATOM      8  C   LIG A   1      -9.142   2.087 122.637  0.00  0.00    +0.091 A 
ATOM      9  C   LIG A   1      -8.269   2.883 123.383  0.00  0.00    +0.135 A 
ATOM     10  C   LIG A   1      -8.223   2.773 124.780  0.00  0.00    +0.105 A 
ATOM     11  C   LIG A   1      -7.302   3.586 125.618  0.00  0.00    +0.197 A 
ATOM     12  C   LIG A   1      -7.440   3.407 127.081  0.00  0.00    +0.098 A 
ATOM     13  C   LIG A   1      -8.332   2.547 127.599  0.00  0.00    +0.139 A 
ATOM     14  O   LIG A   1      -9.135   1.738 126.794  0.00  0.00    -0.454 OA
ATOM     15  O   LIG A   1      -6.493   4.365 125.196  0.00  0.00    -0.287 OA
ATOM     16  C   LIG A   1      -9.074   1.879 125.427  0.00  0.00    +0.146 A 
ATOM     17  C   LIG A   1      -9.942   1.073 124.685  0.00  0.00    +0.092 A 
BRANCH   7  18
ATOM     18  O   LIG A   1     -10.824   0.375 122.612  0.00  0.00    -0.506 OA
ATOM     19  H   LIG A   1     -11.156  -0.321 123.204  0.00  0.00    +0.292 HD
ENDBRANCH   7  18
BRANCH   9  20
ATOM     20  O   LIG A   1      -7.472   3.778 122.724  0.00  0.00    -0.506 OA
ATOM     21  H   LIG A   1      -7.265   3.467 121.830  0.00  0.00    +0.292 HD
ENDBRANCH   9  20
ENDBRANCH   1  13
BRANCH   3  22
ATOM     22  C   LIG A   1      -7.146  -0.147 131.897  0.00  0.00    +0.070 A 
ATOM     23  C   LIG A   1      -6.558  -0.185 133.217  0.00  0.00    +0.135 A 
ATOM     24  C   LIG A   1      -5.906  -1.353 133.693  0.00  0.00    +0.092 A 
ATOM     25  C   LIG A   1      -5.748  -2.499 132.961  0.00  0.00    +0.135 A 
ATOM     26  C   LIG A   1      -6.307  -2.539 131.713  0.00  0.00    +0.106 A 
ATOM     27  C   LIG A   1      -6.972  -1.401 131.178  0.00  0.00    +0.154 A 
ATOM     28  O   LIG A   1      -7.490  -1.503 129.900  0.00  0.00    -0.454 OA
ATOM     29  C   LIG A   1      -7.333  -2.671 129.169  0.00  0.00    +0.139 A 
ATOM     30  C   LIG A   1      -6.794  -3.798 129.630  0.00  0.00    +0.098 A 
ATOM     31  C   LIG A   1      -6.233  -3.814 130.968  0.00  0.00    +0.197 A 
ATOM     32  O   LIG A   1      -5.757  -4.853 131.377  0.00  0.00    -0.287 OA
BRANCH  29  33
ATOM     33  C   LIG A   1      -7.891  -2.632 127.813  0.00  0.00    +0.018 A 
ATOM     34  C   LIG A   1      -7.380  -1.703 126.918  0.00  0.00    +0.015 A 
ATOM     35  C   LIG A   1      -7.898  -1.609 125.640  0.00  0.00    +0.046 A 
ATOM     36  C   LIG A   1      -8.936  -2.441 125.217  0.00  0.00    +0.120 A 
ATOM     37  C   LIG A   1      -9.446  -3.393 126.098  0.00  0.00    +0.046 A 
ATOM     38  C   LIG A   1      -8.919  -3.494 127.390  0.00  0.00    +0.015 A 
BRANCH  36  39
ATOM     39  O   LIG A   1      -9.488  -2.369 123.963  0.00  0.00    -0.495 OA
ATOM     40  C   LIG A   1      -8.519  -2.225 122.921  0.00  0.00    +0.277 C 
ENDBRANCH  36  39
ENDBRANCH  29  33
BRANCH  23  41
ATOM     41  O   LIG A   1      -6.625   0.853 134.128  0.00  0.00    -0.494 OA
ATOM     42  C   LIG A   1      -5.448   1.678 134.274  0.00  0.00    +0.277 C 
ENDBRANCH  23  41
BRANCH  25  43
ATOM     43  O   LIG A   1      -5.060  -3.536 133.514  0.00  0.00    -0.506 OA
ATOM     44  H   LIG A   1      -4.446  -3.231 134.198  0.00  0.00    +0.292 HD
ENDBRANCH  25  43
ENDBRANCH   3  22
BRANCH   4  45
ATOM     45  O   LIG A   1      -8.908   1.977 133.233  0.00  0.00    -0.506 OA
ATOM     46  H   LIG A   1      -8.979   2.893 133.549  0.00  0.00    +0.292 HD
ENDBRANCH   4  45
TORSDOF 9
ENDMDL
MODEL 2
REMARK VINA RESULT:      -9.9      2.876      7.251
REMARK  Name = NuBBE_198
REMARK  11 active torsions:
REMARK  status: ('A' for Active; 'I' for Inactive)
REMARK    1  A    between atoms: O_1  and  C_2
REMARK    2  A    between atoms: C_4  and  O_5
REMARK    3  A    between atoms: C_9  and  C_10
REMARK    4  A    between atoms: C_12  and  C_13
REMARK    5  A    between atoms: C_14  and  O_15
REMARK    6  A    between atoms: O_15  and  C_16
REMARK    7  A    between atoms: C_18  and  O_19
REMARK    8  A    between atoms: C_23  and  C_24
REMARK    9  A    between atoms: C_27  and  O_28
REMARK   10  A    between atoms: O_28  and  C_29
REMARK   11  A    between atoms: C_35  and  O_36
REMARK                            x       y       z     vdW  Elec       q    Type
REMARK                         _______ _______ _______ _____ _____    ______ ____
ROOT
ATOM      1  C   LIG A   1      -7.405   3.852 128.412  0.00  0.00    +0.018 A 
ATOM      2  C   LIG A   1      -7.710   2.785 127.499  0.00  0.00    +0.024 A 
ATOM      3  C   LIG A   1      -6.784   2.113 126.622  0.00  0.00    +0.031 A 
ATOM      4  C   LIG A   1      -5.475   2.627 126.750  0.00  0.00    +0.125 A 
ATOM      5  C   LIG A   1      -5.117   3.617 127.706  0.00  0.00    +0.046 A 
ATOM      6  C   LIG A   1      -6.066   4.221 128.529  0.00  0.00    +0.015 A 
ENDROOT
BRANCH   1  13
ATOM      7  C   LIG A   1     -11.705   8.090 128.928  0.00  0.00    +0.124 A 
ATOM      8  C   LIG A   1     -12.247   7.769 130.168  0.00  0.00    +0.091 A 
ATOM      9  C   LIG A   1     -11.689   6.721 130.905  0.00  0.00    +0.135 A 
ATOM     10  C   LIG A   1     -10.595   6.002 130.402  0.00  0.00    +0.105 A 
ATOM     11  C   LIG A   1      -9.956   4.889 131.153  0.00  0.00    +0.197 A 
ATOM     12  C   LIG A   1      -8.867   4.180 130.443  0.00  0.00    +0.098 A 
ATOM     13  C   LIG A   1      -8.483   4.544 129.209  0.00  0.00    +0.139 A 
ATOM     14  O   LIG A   1      -9.045   5.639 128.552  0.00  0.00    -0.454 OA
ATOM     15  O   LIG A   1     -10.269   4.531 132.254  0.00  0.00    -0.287 OA
ATOM     16  C   LIG A   1     -10.081   6.321 129.147  0.00  0.00    +0.146 A 
ATOM     17  C   LIG A   1     -10.630   7.374 128.410  0.00  0.00    +0.092 A 
BRANCH   7  18
ATOM     18  O   LIG A   1     -12.207   9.113 128.180  0.00  0.00    -0.506 OA
ATOM     19  H   LIG A   1     -11.774   9.944 128.436  0.00  0.00    +0.292 HD
ENDBRANCH   7  18
BRANCH   9  20
ATOM     20  O   LIG A   1     -12.238   6.406 132.117  0.00  0.00    -0.506 OA
ATOM     21  H   LIG A   1     -13.114   6.004 132.008  0.00  0.00    +0.292 HD
ENDBRANCH   9  20
ENDBRANCH   1  13
BRANCH   3  22
ATOM     22  C   LIG A   1      -7.235   0.908 125.694  0.00  0.00    +0.070 A 
ATOM     23  C   LIG A   1      -7.354   0.905 124.254  0.00  0.00    +0.135 A 
ATOM     24  C   LIG A   1      -7.760  -0.263 123.555  0.00  0.00    +0.092 A 
ATOM     25  C   LIG A   1      -8.099  -1.442 124.161  0.00  0.00    +0.135 A 
ATOM     26  C   LIG A   1      -7.981  -1.517 125.522  0.00  0.00    +0.106 A 
ATOM     27  C   LIG A   1      -7.580  -0.380 126.279  0.00  0.00    +0.154 A 
ATOM     28  O   LIG A   1      -7.508  -0.519 127.654  0.00  0.00    -0.454 OA
ATOM     29  C   LIG A   1      -7.844  -1.721 128.257  0.00  0.00    +0.139 A 
ATOM     30  C   LIG A   1      -8.151  -2.845 127.612  0.00  0.00    +0.098 A 
ATOM     31  C   LIG A   1      -8.239  -2.824 126.164  0.00  0.00    +0.197 A 
ATOM     32  O   LIG A   1      -8.506  -3.859 125.591  0.00  0.00    -0.287 OA
BRANCH  29  33
ATOM     33  C   LIG A   1      -7.767  -1.721 129.722  0.00  0.00    +0.018 A 
ATOM     34  C   LIG A   1      -7.406  -2.898 130.362  0.00  0.00    +0.015 A 
ATOM     35  C   LIG A   1      -7.353  -2.953 131.741  0.00  0.00    +0.046 A 
ATOM     36  C   LIG A   1      -7.653  -1.836 132.522  0.00  0.00    +0.120 A 
ATOM     37  C   LIG A   1      -7.998  -0.640 131.894  0.00  0.00    +0.046 A 
ATOM     38  C   LIG A   1      -8.046  -0.581 130.497  0.00  0.00    +0.015 A 
BRANCH  36  39
ATOM     39  O   LIG A   1      -7.627  -1.854 133.894  0.00  0.00    -0.495 OA
ATOM     40  C   LIG A   1      -8.039  -3.102 134.456  0.00  0.00    +0.277 C 
ENDBRANCH  36  39
ENDBRANCH  29  33
BRANCH  23  41
ATOM     41  O   LIG A   1      -7.037   1.982 123.446  0.00  0.00    -0.494 OA
ATOM     42  C   LIG A   1      -8.137   2.704 122.850  0.00  0.00    +0.277 C 
ENDBRANCH  23  41
BRANCH  25  43
ATOM     43  O   LIG A   1      -8.520  -2.478 123.383  0.00  0.00    -0.506 OA
ATOM     44  H   LIG A   1      -8.646  -2.202 122.462  0.00  0.00    +0.292 HD
ENDBRANCH  25  43
ENDBRANCH   3  22
BRANCH   4  45
ATOM     45  O   LIG A   1      -4.455   2.174 125.959  0.00  0.00    -0.506 OA
ATOM     46  H   LIG A   1      -4.817   1.915 125.096  0.00  0.00    +0.292 HD
ENDBRANCH   4  45
TORSDOF 9
ENDMDL
MODEL 3
REMARK VINA RESULT:      -9.6      3.253      5.811
REMARK  Name = NuBBE_198
REMARK  11 active torsions:
REMARK  status: ('A' for Active; 'I' for Inactive)
REMARK    1  A    between atoms: O_1  and  C_2
REMARK    2  A    between atoms: C_4  and  O_5
REMARK    3  A    between atoms: C_9  and  C_10
REMARK    4  A    between atoms: C_12  and  C_13
REMARK    5  A    between atoms: C_14  and  O_15
REMARK    6  A    between atoms: O_15  and  C_16
REMARK    7  A    between atoms: C_18  and  O_19
REMARK    8  A    between atoms: C_23  and  C_24
REMARK    9  A    between atoms: C_27  and  O_28
REMARK   10  A    between atoms: O_28  and  C_29
REMARK   11  A    between atoms: C_35  and  O_36
REMARK                            x       y       z     vdW  Elec       q    Type
REMARK                         _______ _______ _______ _____ _____    ______ ____
ROOT
ATOM      1  C   LIG A   1      -7.985   3.886 130.379  0.00  0.00    +0.018 A 
ATOM      2  C   LIG A   1      -8.164   2.538 129.914  0.00  0.00    +0.024 A 
ATOM      3  C   LIG A   1      -7.188   1.478 129.955  0.00  0.00    +0.031 A 
ATOM      4  C   LIG A   1      -5.971   1.908 130.527  0.00  0.00    +0.125 A 
ATOM      5  C   LIG A   1      -5.786   3.205 131.081  0.00  0.00    +0.046 A 
ATOM      6  C   LIG A   1      -6.779   4.181 131.011  0.00  0.00    +0.015 A 
ENDROOT
BRANCH   1  13
ATOM      7  C   LIG A   1     -11.067   7.722 126.843  0.00  0.00    +0.124 A 
ATOM      8  C   LIG A   1     -12.023   8.197 127.735  0.00  0.00    +0.091 A 
ATOM      9  C   LIG A   1     -11.989   7.763 129.063  0.00  0.00    +0.135 A 
ATOM     10  C   LIG A   1     -11.004   6.862 129.493  0.00  0.00    +0.105 A 
ATOM     11  C   LIG A   1     -10.916   6.383 130.898  0.00  0.00    +0.197 A 
ATOM     12  C   LIG A   1      -9.870   5.369 131.164  0.00  0.00    +0.098 A 
ATOM     13  C   LIG A   1      -9.051   4.936 130.191  0.00  0.00    +0.139 A 
ATOM     14  O   LIG A   1      -9.102   5.454 128.896  0.00  0.00    -0.454 OA
ATOM     15  O   LIG A   1     -11.627   6.741 131.795  0.00  0.00    -0.287 OA
ATOM     16  C   LIG A   1     -10.070   6.377 128.579  0.00  0.00    +0.146 A 
ATOM     17  C   LIG A   1     -10.095   6.814 127.252  0.00  0.00    +0.092 A 
BRANCH   7  18
ATOM     18  O   LIG A   1     -11.052   8.126 125.541  0.00  0.00    -0.506 OA
ATOM     19  H   LIG A   1     -10.528   7.500 125.014  0.00  0.00    +0.292 HD
ENDBRANCH   7  18
BRANCH   9  20
ATOM     20  O   LIG A   1     -12.941   8.226 129.929  0.00  0.00    -0.506 OA
ATOM     21  H   LIG A   1     -12.552   8.438 130.792  0.00  0.00    +0.292 HD
ENDBRANCH   9  20
ENDBRANCH   1  13
BRANCH   3  22
ATOM     22  C   LIG A   1      -7.526   0.010 129.456  0.00  0.00    +0.070 A 
ATOM     23  C   LIG A   1      -7.889  -1.130 130.266  0.00  0.00    +0.135 A 
ATOM     24  C   LIG A   1      -8.179  -2.387 129.671  0.00  0.00    +0.092 A 
ATOM     25  C   LIG A   1      -8.110  -2.637 128.328  0.00  0.00    +0.135 A 
ATOM     26  C   LIG A   1      -7.799  -1.592 127.501  0.00  0.00    +0.106 A 
ATOM     27  C   LIG A   1      -7.497  -0.308 128.035  0.00  0.00    +0.154 A 
ATOM     28  O   LIG A   1      -7.166   0.696 127.143  0.00  0.00    -0.454 OA
ATOM     29  C   LIG A   1      -7.107   0.436 125.783  0.00  0.00    +0.139 A 
ATOM     30  C   LIG A   1      -7.451  -0.714 125.205  0.00  0.00    +0.098 A 
ATOM     31  C   LIG A   1      -7.835  -1.835 126.043  0.00  0.00    +0.197 A 
ATOM     32  O   LIG A   1      -8.158  -2.871 125.500  0.00  0.00    -0.287 OA
BRANCH  29  33
ATOM     33  C   LIG A   1      -6.701   1.574 124.952  0.00  0.00    +0.018 A 
ATOM     34  C   LIG A   1      -7.085   1.586 123.618  0.00  0.00    +0.015 A 
ATOM     35  C   LIG A   1      -6.696   2.622 122.791  0.00  0.00    +0.046 A 
ATOM     36  C   LIG A   1      -5.918   3.677 123.268  0.00  0.00    +0.120 A 
ATOM     37  C   LIG A   1      -5.541   3.690 124.610  0.00  0.00    +0.046 A 
ATOM     38  C   LIG A   1      -5.938   2.645 125.452  0.00  0.00    +0.015 A 
BRANCH  36  39
ATOM     39  O   LIG A   1      -5.499   4.716 122.476  0.00  0.00    -0.495 OA
ATOM     40  C   LIG A   1      -5.385   4.368 121.094  0.00  0.00    +0.277 C 
ENDBRANCH  36  39
ENDBRANCH  29  33
BRANCH  23  41
ATOM     41  O   LIG A   1      -8.041  -1.091 131.639  0.00  0.00    -0.494 OA
ATOM     42  C   LIG A   1      -7.508  -2.202 132.393  0.00  0.00    +0.277 C 
ENDBRANCH  23  41
BRANCH  25  43
ATOM     43  O   LIG A   1      -8.365  -3.899 127.885  0.00  0.00    -0.506 OA
ATOM     44  H   LIG A   1      -7.549  -4.412 127.784  0.00  0.00    +0.292 HD
ENDBRANCH  25  43
ENDBRANCH   3  22
BRANCH   4  45
ATOM     45  O   LIG A   1      -4.889   1.076 130.601  0.00  0.00    -0.506 OA
ATOM     46  H   LIG A   1      -4.559   1.067 131.514  0.00  0.00    +0.292 HD
ENDBRANCH   4  45
TORSDOF 9
ENDMDL
MODEL 4
REMARK VINA RESULT:      -9.5      1.718      9.199
REMARK  Name = NuBBE_198
REMARK  11 active torsions:
REMARK  status: ('A' for Active; 'I' for Inactive)
REMARK    1  A    between atoms: O_1  and  C_2
REMARK    2  A    between atoms: C_4  and  O_5
REMARK    3  A    between atoms: C_9  and  C_10
REMARK    4  A    between atoms: C_12  and  C_13
REMARK    5  A    between atoms: C_14  and  O_15
REMARK    6  A    between atoms: O_15  and  C_16
REMARK    7  A    between atoms: C_18  and  O_19
REMARK    8  A    between atoms: C_23  and  C_24
REMARK    9  A    between atoms: C_27  and  O_28
REMARK   10  A    between atoms: O_28  and  C_29
REMARK   11  A    between atoms: C_35  and  O_36
REMARK                            x       y       z     vdW  Elec       q    Type
REMARK                         _______ _______ _______ _____ _____    ______ ____
ROOT
ATOM      1  C   LIG A   1      -7.606  -2.847 128.493  0.00  0.00    +0.018 A 
ATOM      2  C   LIG A   1      -7.350  -1.791 127.552  0.00  0.00    +0.024 A 
ATOM      3  C   LIG A   1      -8.001  -1.597 126.281  0.00  0.00    +0.031 A 
ATOM      4  C   LIG A   1      -8.969  -2.594 126.030  0.00  0.00    +0.125 A 
ATOM      5  C   LIG A   1      -9.314  -3.599 126.974  0.00  0.00    +0.046 A 
ATOM      6  C   LIG A   1      -8.645  -3.725 128.191  0.00  0.00    +0.015 A 
ENDROOT
BRANCH   1  13
ATOM      7  C   LIG A   1      -7.153  -2.945 134.535  0.00  0.00    +0.124 A 
ATOM      8  C   LIG A   1      -5.826  -3.327 134.696  0.00  0.00    +0.091 A 
ATOM      9  C   LIG A   1      -5.027  -3.508 133.564  0.00  0.00    +0.135 A 
ATOM     10  C   LIG A   1      -5.556  -3.306 132.280  0.00  0.00    +0.105 A 
ATOM     11  C   LIG A   1      -4.744  -3.470 131.045  0.00  0.00    +0.197 A 
ATOM     12  C   LIG A   1      -5.478  -3.302 129.770  0.00  0.00    +0.098 A 
ATOM     13  C   LIG A   1      -6.787  -3.002 129.750  0.00  0.00    +0.139 A 
ATOM     14  O   LIG A   1      -7.513  -2.779 130.920  0.00  0.00    -0.454 OA
ATOM     15  O   LIG A   1      -3.575  -3.739 131.019  0.00  0.00    -0.287 OA
ATOM     16  C   LIG A   1      -6.895  -2.948 132.137  0.00  0.00    +0.146 A 
ATOM     17  C   LIG A   1      -7.695  -2.757 133.267  0.00  0.00    +0.092 A 
BRANCH   7  18
ATOM     18  O   LIG A   1      -7.967  -2.744 135.610  0.00  0.00    -0.506 OA
ATOM     19  H   LIG A   1      -7.499  -2.211 136.275  0.00  0.00    +0.292 HD
ENDBRANCH   7  18
BRANCH   9  20
ATOM     20  O   LIG A   1      -3.727  -3.895 133.733  0.00  0.00    -0.506 OA
ATOM     21  H   LIG A   1      -3.116  -3.226 133.387  0.00  0.00    +0.292 HD
ENDBRANCH   9  20
ENDBRANCH   1  13
BRANCH   3  22
ATOM     22  C   LIG A   1      -7.667  -0.355 125.351  0.00  0.00    +0.070 A 
ATOM     23  C   LIG A   1      -7.347  -0.375 123.942  0.00  0.00    +0.135 A 
ATOM     24  C   LIG A   1      -7.081   0.828 123.235  0.00  0.00    +0.092 A 
ATOM     25  C   LIG A   1      -7.068   2.070 123.809  0.00  0.00    +0.135 A 
ATOM     26  C   LIG A   1      -7.391   2.163 125.135  0.00  0.00    +0.106 A 
ATOM     27  C   LIG A   1      -7.666   0.994 125.899  0.00  0.00    +0.154 A 
ATOM     28  O   LIG A   1      -7.959   1.160 127.240  0.00  0.00    -0.454 OA
ATOM     29  C   LIG A   1      -7.953   2.423 127.810  0.00  0.00    +0.139 A 
ATOM     30  C   LIG A   1      -7.783   3.565 127.146  0.00  0.00    +0.098 A 
ATOM     31  C   LIG A   1      -7.487   3.515 125.726  0.00  0.00    +0.197 A 
ATOM     32  O   LIG A   1      -7.348   4.564 125.133  0.00  0.00    -0.287 OA
BRANCH  29  33
ATOM     33  C   LIG A   1      -8.236   2.454 129.250  0.00  0.00    +0.018 A 
ATOM     34  C   LIG A   1      -8.325   1.247 129.929  0.00  0.00    +0.015 A 
ATOM     35  C   LIG A   1      -8.624   1.229 131.278  0.00  0.00    +0.046 A 
ATOM     36  C   LIG A   1      -8.838   2.410 131.989  0.00  0.00    +0.120 A 
ATOM     37  C   LIG A   1      -8.733   3.632 131.324  0.00  0.00    +0.046 A 
ATOM     38  C   LIG A   1      -8.425   3.653 129.960  0.00  0.00    +0.015 A 
BRANCH  36  39
ATOM     39  O   LIG A   1      -9.151   2.434 133.324  0.00  0.00    -0.495 OA
ATOM     40  C   LIG A   1      -9.152   3.749 133.886  0.00  0.00    +0.277 C 
ENDBRANCH  36  39
ENDBRANCH  29  33
BRANCH  23  41
ATOM     41  O   LIG A   1      -7.329  -1.519 123.165  0.00  0.00    -0.494 OA
ATOM     42  C   LIG A   1      -6.062  -2.196 123.019  0.00  0.00    +0.277 C 
ENDBRANCH  23  41
BRANCH  25  43
ATOM     43  O   LIG A   1      -6.751   3.144 123.033  0.00  0.00    -0.506 OA
ATOM     44  H   LIG A   1      -6.675   2.897 122.099  0.00  0.00    +0.292 HD
ENDBRANCH  25  43
ENDBRANCH   3  22
BRANCH   4  45
ATOM     45  O   LIG A   1      -9.657  -2.633 124.849  0.00  0.00    -0.506 OA
ATOM     46  H   LIG A   1      -9.386  -1.879 124.301  0.00  0.00    +0.292 HD
ENDBRANCH   4  45
TORSDOF 9
ENDMDL
MODEL 5
REMARK VINA RESULT:      -9.2      2.393      7.296
REMARK  Name = NuBBE_198
REMARK  11 active torsions:
REMARK  status: ('A' for Active; 'I' for Inactive)
REMARK    1  A    between atoms: O_1  and  C_2
REMARK    2  A    between atoms: C_4  and  O_5
REMARK    3  A    between atoms: C_9  and  C_10
REMARK    4  A    between atoms: C_12  and  C_13
REMARK    5  A    between atoms: C_14  and  O_15
REMARK    6  A    between atoms: O_15  and  C_16
REMARK    7  A    between atoms: C_18  and  O_19
REMARK    8  A    between atoms: C_23  and  C_24
REMARK    9  A    between atoms: C_27  and  O_28
REMARK   10  A    between atoms: O_28  and  C_29
REMARK   11  A    between atoms: C_35  and  O_36
REMARK                            x       y       z     vdW  Elec       q    Type
REMARK                         _______ _______ _______ _____ _____    ______ ____
ROOT
ATOM      1  C   LIG A   1      -7.750   0.489 131.202  0.00  0.00    +0.018 A 
ATOM      2  C   LIG A   1      -7.881  -0.015 129.862  0.00  0.00    +0.024 A 
ATOM      3  C   LIG A   1      -7.395  -1.280 129.369  0.00  0.00    +0.031 A 
ATOM      4  C   LIG A   1      -6.744  -2.021 130.379  0.00  0.00    +0.125 A 
ATOM      5  C   LIG A   1      -6.676  -1.597 131.735  0.00  0.00    +0.046 A 
ATOM      6  C   LIG A   1      -7.173  -0.361 132.144  0.00  0.00    +0.015 A 
ENDROOT
BRANCH   1  13
ATOM      7  C   LIG A   1      -9.519   6.072 129.648  0.00  0.00    +0.124 A 
ATOM      8  C   LIG A   1      -9.867   6.596 130.888  0.00  0.00    +0.091 A 
ATOM      9  C   LIG A   1      -9.684   5.815 132.033  0.00  0.00    +0.135 A 
ATOM     10  C   LIG A   1      -9.156   4.520 131.933  0.00  0.00    +0.105 A 
ATOM     11  C   LIG A   1      -8.927   3.655 133.121  0.00  0.00    +0.197 A 
ATOM     12  C   LIG A   1      -8.444   2.286 132.832  0.00  0.00    +0.098 A 
ATOM     13  C   LIG A   1      -8.213   1.876 131.574  0.00  0.00    +0.139 A 
ATOM     14  O   LIG A   1      -8.362   2.727 130.479  0.00  0.00    -0.454 OA
ATOM     15  O   LIG A   1      -9.121   3.981 134.259  0.00  0.00    -0.287 OA
ATOM     16  C   LIG A   1      -8.837   4.002 130.679  0.00  0.00    +0.146 A 
ATOM     17  C   LIG A   1      -9.009   4.783 129.533  0.00  0.00    +0.092 A 
BRANCH   7  18
ATOM     18  O   LIG A   1      -9.668   6.801 128.505  0.00  0.00    -0.506 OA
ATOM     19  H   LIG A   1      -9.973   6.220 127.788  0.00  0.00    +0.292 HD
ENDBRANCH   7  18
BRANCH   9  20
ATOM     20  O   LIG A   1     -10.041   6.335 133.246  0.00  0.00    -0.506 OA
ATOM     21  H   LIG A   1     -10.958   6.651 133.233  0.00  0.00    +0.292 HD
ENDBRANCH   9  20
ENDBRANCH   1  13
BRANCH   3  22
ATOM     22  C   LIG A   1      -7.650  -1.748 127.874  0.00  0.00    +0.070 A 
ATOM     23  C   LIG A   1      -8.174  -3.019 127.430  0.00  0.00    +0.135 A 
ATOM     24  C   LIG A   1      -8.361  -3.290 126.048  0.00  0.00    +0.092 A 
ATOM     25  C   LIG A   1      -8.040  -2.419 125.043  0.00  0.00    +0.135 A 
ATOM     26  C   LIG A   1      -7.565  -1.186 125.396  0.00  0.00    +0.106 A 
ATOM     27  C   LIG A   1      -7.354  -0.853 126.764  0.00  0.00    +0.154 A 
ATOM     28  O   LIG A   1      -6.847   0.402 127.047  0.00  0.00    -0.454 OA
ATOM     29  C   LIG A   1      -6.533   1.281 126.023  0.00  0.00    +0.139 A 
ATOM     30  C   LIG A   1      -6.775   1.071 124.730  0.00  0.00    +0.098 A 
ATOM     31  C   LIG A   1      -7.325  -0.205 124.315  0.00  0.00    +0.197 A 
ATOM     32  O   LIG A   1      -7.551  -0.376 123.135  0.00  0.00    -0.287 OA
BRANCH  29  33
ATOM     33  C   LIG A   1      -5.963   2.561 126.458  0.00  0.00    +0.018 A 
ATOM     34  C   LIG A   1      -5.386   3.383 125.500  0.00  0.00    +0.015 A 
ATOM     35  C   LIG A   1      -4.806   4.582 125.870  0.00  0.00    +0.046 A 
ATOM     36  C   LIG A   1      -4.789   4.997 127.202  0.00  0.00    +0.120 A 
ATOM     37  C   LIG A   1      -5.382   4.192 128.173  0.00  0.00    +0.046 A 
ATOM     38  C   LIG A   1      -5.975   2.981 127.800  0.00  0.00    +0.015 A 
BRANCH  36  39
ATOM     39  O   LIG A   1      -4.212   6.172 127.612  0.00  0.00    -0.495 OA
ATOM     40  C   LIG A   1      -3.003   5.985 128.353  0.00  0.00    +0.277 C 
ENDBRANCH  36  39
ENDBRANCH  29  33
BRANCH  23  41
ATOM     41  O   LIG A   1      -8.585  -4.030 128.279  0.00  0.00    -0.494 OA
ATOM     42  C   LIG A   1     -10.001  -4.310 128.332  0.00  0.00    +0.277 C 
ENDBRANCH  23  41
BRANCH  25  43
ATOM     43  O   LIG A   1      -8.221  -2.816 123.753  0.00  0.00    -0.506 OA
ATOM     44  H   LIG A   1      -8.861  -3.541 123.691  0.00  0.00    +0.292 HD
ENDBRANCH  25  43
ENDBRANCH   3  22
BRANCH   4  45
ATOM     45  O   LIG A   1      -6.152  -3.223 130.106  0.00  0.00    -0.506 OA
ATOM     46  H   LIG A   1      -6.141  -3.760 130.915  0.00  0.00    +0.292 HD
ENDBRANCH   4  45
TORSDOF 9
ENDMDL
MODEL 6
REMARK VINA RESULT:      -9.1      2.655      5.372
REMARK  Name = NuBBE_198
REMARK  11 active torsions:
REMARK  status: ('A' for Active; 'I' for Inactive)
REMARK    1  A    between atoms: O_1  and  C_2
REMARK    2  A    between atoms: C_4  and  O_5
REMARK    3  A    between atoms: C_9  and  C_10
REMARK    4  A    between atoms: C_12  and  C_13
REMARK    5  A    between atoms: C_14  and  O_15
REMARK    6  A    between atoms: O_15  and  C_16
REMARK    7  A    between atoms: C_18  and  O_19
REMARK    8  A    between atoms: C_23  and  C_24
REMARK    9  A    between atoms: C_27  and  O_28
REMARK   10  A    between atoms: O_28  and  C_29
REMARK   11  A    between atoms: C_35  and  O_36
REMARK                            x       y       z     vdW  Elec       q    Type
REMARK                         _______ _______ _______ _____ _____    ______ ____
ROOT
ATOM      1  C   LIG A   1      -5.873   2.863 126.176  0.00  0.00    +0.018 A 
ATOM      2  C   LIG A   1      -6.279   3.265 127.494  0.00  0.00    +0.024 A 
ATOM      3  C   LIG A   1      -5.481   3.979 128.459  0.00  0.00    +0.031 A 
ATOM      4  C   LIG A   1      -4.191   4.266 127.962  0.00  0.00    +0.125 A 
ATOM      5  C   LIG A   1      -3.784   3.966 126.633  0.00  0.00    +0.046 A 
ATOM      6  C   LIG A   1      -4.613   3.276 125.749  0.00  0.00    +0.015 A 
ENDROOT
BRANCH   1  13
ATOM      7  C   LIG A   1      -7.722  -2.519 124.093  0.00  0.00    +0.124 A 
ATOM      8  C   LIG A   1      -8.802  -2.141 123.302  0.00  0.00    +0.091 A 
ATOM      9  C   LIG A   1      -9.103  -0.784 123.164  0.00  0.00    +0.135 A 
ATOM     10  C   LIG A   1      -8.327   0.187 123.814  0.00  0.00    +0.105 A 
ATOM     11  C   LIG A   1      -8.596   1.644 123.687  0.00  0.00    +0.197 A 
ATOM     12  C   LIG A   1      -7.735   2.527 124.506  0.00  0.00    +0.098 A 
ATOM     13  C   LIG A   1      -6.767   2.029 125.292  0.00  0.00    +0.139 A 
ATOM     14  O   LIG A   1      -6.482   0.664 125.339  0.00  0.00    -0.454 OA
ATOM     15  O   LIG A   1      -9.450   2.130 122.999  0.00  0.00    -0.287 OA
ATOM     16  C   LIG A   1      -7.265  -0.211 124.623  0.00  0.00    +0.146 A 
ATOM     17  C   LIG A   1      -6.954  -1.567 124.757  0.00  0.00    +0.092 A 
BRANCH   7  18
ATOM     18  O   LIG A   1      -7.383  -3.830 124.247  0.00  0.00    -0.506 OA
ATOM     19  H   LIG A   1      -7.940  -4.379 123.670  0.00  0.00    +0.292 HD
ENDBRANCH   7  18
BRANCH   9  20
ATOM     20  O   LIG A   1     -10.174  -0.424 122.393  0.00  0.00    -0.506 OA
ATOM     21  H   LIG A   1     -10.477  -1.168 121.850  0.00  0.00    +0.292 HD
ENDBRANCH   9  20
ENDBRANCH   1  13
BRANCH   3  22
ATOM     22  C   LIG A   1      -6.064   4.414 129.869  0.00  0.00    +0.070 A 
ATOM     23  C   LIG A   1      -5.981   5.716 130.489  0.00  0.00    +0.135 A 
ATOM     24  C   LIG A   1      -6.568   5.960 131.759  0.00  0.00    +0.092 A 
ATOM     25  C   LIG A   1      -7.212   5.010 132.504  0.00  0.00    +0.135 A 
ATOM     26  C   LIG A   1      -7.350   3.762 131.962  0.00  0.00    +0.106 A 
ATOM     27  C   LIG A   1      -6.784   3.454 130.694  0.00  0.00    +0.154 A 
ATOM     28  O   LIG A   1      -6.940   2.164 130.219  0.00  0.00    -0.454 OA
ATOM     29  C   LIG A   1      -7.601   1.211 130.976  0.00  0.00    +0.139 A 
ATOM     30  C   LIG A   1      -8.223   1.444 132.131  0.00  0.00    +0.098 A 
ATOM     31  C   LIG A   1      -8.143   2.768 132.718  0.00  0.00    +0.197 A 
ATOM     32  O   LIG A   1      -8.726   2.967 133.764  0.00  0.00    -0.287 OA
BRANCH  29  33
ATOM     33  C   LIG A   1      -7.658  -0.127 130.377  0.00  0.00    +0.018 A 
ATOM     34  C   LIG A   1      -7.602  -0.231 128.994  0.00  0.00    +0.015 A 
ATOM     35  C   LIG A   1      -7.686  -1.469 128.385  0.00  0.00    +0.046 A 
ATOM     36  C   LIG A   1      -7.824  -2.637 129.136  0.00  0.00    +0.120 A 
ATOM     37  C   LIG A   1      -7.862  -2.550 130.527  0.00  0.00    +0.046 A 
ATOM     38  C   LIG A   1      -7.771  -1.299 131.145  0.00  0.00    +0.015 A 
BRANCH  36  39
ATOM     39  O   LIG A   1      -7.925  -3.882 128.570  0.00  0.00    -0.495 OA
ATOM     40  C   LIG A   1      -8.991  -3.992 127.622  0.00  0.00    +0.277 C 
ENDBRANCH  36  39
ENDBRANCH  29  33
BRANCH  23  41
ATOM     41  O   LIG A   1      -5.398   6.822 129.899  0.00  0.00    -0.494 OA
ATOM     42  C   LIG A   1      -4.428   7.552 130.683  0.00  0.00    +0.277 C 
ENDBRANCH  23  41
BRANCH  25  43
ATOM     43  O   LIG A   1      -7.690   5.357 133.731  0.00  0.00    -0.506 OA
ATOM     44  H   LIG A   1      -7.258   6.157 134.068  0.00  0.00    +0.292 HD
ENDBRANCH  25  43
ENDBRANCH   3  22
BRANCH   4  45
ATOM     45  O   LIG A   1      -3.251   4.881 128.742  0.00  0.00    -0.506 OA
ATOM     46  H   LIG A   1      -3.622   5.707 129.090  0.00  0.00    +0.292 HD
ENDBRANCH   4  45
TORSDOF 9
ENDMDL
MODEL 7
REMARK VINA RESULT:      -9.1      3.082      5.769
REMARK  Name = NuBBE_198
REMARK  11 active torsions:
REMARK  status: ('A' for Active; 'I' for Inactive)
REMARK    1  A    between atoms: O_1  and  C_2
REMARK    2  A    between atoms: C_4  and  O_5
REMARK    3  A    between atoms: C_9  and  C_10
REMARK    4  A    between atoms: C_12  and  C_13
REMARK    5  A    between atoms: C_14  and  O_15
REMARK    6  A    between atoms: O_15  and  C_16
REMARK    7  A    between atoms: C_18  and  O_19
REMARK    8  A    between atoms: C_23  and  C_24
REMARK    9  A    between atoms: C_27  and  O_28
REMARK   10  A    between atoms: O_28  and  C_29
REMARK   11  A    between atoms: C_35  and  O_36
REMARK                            x       y       z     vdW  Elec       q    Type
REMARK                         _______ _______ _______ _____ _____    ______ ____
ROOT
ATOM      1  C   LIG A   1      -7.988   3.439 130.049  0.00  0.00    +0.018 A 
ATOM      2  C   LIG A   1      -8.154   2.078 129.616  0.00  0.00    +0.024 A 
ATOM      3  C   LIG A   1      -7.288   0.967 129.921  0.00  0.00    +0.031 A 
ATOM      4  C   LIG A   1      -6.201   1.358 130.732  0.00  0.00    +0.125 A 
ATOM      5  C   LIG A   1      -6.052   2.672 131.255  0.00  0.00    +0.046 A 
ATOM      6  C   LIG A   1      -6.934   3.700 130.922  0.00  0.00    +0.015 A 
ENDROOT
BRANCH   1  13
ATOM      7  C   LIG A   1     -12.470   7.384 131.078  0.00  0.00    +0.124 A 
ATOM      8  C   LIG A   1     -12.481   8.093 129.881  0.00  0.00    +0.091 A 
ATOM      9  C   LIG A   1     -11.605   7.717 128.859  0.00  0.00    +0.135 A 
ATOM     10  C   LIG A   1     -10.725   6.639 129.037  0.00  0.00    +0.105 A 
ATOM     11  C   LIG A   1      -9.785   6.190 127.976  0.00  0.00    +0.197 A 
ATOM     12  C   LIG A   1      -8.868   5.092 128.357  0.00  0.00    +0.098 A 
ATOM     13  C   LIG A   1      -8.909   4.537 129.580  0.00  0.00    +0.139 A 
ATOM     14  O   LIG A   1      -9.850   4.922 130.535  0.00  0.00    -0.454 OA
ATOM     15  O   LIG A   1      -9.714   6.659 126.874  0.00  0.00    -0.287 OA
ATOM     16  C   LIG A   1     -10.711   5.957 130.252  0.00  0.00    +0.146 A 
ATOM     17  C   LIG A   1     -11.591   6.323 131.273  0.00  0.00    +0.092 A 
BRANCH   7  18
ATOM     18  O   LIG A   1     -13.315   7.706 132.098  0.00  0.00    -0.506 OA
ATOM     19  H   LIG A   1     -12.852   7.606 132.946  0.00  0.00    +0.292 HD
ENDBRANCH   7  18
BRANCH   9  20
ATOM     20  O   LIG A   1     -11.615   8.428 127.691  0.00  0.00    -0.506 OA
ATOM     21  H   LIG A   1     -11.481   9.373 127.859  0.00  0.00    +0.292 HD
ENDBRANCH   9  20
ENDBRANCH   1  13
BRANCH   3  22
ATOM     22  C   LIG A   1      -7.610  -0.505 129.425  0.00  0.00    +0.070 A 
ATOM     23  C   LIG A   1      -7.947  -1.652 130.238  0.00  0.00    +0.135 A 
ATOM     24  C   LIG A   1      -8.225  -2.912 129.645  0.00  0.00    +0.092 A 
ATOM     25  C   LIG A   1      -8.167  -3.159 128.300  0.00  0.00    +0.135 A 
ATOM     26  C   LIG A   1      -7.882  -2.109 127.471  0.00  0.00    +0.106 A 
ATOM     27  C   LIG A   1      -7.593  -0.821 128.003  0.00  0.00    +0.154 A 
ATOM     28  O   LIG A   1      -7.287   0.188 127.108  0.00  0.00    -0.454 OA
ATOM     29  C   LIG A   1      -7.240  -0.070 125.748  0.00  0.00    +0.139 A 
ATOM     30  C   LIG A   1      -7.574  -1.224 125.173  0.00  0.00    +0.098 A 
ATOM     31  C   LIG A   1      -7.931  -2.352 126.013  0.00  0.00    +0.197 A 
ATOM     32  O   LIG A   1      -8.244  -3.392 125.474  0.00  0.00    -0.287 OA
BRANCH  29  33
ATOM     33  C   LIG A   1      -6.861   1.075 124.913  0.00  0.00    +0.018 A 
ATOM     34  C   LIG A   1      -6.186   2.130 125.511  0.00  0.00    +0.015 A 
ATOM     35  C   LIG A   1      -5.839   3.244 124.770  0.00  0.00    +0.046 A 
ATOM     36  C   LIG A   1      -6.150   3.336 123.413  0.00  0.00    +0.120 A 
ATOM     37  C   LIG A   1      -6.810   2.276 122.793  0.00  0.00    +0.046 A 
ATOM     38  C   LIG A   1      -7.157   1.145 123.540  0.00  0.00    +0.015 A 
BRANCH  36  39
ATOM     39  O   LIG A   1      -5.837   4.430 122.646  0.00  0.00    -0.495 OA
ATOM     40  C   LIG A   1      -5.695   4.129 121.255  0.00  0.00    +0.277 C 
ENDBRANCH  36  39
ENDBRANCH  29  33
BRANCH  23  41
ATOM     41  O   LIG A   1      -8.083  -1.616 131.613  0.00  0.00    -0.494 OA
ATOM     42  C   LIG A   1      -7.096  -2.326 132.392  0.00  0.00    +0.277 C 
ENDBRANCH  23  41
BRANCH  25  43
ATOM     43  O   LIG A   1      -8.408  -4.425 127.859  0.00  0.00    -0.506 OA
ATOM     44  H   LIG A   1      -7.920  -4.617 127.044  0.00  0.00    +0.292 HD
ENDBRANCH  25  43
ENDBRANCH   3  22
BRANCH   4  45
ATOM     45  O   LIG A   1      -5.222   0.469 131.084  0.00  0.00    -0.506 OA
ATOM     46  H   LIG A   1      -4.817   0.760 131.916  0.00  0.00    +0.292 HD
ENDBRANCH   4  45
TORSDOF 9
ENDMDL
MODEL 8
REMARK VINA RESULT:      -9.0      3.014      4.642
REMARK  Name = NuBBE_198
REMARK  11 active torsions:
REMARK  status: ('A' for Active; 'I' for Inactive)
REMARK    1  A    between atoms: O_1  and  C_2
REMARK    2  A    between atoms: C_4  and  O_5
REMARK    3  A    between atoms: C_9  and  C_10
REMARK    4  A    between atoms: C_12  and  C_13
REMARK    5  A    between atoms: C_14  and  O_15
REMARK    6  A    between atoms: O_15  and  C_16
REMARK    7  A    between atoms: C_18  and  O_19
REMARK    8  A    between atoms: C_23  and  C_24
REMARK    9  A    between atoms: C_27  and  O_28
REMARK   10  A    between atoms: O_28  and  C_29
REMARK   11  A    between atoms: C_35  and  O_36
REMARK                            x       y       z     vdW  Elec       q    Type
REMARK                         _______ _______ _______ _____ _____    ______ ____
ROOT
ATOM      1  C   LIG A   1      -7.212   4.005 129.912  0.00  0.00    +0.018 A 
ATOM      2  C   LIG A   1      -6.897   2.910 130.787  0.00  0.00    +0.024 A 
ATOM      3  C   LIG A   1      -5.872   1.917 130.587  0.00  0.00    +0.031 A 
ATOM      4  C   LIG A   1      -5.162   2.131 129.385  0.00  0.00    +0.125 A 
ATOM      5  C   LIG A   1      -5.383   3.253 128.541  0.00  0.00    +0.046 A 
ATOM      6  C   LIG A   1      -6.391   4.181 128.799  0.00  0.00    +0.015 A 
ENDROOT
BRANCH   1  13
ATOM      7  C   LIG A   1     -11.593   7.705 127.953  0.00  0.00    +0.124 A 
ATOM      8  C   LIG A   1     -12.263   7.977 129.141  0.00  0.00    +0.091 A 
ATOM      9  C   LIG A   1     -11.775   7.440 130.336  0.00  0.00    +0.135 A 
ATOM     10  C   LIG A   1     -10.625   6.637 130.338  0.00  0.00    +0.105 A 
ATOM     11  C   LIG A   1     -10.057   6.056 131.583  0.00  0.00    +0.197 A 
ATOM     12  C   LIG A   1      -8.889   5.164 131.399  0.00  0.00    +0.098 A 
ATOM     13  C   LIG A   1      -8.378   4.924 130.180  0.00  0.00    +0.139 A 
ATOM     14  O   LIG A   1      -8.879   5.539 129.033  0.00  0.00    -0.454 OA
ATOM     15  O   LIG A   1     -10.484   6.243 132.689  0.00  0.00    -0.287 OA
ATOM     16  C   LIG A   1      -9.981   6.356 129.135  0.00  0.00    +0.146 A 
ATOM     17  C   LIG A   1     -10.459   6.898 127.939  0.00  0.00    +0.092 A 
BRANCH   7  18
ATOM     18  O   LIG A   1     -12.023   8.218 126.765  0.00  0.00    -0.506 OA
ATOM     19  H   LIG A   1     -11.992   7.525 126.084  0.00  0.00    +0.292 HD
ENDBRANCH   7  18
BRANCH   9  20
ATOM     20  O   LIG A   1     -12.448   7.703 131.496  0.00  0.00    -0.506 OA
ATOM     21  H   LIG A   1     -11.843   8.014 132.187  0.00  0.00    +0.292 HD
ENDBRANCH   9  20
ENDBRANCH   1  13
BRANCH   3  22
ATOM     22  C   LIG A   1      -5.586   0.782 131.659  0.00  0.00    +0.070 A 
ATOM     23  C   LIG A   1      -4.907   0.923 132.927  0.00  0.00    +0.135 A 
ATOM     24  C   LIG A   1      -4.737  -0.189 133.793  0.00  0.00    +0.092 A 
ATOM     25  C   LIG A   1      -5.153  -1.460 133.504  0.00  0.00    +0.135 A 
ATOM     26  C   LIG A   1      -5.830  -1.657 132.331  0.00  0.00    +0.106 A 
ATOM     27  C   LIG A   1      -6.031  -0.583 131.419  0.00  0.00    +0.154 A 
ATOM     28  O   LIG A   1      -6.700  -0.860 130.241  0.00  0.00    -0.454 OA
ATOM     29  C   LIG A   1      -7.127  -2.148 129.961  0.00  0.00    +0.139 A 
ATOM     30  C   LIG A   1      -7.044  -3.183 130.795  0.00  0.00    +0.098 A 
ATOM     31  C   LIG A   1      -6.378  -3.006 132.072  0.00  0.00    +0.197 A 
ATOM     32  O   LIG A   1      -6.322  -3.955 132.825  0.00  0.00    -0.287 OA
BRANCH  29  33
ATOM     33  C   LIG A   1      -7.783  -2.314 128.659  0.00  0.00    +0.018 A 
ATOM     34  C   LIG A   1      -7.734  -1.260 127.758  0.00  0.00    +0.015 A 
ATOM     35  C   LIG A   1      -8.367  -1.360 126.534  0.00  0.00    +0.046 A 
ATOM     36  C   LIG A   1      -9.063  -2.514 126.171  0.00  0.00    +0.120 A 
ATOM     37  C   LIG A   1      -9.105  -3.589 127.057  0.00  0.00    +0.046 A 
ATOM     38  C   LIG A   1      -8.460  -3.492 128.295  0.00  0.00    +0.015 A 
BRANCH  36  39
ATOM     39  O   LIG A   1      -9.716  -2.647 124.972  0.00  0.00    -0.495 OA
ATOM     40  C   LIG A   1      -8.985  -3.405 124.005  0.00  0.00    +0.277 C 
ENDBRANCH  36  39
ENDBRANCH  29  33
BRANCH  23  41
ATOM     41  O   LIG A   1      -4.429   2.122 133.423  0.00  0.00    -0.494 OA
ATOM     42  C   LIG A   1      -3.065   2.471 133.102  0.00  0.00    +0.277 C 
ENDBRANCH  23  41
BRANCH  25  43
ATOM     43  O   LIG A   1      -4.888  -2.453 134.397  0.00  0.00    -0.506 OA
ATOM     44  H   LIG A   1      -4.874  -2.118 135.307  0.00  0.00    +0.292 HD
ENDBRANCH  25  43
ENDBRANCH   3  22
BRANCH   4  45
ATOM     45  O   LIG A   1      -4.190   1.263 128.972  0.00  0.00    -0.506 OA
ATOM     46  H   LIG A   1      -4.555   0.364 128.959  0.00  0.00    +0.292 HD
ENDBRANCH   4  45
TORSDOF 9
ENDMDL
MODEL 9
REMARK VINA RESULT:      -8.9      3.237      5.312
REMARK  Name = NuBBE_198
REMARK  11 active torsions:
REMARK  status: ('A' for Active; 'I' for Inactive)
REMARK    1  A    between atoms: O_1  and  C_2
REMARK    2  A    between atoms: C_4  and  O_5
REMARK    3  A    between atoms: C_9  and  C_10
REMARK    4  A    between atoms: C_12  and  C_13
REMARK    5  A    between atoms: C_14  and  O_15
REMARK    6  A    between atoms: O_15  and  C_16
REMARK    7  A    between atoms: C_18  and  O_19
REMARK    8  A    between atoms: C_23  and  C_24
REMARK    9  A    between atoms: C_27  and  O_28
REMARK   10  A    between atoms: O_28  and  C_29
REMARK   11  A    between atoms: C_35  and  O_36
REMARK                            x       y       z     vdW  Elec       q    Type
REMARK                         _______ _______ _______ _____ _____    ______ ____
ROOT
ATOM      1  C   LIG A   1      -7.228   4.354 130.084  0.00  0.00    +0.018 A 
ATOM      2  C   LIG A   1      -7.285   2.922 130.185  0.00  0.00    +0.024 A 
ATOM      3  C   LIG A   1      -6.215   1.997 129.904  0.00  0.00    +0.031 A 
ATOM      4  C   LIG A   1      -5.038   2.665 129.499  0.00  0.00    +0.125 A 
ATOM      5  C   LIG A   1      -4.916   4.081 129.476  0.00  0.00    +0.046 A 
ATOM      6  C   LIG A   1      -5.993   4.917 129.766  0.00  0.00    +0.015 A 
ENDROOT
BRANCH   1  13
ATOM      7  C   LIG A   1     -11.776   7.747 127.958  0.00  0.00    +0.124 A 
ATOM      8  C   LIG A   1     -12.479   8.013 129.128  0.00  0.00    +0.091 A 
ATOM      9  C   LIG A   1     -11.982   7.537 130.344  0.00  0.00    +0.135 A 
ATOM     10  C   LIG A   1     -10.789   6.801 130.386  0.00  0.00    +0.105 A 
ATOM     11  C   LIG A   1     -10.210   6.286 131.655  0.00  0.00    +0.197 A 
ATOM     12  C   LIG A   1      -8.991   5.457 131.513  0.00  0.00    +0.098 A 
ATOM     13  C   LIG A   1      -8.447   5.213 130.309  0.00  0.00    +0.139 A 
ATOM     14  O   LIG A   1      -8.963   5.767 129.138  0.00  0.00    -0.454 OA
ATOM     15  O   LIG A   1     -10.664   6.479 132.748  0.00  0.00    -0.287 OA
ATOM     16  C   LIG A   1     -10.111   6.523 129.201  0.00  0.00    +0.146 A 
ATOM     17  C   LIG A   1     -10.599   7.004 127.983  0.00  0.00    +0.092 A 
BRANCH   7  18
ATOM     18  O   LIG A   1     -12.215   8.202 126.750  0.00  0.00    -0.506 OA
ATOM     19  H   LIG A   1     -11.480   8.631 126.280  0.00  0.00    +0.292 HD
ENDBRANCH   7  18
BRANCH   9  20
ATOM     20  O   LIG A   1     -12.687   7.793 131.487  0.00  0.00    -0.506 OA
ATOM     21  H   LIG A   1     -13.616   7.987 131.286  0.00  0.00    +0.292 HD
ENDBRANCH   9  20
ENDBRANCH   1  13
BRANCH   3  22
ATOM     22  C   LIG A   1      -6.388   0.432 130.104  0.00  0.00    +0.070 A 
ATOM     23  C   LIG A   1      -6.020  -0.350 131.263  0.00  0.00    +0.135 A 
ATOM     24  C   LIG A   1      -6.250  -1.750 131.303  0.00  0.00    +0.092 A 
ATOM     25  C   LIG A   1      -6.788  -2.471 130.271  0.00  0.00    +0.135 A 
ATOM     26  C   LIG A   1      -7.185  -1.787 129.155  0.00  0.00    +0.106 A 
ATOM     27  C   LIG A   1      -6.981  -0.382 129.053  0.00  0.00    +0.154 A 
ATOM     28  O   LIG A   1      -7.383   0.241 127.886  0.00  0.00    -0.454 OA
ATOM     29  C   LIG A   1      -7.936  -0.496 126.850  0.00  0.00    +0.139 A 
ATOM     30  C   LIG A   1      -8.229  -1.794 126.903  0.00  0.00    +0.098 A 
ATOM     31  C   LIG A   1      -7.870  -2.549 128.089  0.00  0.00    +0.197 A 
ATOM     32  O   LIG A   1      -8.155  -3.728 128.125  0.00  0.00    -0.287 OA
BRANCH  29  33
ATOM     33  C   LIG A   1      -8.277   0.279 125.652  0.00  0.00    +0.018 A 
ATOM     34  C   LIG A   1      -9.580   0.737 125.514  0.00  0.00    +0.015 A 
ATOM     35  C   LIG A   1      -9.955   1.441 124.386  0.00  0.00    +0.046 A 
ATOM     36  C   LIG A   1      -9.041   1.714 123.367  0.00  0.00    +0.120 A 
ATOM     37  C   LIG A   1      -7.723   1.279 123.500  0.00  0.00    +0.046 A 
ATOM     38  C   LIG A   1      -7.341   0.570 124.644  0.00  0.00    +0.015 A 
BRANCH  36  39
ATOM     39  O   LIG A   1      -9.376   2.398 122.225  0.00  0.00    -0.495 OA
ATOM     40  C   LIG A   1      -8.360   3.301 121.783  0.00  0.00    +0.277 C 
ENDBRANCH  36  39
ENDBRANCH  29  33
BRANCH  23  41
ATOM     41  O   LIG A   1      -5.485   0.182 132.421  0.00  0.00    -0.494 OA
ATOM     42  C   LIG A   1      -6.414   0.705 133.396  0.00  0.00    +0.277 C 
ENDBRANCH  23  41
BRANCH  25  43
ATOM     43  O   LIG A   1      -6.914  -3.820 130.414  0.00  0.00    -0.506 OA
ATOM     44  H   LIG A   1      -6.949  -4.077 131.347  0.00  0.00    +0.292 HD
ENDBRANCH  25  43
ENDBRANCH   3  22
BRANCH   4  45
ATOM     45  O   LIG A   1      -3.923   1.969 129.121  0.00  0.00    -0.506 OA
ATOM     46  H   LIG A   1      -3.373   2.538 128.559  0.00  0.00    +0.292 HD
ENDBRANCH   4  45
TORSDOF 9
ENDMDL
