MODEL 1
REMARK VINA RESULT:      -8.9      0.000      0.000
REMARK  Name = NuBBE_1707
REMARK  10 active torsions:
REMARK  status: ('A' for Active; 'I' for Inactive)
REMARK    1  A    between atoms: C_1  and  O_2
REMARK    2  A    between atoms: C_1  and  C_3
REMARK    3  A    between atoms: C_8  and  C_11
REMARK    4  A    between atoms: C_12  and  C_13
REMARK    5  A    between atoms: C_18  and  C_19
REMARK    6  A    between atoms: C_24  and  C_25
REMARK    7  A    between atoms: C_24  and  C_26
REMARK    8  A    between atoms: C_27  and  O_31
REMARK    9  A    between atoms: C_32  and  C_36
REMARK   10  A    between atoms: C_36  and  C_38
REMARK                            x       y       z     vdW  Elec       q    Type
REMARK                         _______ _______ _______ _____ _____    ______ ____
ROOT
ATOM      1  C   LIG A   1      -8.392  -3.358 126.298  0.00  0.00    -0.002 C 
ATOM      2  C   LIG A   1      -7.312  -2.234 126.467  0.00  0.00    +0.008 C 
ATOM      3  C   LIG A   1      -6.495  -2.488 127.774  0.00  0.00    -0.000 C 
ATOM      4  C   LIG A   1      -7.418  -2.389 129.061  0.00  0.00    -0.023 C 
ATOM      5  C   LIG A   1      -8.760  -3.160 128.808  0.00  0.00    +0.008 C 
ATOM      6  C   LIG A   1      -8.704  -4.108 127.613  0.00  0.00    +0.010 C 
ATOM      7  C   LIG A   1      -7.855  -0.907 129.302  0.00  0.00    +0.012 C 
ATOM      8  C   LIG A   1      -6.590  -2.959 130.340  0.00  0.00    -0.023 C 
ATOM      9  C   LIG A   1      -6.351  -4.484 130.145  0.00  0.00    +0.012 C 
ATOM     10  C   LIG A   1      -5.231  -2.155 130.491  0.00  0.00    +0.002 C 
ATOM     11  C   LIG A   1      -4.417  -2.134 129.176  0.00  0.00    +0.005 C 
ATOM     12  C   LIG A   1      -5.224  -1.653 127.963  0.00  0.00    +0.005 C 
ATOM     13  C   LIG A   1      -4.375  -2.475 131.803  0.00  0.00    -0.025 C 
ATOM     14  C   LIG A   1      -3.750  -3.890 131.753  0.00  0.00    +0.012 C 
ATOM     15  C   LIG A   1      -5.322  -2.242 133.043  0.00  0.00    +0.003 C 
ATOM     16  C   LIG A   1      -6.600  -3.098 132.941  0.00  0.00    +0.005 C 
ATOM     17  C   LIG A   1      -7.390  -2.787 131.664  0.00  0.00    +0.008 C 
ATOM     18  C   LIG A   1      -4.632  -2.255 134.461  0.00  0.00    -0.006 C 
ATOM     19  C   LIG A   1      -5.639  -1.748 135.532  0.00  0.00    +0.014 C 
ATOM     20  C   LIG A   1      -4.190  -3.657 134.926  0.00  0.00    +0.014 C 
ATOM     21  C   LIG A   1      -3.433  -1.260 134.437  0.00  0.00    +0.120 C 
ATOM     22  C   LIG A   1      -2.484  -1.469 133.263  0.00  0.00    +0.032 C 
ATOM     23  C   LIG A   1      -3.201  -1.453 131.914  0.00  0.00    +0.010 C 
ATOM     24  C   LIG A   1      -6.492  -2.253 125.133  0.00  0.00    +0.018 C 
ATOM     25  C   LIG A   1      -7.009  -3.454 124.314  0.00  0.00    +0.009 C 
ATOM     26  C   LIG A   1      -7.728  -4.339 125.313  0.00  0.00    +0.010 C 
ENDROOT
BRANCH  24  27
ATOM     27  C   LIG A   1      -6.522  -0.905 124.409  0.00  0.00    -0.076 C 
ATOM     28  C   LIG A   1      -6.444   0.300 125.006  0.00  0.00    +0.007 C 
ATOM     29  C   LIG A   1      -6.655  -0.969 122.910  0.00  0.00    +0.038 C 
ENDBRANCH  24  27
BRANCH  21  30
ATOM     30  O   LIG A   1      -2.650  -1.344 135.628  0.00  0.00    -0.391 OA
ATOM     31  H   LIG A   1      -1.872  -0.772 135.518  0.00  0.00    +0.210 HD
ENDBRANCH  21  30
BRANCH   1  32
ATOM     32  C   LIG A   1      -9.684  -2.747 125.693  0.00  0.00    +0.163 C 
BRANCH  32  33
ATOM     33  O   LIG A   1      -9.694  -1.327 125.773  0.00  0.00    -0.395 OA
ATOM     34  H   LIG A   1      -9.056  -1.068 126.460  0.00  0.00    +0.209 HD
ENDBRANCH  32  33
ENDBRANCH   1  32
TORSDOF 4
ENDMDL
MODEL 2
REMARK VINA RESULT:      -8.7      4.235      7.217
REMARK  Name = NuBBE_1707
REMARK  10 active torsions:
REMARK  status: ('A' for Active; 'I' for Inactive)
REMARK    1  A    between atoms: C_1  and  O_2
REMARK    2  A    between atoms: C_1  and  C_3
REMARK    3  A    between atoms: C_8  and  C_11
REMARK    4  A    between atoms: C_12  and  C_13
REMARK    5  A    between atoms: C_18  and  C_19
REMARK    6  A    between atoms: C_24  and  C_25
REMARK    7  A    between atoms: C_24  and  C_26
REMARK    8  A    between atoms: C_27  and  O_31
REMARK    9  A    between atoms: C_32  and  C_36
REMARK   10  A    between atoms: C_36  and  C_38
REMARK                            x       y       z     vdW  Elec       q    Type
REMARK                         _______ _______ _______ _____ _____    ______ ____
ROOT
ATOM      1  C   LIG A   1      -4.933  -3.060 129.833  0.00  0.00    -0.002 C 
ATOM      2  C   LIG A   1      -4.762  -2.443 131.264  0.00  0.00    +0.008 C 
ATOM      3  C   LIG A   1      -5.836  -1.330 131.485  0.00  0.00    -0.000 C 
ATOM      4  C   LIG A   1      -5.634  -0.123 130.474  0.00  0.00    -0.023 C 
ATOM      5  C   LIG A   1      -5.362  -0.682 129.034  0.00  0.00    +0.008 C 
ATOM      6  C   LIG A   1      -5.733  -2.153 128.869  0.00  0.00    +0.010 C 
ATOM      7  C   LIG A   1      -4.340   0.677 130.836  0.00  0.00    +0.012 C 
ATOM      8  C   LIG A   1      -6.943   0.839 130.545  0.00  0.00    -0.023 C 
ATOM      9  C   LIG A   1      -8.169   0.061 129.987  0.00  0.00    +0.012 C 
ATOM     10  C   LIG A   1      -7.168   1.318 132.041  0.00  0.00    +0.002 C 
ATOM     11  C   LIG A   1      -7.208   0.132 133.032  0.00  0.00    +0.005 C 
ATOM     12  C   LIG A   1      -5.998  -0.806 132.916  0.00  0.00    +0.005 C 
ATOM     13  C   LIG A   1      -8.315   2.410 132.257  0.00  0.00    -0.025 C 
ATOM     14  C   LIG A   1      -9.727   1.815 132.037  0.00  0.00    +0.012 C 
ATOM     15  C   LIG A   1      -7.984   3.626 131.308  0.00  0.00    +0.003 C 
ATOM     16  C   LIG A   1      -7.860   3.173 129.839  0.00  0.00    +0.005 C 
ATOM     17  C   LIG A   1      -6.768   2.110 129.664  0.00  0.00    +0.008 C 
ATOM     18  C   LIG A   1      -8.837   4.934 131.524  0.00  0.00    -0.006 C 
ATOM     19  C   LIG A   1      -8.212   6.102 130.710  0.00  0.00    +0.014 C 
ATOM     20  C   LIG A   1     -10.296   4.814 131.039  0.00  0.00    +0.014 C 
ATOM     21  C   LIG A   1      -8.770   5.324 133.031  0.00  0.00    +0.120 C 
ATOM     22  C   LIG A   1      -9.106   4.179 133.979  0.00  0.00    +0.032 C 
ATOM     23  C   LIG A   1      -8.256   2.935 133.725  0.00  0.00    +0.010 C 
ATOM     24  C   LIG A   1      -4.829  -3.662 132.245  0.00  0.00    +0.018 C 
ATOM     25  C   LIG A   1      -5.180  -4.898 131.389  0.00  0.00    +0.009 C 
ATOM     26  C   LIG A   1      -5.747  -4.341 130.097  0.00  0.00    +0.010 C 
ENDROOT
BRANCH  24  27
ATOM     27  C   LIG A   1      -3.568  -3.795 133.100  0.00  0.00    -0.076 C 
ATOM     28  C   LIG A   1      -3.035  -4.956 133.526  0.00  0.00    +0.007 C 
ATOM     29  C   LIG A   1      -2.898  -2.501 133.483  0.00  0.00    +0.038 C 
ENDBRANCH  24  27
BRANCH  21  30
ATOM     30  O   LIG A   1      -9.660   6.398 133.341  0.00  0.00    -0.391 OA
ATOM     31  H   LIG A   1      -9.196   7.011 133.935  0.00  0.00    +0.210 HD
ENDBRANCH  21  30
BRANCH   1  32
ATOM     32  C   LIG A   1      -3.538  -3.394 129.244  0.00  0.00    +0.163 C 
BRANCH  32  33
ATOM     33  O   LIG A   1      -2.526  -2.523 129.732  0.00  0.00    -0.395 OA
ATOM     34  H   LIG A   1      -2.729  -1.628 129.408  0.00  0.00    +0.209 HD
ENDBRANCH  32  33
ENDBRANCH   1  32
TORSDOF 4
ENDMDL
MODEL 3
REMARK VINA RESULT:      -8.7      1.900      2.860
REMARK  Name = NuBBE_1707
REMARK  10 active torsions:
REMARK  status: ('A' for Active; 'I' for Inactive)
REMARK    1  A    between atoms: C_1  and  O_2
REMARK    2  A    between atoms: C_1  and  C_3
REMARK    3  A    between atoms: C_8  and  C_11
REMARK    4  A    between atoms: C_12  and  C_13
REMARK    5  A    between atoms: C_18  and  C_19
REMARK    6  A    between atoms: C_24  and  C_25
REMARK    7  A    between atoms: C_24  and  C_26
REMARK    8  A    between atoms: C_27  and  O_31
REMARK    9  A    between atoms: C_32  and  C_36
REMARK   10  A    between atoms: C_36  and  C_38
REMARK                            x       y       z     vdW  Elec       q    Type
REMARK                         _______ _______ _______ _____ _____    ______ ____
ROOT
ATOM      1  C   LIG A   1      -8.352  -1.435 125.153  0.00  0.00    -0.002 C 
ATOM      2  C   LIG A   1      -6.855  -1.845 125.377  0.00  0.00    +0.008 C 
ATOM      3  C   LIG A   1      -6.523  -1.795 126.903  0.00  0.00    -0.000 C 
ATOM      4  C   LIG A   1      -6.651  -0.321 127.474  0.00  0.00    -0.023 C 
ATOM      5  C   LIG A   1      -7.964   0.343 126.932  0.00  0.00    +0.008 C 
ATOM      6  C   LIG A   1      -8.956  -0.656 126.344  0.00  0.00    +0.010 C 
ATOM      7  C   LIG A   1      -5.498   0.579 126.920  0.00  0.00    +0.012 C 
ATOM      8  C   LIG A   1      -6.598  -0.386 129.099  0.00  0.00    -0.023 C 
ATOM      9  C   LIG A   1      -7.870  -1.118 129.614  0.00  0.00    +0.012 C 
ATOM     10  C   LIG A   1      -5.263  -1.111 129.556  0.00  0.00    +0.002 C 
ATOM     11  C   LIG A   1      -5.081  -2.484 128.867  0.00  0.00    +0.005 C 
ATOM     12  C   LIG A   1      -5.195  -2.423 127.338  0.00  0.00    +0.005 C 
ATOM     13  C   LIG A   1      -4.972  -1.107 131.128  0.00  0.00    -0.025 C 
ATOM     14  C   LIG A   1      -5.955  -2.021 131.898  0.00  0.00    +0.012 C 
ATOM     15  C   LIG A   1      -4.999   0.397 131.601  0.00  0.00    +0.003 C 
ATOM     16  C   LIG A   1      -6.336   1.074 131.240  0.00  0.00    +0.005 C 
ATOM     17  C   LIG A   1      -6.602   1.037 129.730  0.00  0.00    +0.008 C 
ATOM     18  C   LIG A   1      -4.494   0.678 133.068  0.00  0.00    -0.006 C 
ATOM     19  C   LIG A   1      -4.331   2.210 133.277  0.00  0.00    +0.014 C 
ATOM     20  C   LIG A   1      -5.469   0.203 134.164  0.00  0.00    +0.014 C 
ATOM     21  C   LIG A   1      -3.087   0.029 133.239  0.00  0.00    +0.120 C 
ATOM     22  C   LIG A   1      -3.028  -1.432 132.811  0.00  0.00    +0.032 C 
ATOM     23  C   LIG A   1      -3.533  -1.651 131.386  0.00  0.00    +0.010 C 
ATOM     24  C   LIG A   1      -6.708  -3.245 124.690  0.00  0.00    +0.018 C 
ATOM     25  C   LIG A   1      -8.122  -3.663 124.233  0.00  0.00    +0.009 C 
ATOM     26  C   LIG A   1      -9.073  -2.791 125.030  0.00  0.00    +0.010 C 
ENDROOT
BRANCH  24  27
ATOM     27  C   LIG A   1      -5.638  -3.251 123.598  0.00  0.00    -0.076 C 
ATOM     28  C   LIG A   1      -5.636  -2.461 122.506  0.00  0.00    +0.007 C 
ATOM     29  C   LIG A   1      -4.513  -4.234 123.788  0.00  0.00    +0.038 C 
ENDBRANCH  24  27
BRANCH  21  30
ATOM     30  O   LIG A   1      -2.638   0.087 134.593  0.00  0.00    -0.391 OA
ATOM     31  H   LIG A   1      -3.282  -0.386 135.145  0.00  0.00    +0.210 HD
ENDBRANCH  21  30
BRANCH   1  32
ATOM     32  C   LIG A   1      -8.473  -0.616 123.841  0.00  0.00    +0.163 C 
BRANCH  32  33
ATOM     33  O   LIG A   1      -9.763  -0.730 123.254  0.00  0.00    -0.395 OA
ATOM     34  H   LIG A   1     -10.290   0.028 123.559  0.00  0.00    +0.209 HD
ENDBRANCH  32  33
ENDBRANCH   1  32
TORSDOF 4
ENDMDL
MODEL 4
REMARK VINA RESULT:      -8.4      1.551      8.268
REMARK  Name = NuBBE_1707
REMARK  10 active torsions:
REMARK  status: ('A' for Active; 'I' for Inactive)
REMARK    1  A    between atoms: C_1  and  O_2
REMARK    2  A    between atoms: C_1  and  C_3
REMARK    3  A    between atoms: C_8  and  C_11
REMARK    4  A    between atoms: C_12  and  C_13
REMARK    5  A    between atoms: C_18  and  C_19
REMARK    6  A    between atoms: C_24  and  C_25
REMARK    7  A    between atoms: C_24  and  C_26
REMARK    8  A    between atoms: C_27  and  O_31
REMARK    9  A    between atoms: C_32  and  C_36
REMARK   10  A    between atoms: C_36  and  C_38
REMARK                            x       y       z     vdW  Elec       q    Type
REMARK                         _______ _______ _______ _____ _____    ______ ____
ROOT
ATOM      1  C   LIG A   1      -4.333  -2.629 132.210  0.00  0.00    -0.002 C 
ATOM      2  C   LIG A   1      -5.877  -2.787 131.989  0.00  0.00    +0.008 C 
ATOM      3  C   LIG A   1      -6.188  -2.791 130.458  0.00  0.00    -0.000 C 
ATOM      4  C   LIG A   1      -5.802  -1.406 129.787  0.00  0.00    -0.023 C 
ATOM      5  C   LIG A   1      -4.395  -0.944 130.304  0.00  0.00    +0.008 C 
ATOM      6  C   LIG A   1      -3.596  -2.055 130.977  0.00  0.00    +0.010 C 
ATOM      7  C   LIG A   1      -6.782  -0.282 130.257  0.00  0.00    +0.012 C 
ATOM      8  C   LIG A   1      -5.858  -1.578 128.170  0.00  0.00    -0.023 C 
ATOM      9  C   LIG A   1      -4.731  -2.556 127.730  0.00  0.00    +0.012 C 
ATOM     10  C   LIG A   1      -7.297  -2.091 127.742  0.00  0.00    +0.002 C 
ATOM     11  C   LIG A   1      -7.719  -3.357 128.523  0.00  0.00    +0.005 C 
ATOM     12  C   LIG A   1      -7.604  -3.207 130.046  0.00  0.00    +0.005 C 
ATOM     13  C   LIG A   1      -7.576  -2.149 126.169  0.00  0.00    -0.025 C 
ATOM     14  C   LIG A   1      -6.764  -3.274 125.482  0.00  0.00    +0.012 C 
ATOM     15  C   LIG A   1      -7.283  -0.711 125.592  0.00  0.00    +0.003 C 
ATOM     16  C   LIG A   1      -5.850  -0.253 125.927  0.00  0.00    +0.005 C 
ATOM     17  C   LIG A   1      -5.602  -0.226 127.441  0.00  0.00    +0.008 C 
ATOM     18  C   LIG A   1      -7.725  -0.453 124.101  0.00  0.00    -0.006 C 
ATOM     19  C   LIG A   1      -7.616   1.065 123.782  0.00  0.00    +0.014 C 
ATOM     20  C   LIG A   1      -6.843  -1.168 123.057  0.00  0.00    +0.014 C 
ATOM     21  C   LIG A   1      -9.223  -0.857 123.952  0.00  0.00    +0.120 C 
ATOM     22  C   LIG A   1      -9.539  -2.251 124.480  0.00  0.00    +0.032 C 
ATOM     23  C   LIG A   1      -9.087  -2.451 125.925  0.00  0.00    +0.010 C 
ATOM     24  C   LIG A   1      -6.270  -4.087 132.770  0.00  0.00    +0.018 C 
ATOM     25  C   LIG A   1      -4.954  -4.710 133.279  0.00  0.00    +0.009 C 
ATOM     26  C   LIG A   1      -3.861  -4.078 132.440  0.00  0.00    +0.010 C 
ENDROOT
BRANCH  24  27
ATOM     27  C   LIG A   1      -7.330  -3.827 133.842  0.00  0.00    -0.076 C 
ATOM     28  C   LIG A   1      -8.203  -2.802 133.840  0.00  0.00    +0.007 C 
ATOM     29  C   LIG A   1      -7.368  -4.815 134.979  0.00  0.00    +0.038 C 
ENDBRANCH  24  27
BRANCH  21  30
ATOM     30  O   LIG A   1      -9.649  -0.819 122.589  0.00  0.00    -0.391 OA
ATOM     31  H   LIG A   1     -10.468  -1.337 122.516  0.00  0.00    +0.210 HD
ENDBRANCH  21  30
BRANCH   1  32
ATOM     32  C   LIG A   1      -4.077  -1.751 133.462  0.00  0.00    +0.163 C 
BRANCH  32  33
ATOM     33  O   LIG A   1      -5.178  -0.901 133.757  0.00  0.00    -0.395 OA
ATOM     34  H   LIG A   1      -5.812  -1.416 134.285  0.00  0.00    +0.209 HD
ENDBRANCH  32  33
ENDBRANCH   1  32
TORSDOF 4
ENDMDL
MODEL 5
REMARK VINA RESULT:      -8.3      1.600      8.003
REMARK  Name = NuBBE_1707
REMARK  10 active torsions:
REMARK  status: ('A' for Active; 'I' for Inactive)
REMARK    1  A    between atoms: C_1  and  O_2
REMARK    2  A    between atoms: C_1  and  C_3
REMARK    3  A    between atoms: C_8  and  C_11
REMARK    4  A    between atoms: C_12  and  C_13
REMARK    5  A    between atoms: C_18  and  C_19
REMARK    6  A    between atoms: C_24  and  C_25
REMARK    7  A    between atoms: C_24  and  C_26
REMARK    8  A    between atoms: C_27  and  O_31
REMARK    9  A    between atoms: C_32  and  C_36
REMARK   10  A    between atoms: C_36  and  C_38
REMARK                            x       y       z     vdW  Elec       q    Type
REMARK                         _______ _______ _______ _____ _____    ______ ____
ROOT
ATOM      1  C   LIG A   1      -6.116  -2.282 134.027  0.00  0.00    -0.002 C 
ATOM      2  C   LIG A   1      -4.900  -2.302 133.038  0.00  0.00    +0.008 C 
ATOM      3  C   LIG A   1      -5.388  -1.923 131.603  0.00  0.00    -0.000 C 
ATOM      4  C   LIG A   1      -6.413  -2.995 131.039  0.00  0.00    -0.023 C 
ATOM      5  C   LIG A   1      -7.454  -3.366 132.152  0.00  0.00    +0.008 C 
ATOM      6  C   LIG A   1      -7.485  -2.377 133.314  0.00  0.00    +0.010 C 
ATOM      7  C   LIG A   1      -5.677  -4.339 130.725  0.00  0.00    +0.012 C 
ATOM      8  C   LIG A   1      -7.108  -2.394 129.697  0.00  0.00    -0.023 C 
ATOM      9  C   LIG A   1      -7.991  -1.176 130.091  0.00  0.00    +0.012 C 
ATOM     10  C   LIG A   1      -5.984  -2.004 128.648  0.00  0.00    +0.002 C 
ATOM     11  C   LIG A   1      -4.908  -1.080 129.264  0.00  0.00    +0.005 C 
ATOM     12  C   LIG A   1      -4.302  -1.626 130.564  0.00  0.00    +0.005 C 
ATOM     13  C   LIG A   1      -6.504  -1.556 127.204  0.00  0.00    -0.025 C 
ATOM     14  C   LIG A   1      -7.206  -0.178 127.247  0.00  0.00    +0.012 C 
ATOM     15  C   LIG A   1      -7.419  -2.719 126.659  0.00  0.00    +0.003 C 
ATOM     16  C   LIG A   1      -8.570  -3.032 127.637  0.00  0.00    +0.005 C 
ATOM     17  C   LIG A   1      -8.044  -3.438 129.020  0.00  0.00    +0.008 C 
ATOM     18  C   LIG A   1      -7.851  -2.618 125.146  0.00  0.00    -0.006 C 
ATOM     19  C   LIG A   1      -8.510  -3.955 124.704  0.00  0.00    +0.014 C 
ATOM     20  C   LIG A   1      -8.896  -1.520 124.868  0.00  0.00    +0.014 C 
ATOM     21  C   LIG A   1      -6.571  -2.417 124.280  0.00  0.00    +0.120 C 
ATOM     22  C   LIG A   1      -5.671  -1.287 124.764  0.00  0.00    +0.032 C 
ATOM     23  C   LIG A   1      -5.287  -1.428 126.236  0.00  0.00    +0.010 C 
ATOM     24  C   LIG A   1      -3.840  -1.342 133.676  0.00  0.00    +0.018 C 
ATOM     25  C   LIG A   1      -4.513  -0.694 134.903  0.00  0.00    +0.009 C 
ATOM     26  C   LIG A   1      -6.002  -0.900 134.698  0.00  0.00    +0.010 C 
ENDROOT
BRANCH  24  27
ATOM     27  C   LIG A   1      -2.509  -2.044 133.953  0.00  0.00    -0.076 C 
ATOM     28  C   LIG A   1      -2.358  -3.360 134.193  0.00  0.00    +0.007 C 
ATOM     29  C   LIG A   1      -1.289  -1.158 133.954  0.00  0.00    +0.038 C 
ENDBRANCH  24  27
BRANCH  21  30
ATOM     30  O   LIG A   1      -6.892  -2.141 122.916  0.00  0.00    -0.391 OA
ATOM     31  H   LIG A   1      -7.407  -2.889 122.570  0.00  0.00    +0.210 HD
ENDBRANCH  21  30
BRANCH   1  32
ATOM     32  C   LIG A   1      -5.957  -3.424 135.066  0.00  0.00    +0.163 C 
BRANCH  32  33
ATOM     33  O   LIG A   1      -5.487  -4.627 134.473  0.00  0.00    -0.395 OA
ATOM     34  H   LIG A   1      -6.020  -4.788 133.675  0.00  0.00    +0.209 HD
ENDBRANCH  32  33
ENDBRANCH   1  32
TORSDOF 4
ENDMDL
MODEL 6
REMARK VINA RESULT:      -8.1      1.642      3.455
REMARK  Name = NuBBE_1707
REMARK  10 active torsions:
REMARK  status: ('A' for Active; 'I' for Inactive)
REMARK    1  A    between atoms: C_1  and  O_2
REMARK    2  A    between atoms: C_1  and  C_3
REMARK    3  A    between atoms: C_8  and  C_11
REMARK    4  A    between atoms: C_12  and  C_13
REMARK    5  A    between atoms: C_18  and  C_19
REMARK    6  A    between atoms: C_24  and  C_25
REMARK    7  A    between atoms: C_24  and  C_26
REMARK    8  A    between atoms: C_27  and  O_31
REMARK    9  A    between atoms: C_32  and  C_36
REMARK   10  A    between atoms: C_36  and  C_38
REMARK                            x       y       z     vdW  Elec       q    Type
REMARK                         _______ _______ _______ _____ _____    ______ ____
ROOT
ATOM      1  C   LIG A   1      -7.458  -0.095 126.054  0.00  0.00    -0.002 C 
ATOM      2  C   LIG A   1      -7.573  -1.614 126.425  0.00  0.00    +0.008 C 
ATOM      3  C   LIG A   1      -7.438  -1.784 127.973  0.00  0.00    -0.000 C 
ATOM      4  C   LIG A   1      -6.005  -1.329 128.481  0.00  0.00    -0.023 C 
ATOM      5  C   LIG A   1      -5.611   0.029 127.801  0.00  0.00    +0.008 C 
ATOM      6  C   LIG A   1      -6.790   0.755 127.159  0.00  0.00    +0.010 C 
ATOM      7  C   LIG A   1      -4.912  -2.340 128.004  0.00  0.00    +0.012 C 
ATOM      8  C   LIG A   1      -6.035  -1.239 130.106  0.00  0.00    -0.023 C 
ATOM      9  C   LIG A   1      -6.987  -0.084 130.528  0.00  0.00    +0.012 C 
ATOM     10  C   LIG A   1      -6.486  -2.637 130.705  0.00  0.00    +0.002 C 
ATOM     11  C   LIG A   1      -7.810  -3.137 130.080  0.00  0.00    +0.005 C 
ATOM     12  C   LIG A   1      -7.795  -3.160 128.546  0.00  0.00    +0.005 C 
ATOM     13  C   LIG A   1      -6.403  -2.772 132.295  0.00  0.00    -0.025 C 
ATOM     14  C   LIG A   1      -7.475  -1.909 133.004  0.00  0.00    +0.012 C 
ATOM     15  C   LIG A   1      -4.924  -2.418 132.714  0.00  0.00    +0.003 C 
ATOM     16  C   LIG A   1      -4.519  -1.018 132.213  0.00  0.00    +0.005 C 
ATOM     17  C   LIG A   1      -4.629  -0.908 130.687  0.00  0.00    +0.008 C 
ATOM     18  C   LIG A   1      -4.531  -2.720 134.211  0.00  0.00    -0.006 C 
ATOM     19  C   LIG A   1      -2.993  -2.572 134.383  0.00  0.00    +0.014 C 
ATOM     20  C   LIG A   1      -5.165  -1.752 135.230  0.00  0.00    +0.014 C 
ATOM     21  C   LIG A   1      -4.898  -4.201 134.529  0.00  0.00    +0.120 C 
ATOM     22  C   LIG A   1      -6.328  -4.574 134.157  0.00  0.00    +0.032 C 
ATOM     23  C   LIG A   1      -6.660  -4.256 132.700  0.00  0.00    +0.010 C 
ATOM     24  C   LIG A   1      -8.929  -2.085 125.801  0.00  0.00    +0.018 C 
ATOM     25  C   LIG A   1      -9.615  -0.825 125.233  0.00  0.00    +0.009 C 
ATOM     26  C   LIG A   1      -8.928   0.344 125.911  0.00  0.00    +0.010 C 
ENDROOT
BRANCH  24  27
ATOM     27  C   LIG A   1      -8.748  -3.236 124.810  0.00  0.00    -0.076 C 
ATOM     28  C   LIG A   1      -7.918  -4.284 124.978  0.00  0.00    +0.007 C 
ATOM     29  C   LIG A   1      -9.577  -3.156 123.554  0.00  0.00    +0.038 C 
ENDBRANCH  24  27
BRANCH  21  30
ATOM     30  O   LIG A   1      -4.735  -4.501 135.916  0.00  0.00    -0.391 OA
ATOM     31  H   LIG A   1      -4.030  -5.165 135.999  0.00  0.00    +0.210 HD
ENDBRANCH  21  30
BRANCH   1  32
ATOM     32  C   LIG A   1      -6.696   0.053 124.711  0.00  0.00    +0.163 C 
BRANCH  32  33
ATOM     33  O   LIG A   1      -5.907  -1.092 124.412  0.00  0.00    -0.395 OA
ATOM     34  H   LIG A   1      -6.083  -1.756 125.102  0.00  0.00    +0.209 HD
ENDBRANCH  32  33
ENDBRANCH   1  32
TORSDOF 4
ENDMDL
MODEL 7
REMARK VINA RESULT:      -8.0      2.247      3.705
REMARK  Name = NuBBE_1707
REMARK  10 active torsions:
REMARK  status: ('A' for Active; 'I' for Inactive)
REMARK    1  A    between atoms: C_1  and  O_2
REMARK    2  A    between atoms: C_1  and  C_3
REMARK    3  A    between atoms: C_8  and  C_11
REMARK    4  A    between atoms: C_12  and  C_13
REMARK    5  A    between atoms: C_18  and  C_19
REMARK    6  A    between atoms: C_24  and  C_25
REMARK    7  A    between atoms: C_24  and  C_26
REMARK    8  A    between atoms: C_27  and  O_31
REMARK    9  A    between atoms: C_32  and  C_36
REMARK   10  A    between atoms: C_36  and  C_38
REMARK                            x       y       z     vdW  Elec       q    Type
REMARK                         _______ _______ _______ _____ _____    ______ ____
ROOT
ATOM      1  C   LIG A   1      -8.480   0.891 124.384  0.00  0.00    -0.002 C 
ATOM      2  C   LIG A   1      -7.475   1.638 125.326  0.00  0.00    +0.008 C 
ATOM      3  C   LIG A   1      -6.791   0.609 126.282  0.00  0.00    -0.000 C 
ATOM      4  C   LIG A   1      -7.849  -0.076 127.246  0.00  0.00    -0.023 C 
ATOM      5  C   LIG A   1      -9.121  -0.487 126.426  0.00  0.00    +0.008 C 
ATOM      6  C   LIG A   1      -8.897  -0.500 124.916  0.00  0.00    +0.010 C 
ATOM      7  C   LIG A   1      -8.375   0.956 128.297  0.00  0.00    +0.012 C 
ATOM      8  C   LIG A   1      -7.137  -1.338 127.987  0.00  0.00    -0.023 C 
ATOM      9  C   LIG A   1      -6.812  -2.426 126.924  0.00  0.00    +0.012 C 
ATOM     10  C   LIG A   1      -5.839  -0.839 128.750  0.00  0.00    +0.002 C 
ATOM     11  C   LIG A   1      -4.892  -0.039 127.826  0.00  0.00    +0.005 C 
ATOM     12  C   LIG A   1      -5.585   1.111 127.084  0.00  0.00    +0.005 C 
ATOM     13  C   LIG A   1      -5.114  -1.925 129.673  0.00  0.00    -0.025 C 
ATOM     14  C   LIG A   1      -4.426  -3.028 128.833  0.00  0.00    +0.012 C 
ATOM     15  C   LIG A   1      -6.197  -2.475 130.679  0.00  0.00    +0.003 C 
ATOM     16  C   LIG A   1      -7.418  -3.047 129.932  0.00  0.00    +0.005 C 
ATOM     17  C   LIG A   1      -8.081  -1.992 129.038  0.00  0.00    +0.008 C 
ATOM     18  C   LIG A   1      -5.662  -3.379 131.856  0.00  0.00    -0.006 C 
ATOM     19  C   LIG A   1      -6.798  -3.608 132.892  0.00  0.00    +0.014 C 
ATOM     20  C   LIG A   1      -5.210  -4.783 131.407  0.00  0.00    +0.014 C 
ATOM     21  C   LIG A   1      -4.513  -2.617 132.581  0.00  0.00    +0.120 C 
ATOM     22  C   LIG A   1      -3.435  -2.089 131.641  0.00  0.00    +0.032 C 
ATOM     23  C   LIG A   1      -4.005  -1.224 130.518  0.00  0.00    +0.010 C 
ATOM     24  C   LIG A   1      -6.517   2.419 124.364  0.00  0.00    +0.018 C 
ATOM     25  C   LIG A   1      -6.890   1.993 122.929  0.00  0.00    +0.009 C 
ATOM     26  C   LIG A   1      -7.672   0.703 123.086  0.00  0.00    +0.010 C 
ENDROOT
BRANCH  24  27
ATOM     27  C   LIG A   1      -6.530   3.927 124.623  0.00  0.00    -0.076 C 
ATOM     28  C   LIG A   1      -5.666   4.814 124.095  0.00  0.00    +0.007 C 
ATOM     29  C   LIG A   1      -7.606   4.422 125.555  0.00  0.00    +0.038 C 
ENDBRANCH  24  27
BRANCH  21  30
ATOM     30  O   LIG A   1      -3.858  -3.440 133.547  0.00  0.00    -0.391 OA
ATOM     31  H   LIG A   1      -3.056  -2.978 133.842  0.00  0.00    +0.210 HD
ENDBRANCH  21  30
BRANCH   1  32
ATOM     32  C   LIG A   1      -9.726   1.784 124.144  0.00  0.00    +0.163 C 
BRANCH  32  33
ATOM     33  O   LIG A   1     -10.832   1.040 123.648  0.00  0.00    -0.395 OA
ATOM     34  H   LIG A   1     -11.467   0.940 124.378  0.00  0.00    +0.209 HD
ENDBRANCH  32  33
ENDBRANCH   1  32
TORSDOF 4
ENDMDL
MODEL 8
REMARK VINA RESULT:      -7.9      3.647      8.322
REMARK  Name = NuBBE_1707
REMARK  10 active torsions:
REMARK  status: ('A' for Active; 'I' for Inactive)
REMARK    1  A    between atoms: C_1  and  O_2
REMARK    2  A    between atoms: C_1  and  C_3
REMARK    3  A    between atoms: C_8  and  C_11
REMARK    4  A    between atoms: C_12  and  C_13
REMARK    5  A    between atoms: C_18  and  C_19
REMARK    6  A    between atoms: C_24  and  C_25
REMARK    7  A    between atoms: C_24  and  C_26
REMARK    8  A    between atoms: C_27  and  O_31
REMARK    9  A    between atoms: C_32  and  C_36
REMARK   10  A    between atoms: C_36  and  C_38
REMARK                            x       y       z     vdW  Elec       q    Type
REMARK                         _______ _______ _______ _____ _____    ______ ____
ROOT
ATOM      1  C   LIG A   1      -7.315   1.896 132.220  0.00  0.00    -0.002 C 
ATOM      2  C   LIG A   1      -7.493   2.737 130.909  0.00  0.00    +0.008 C 
ATOM      3  C   LIG A   1      -7.715   1.775 129.698  0.00  0.00    -0.000 C 
ATOM      4  C   LIG A   1      -6.444   0.859 129.447  0.00  0.00    -0.023 C 
ATOM      5  C   LIG A   1      -5.921   0.296 130.815  0.00  0.00    +0.008 C 
ATOM      6  C   LIG A   1      -6.929   0.423 131.953  0.00  0.00    +0.010 C 
ATOM      7  C   LIG A   1      -5.257   1.716 128.895  0.00  0.00    +0.012 C 
ATOM      8  C   LIG A   1      -6.846  -0.312 128.392  0.00  0.00    -0.023 C 
ATOM      9  C   LIG A   1      -7.885  -1.257 129.063  0.00  0.00    +0.012 C 
ATOM     10  C   LIG A   1      -7.406   0.345 127.061  0.00  0.00    +0.002 C 
ATOM     11  C   LIG A   1      -8.544   1.353 127.343  0.00  0.00    +0.005 C 
ATOM     12  C   LIG A   1      -8.177   2.417 128.386  0.00  0.00    +0.005 C 
ATOM     13  C   LIG A   1      -7.689  -0.664 125.853  0.00  0.00    -0.025 C 
ATOM     14  C   LIG A   1      -8.906  -1.577 126.137  0.00  0.00    +0.012 C 
ATOM     15  C   LIG A   1      -6.350  -1.454 125.585  0.00  0.00    +0.003 C 
ATOM     16  C   LIG A   1      -5.858  -2.171 126.858  0.00  0.00    +0.005 C 
ATOM     17  C   LIG A   1      -5.616  -1.184 128.007  0.00  0.00    +0.008 C 
ATOM     18  C   LIG A   1      -6.307  -2.332 124.276  0.00  0.00    -0.006 C 
ATOM     19  C   LIG A   1      -4.852  -2.817 124.025  0.00  0.00    +0.014 C 
ATOM     20  C   LIG A   1      -7.171  -3.607 124.353  0.00  0.00    +0.014 C 
ATOM     21  C   LIG A   1      -6.719  -1.439 123.068  0.00  0.00    +0.120 C 
ATOM     22  C   LIG A   1      -8.021  -0.675 123.282  0.00  0.00    +0.032 C 
ATOM     23  C   LIG A   1      -8.013   0.154 124.565  0.00  0.00    +0.010 C 
ATOM     24  C   LIG A   1      -8.664   3.730 131.217  0.00  0.00    +0.018 C 
ATOM     25  C   LIG A   1      -9.216   3.344 132.605  0.00  0.00    +0.009 C 
ATOM     26  C   LIG A   1      -8.718   1.934 132.855  0.00  0.00    +0.010 C 
ENDROOT
BRANCH  24  27
ATOM     27  C   LIG A   1      -8.246   5.193 131.062  0.00  0.00    -0.076 C 
ATOM     28  C   LIG A   1      -8.933   6.253 131.530  0.00  0.00    +0.007 C 
ATOM     29  C   LIG A   1      -6.959   5.431 130.315  0.00  0.00    +0.038 C 
ENDBRANCH  24  27
BRANCH  21  30
ATOM     30  O   LIG A   1      -6.876  -2.203 121.872  0.00  0.00    -0.391 OA
ATOM     31  H   LIG A   1      -7.627  -1.838 121.377  0.00  0.00    +0.210 HD
ENDBRANCH  21  30
BRANCH   1  32
ATOM     32  C   LIG A   1      -6.267   2.582 133.136  0.00  0.00    +0.163 C 
BRANCH  32  33
ATOM     33  O   LIG A   1      -5.301   3.314 132.392  0.00  0.00    -0.395 OA
ATOM     34  H   LIG A   1      -5.778   3.810 131.704  0.00  0.00    +0.209 HD
ENDBRANCH  32  33
ENDBRANCH   1  32
TORSDOF 4
ENDMDL
MODEL 9
REMARK VINA RESULT:      -7.9      4.409      8.790
REMARK  Name = NuBBE_1707
REMARK  10 active torsions:
REMARK  status: ('A' for Active; 'I' for Inactive)
REMARK    1  A    between atoms: C_1  and  O_2
REMARK    2  A    between atoms: C_1  and  C_3
REMARK    3  A    between atoms: C_8  and  C_11
REMARK    4  A    between atoms: C_12  and  C_13
REMARK    5  A    between atoms: C_18  and  C_19
REMARK    6  A    between atoms: C_24  and  C_25
REMARK    7  A    between atoms: C_24  and  C_26
REMARK    8  A    between atoms: C_27  and  O_31
REMARK    9  A    between atoms: C_32  and  C_36
REMARK   10  A    between atoms: C_36  and  C_38
REMARK                            x       y       z     vdW  Elec       q    Type
REMARK                         _______ _______ _______ _____ _____    ______ ____
ROOT
ATOM      1  C   LIG A   1      -4.956   4.118 130.534  0.00  0.00    -0.002 C 
ATOM      2  C   LIG A   1      -6.425   4.094 129.988  0.00  0.00    +0.008 C 
ATOM      3  C   LIG A   1      -6.688   2.737 129.258  0.00  0.00    -0.000 C 
ATOM      4  C   LIG A   1      -5.757   2.577 127.983  0.00  0.00    -0.023 C 
ATOM      5  C   LIG A   1      -4.292   3.007 128.343  0.00  0.00    +0.008 C 
ATOM      6  C   LIG A   1      -4.031   3.090 129.844  0.00  0.00    +0.010 C 
ATOM      7  C   LIG A   1      -6.195   3.574 126.861  0.00  0.00    +0.012 C 
ATOM      8  C   LIG A   1      -5.855   1.041 127.457  0.00  0.00    -0.023 C 
ATOM      9  C   LIG A   1      -5.224   0.102 128.525  0.00  0.00    +0.012 C 
ATOM     10  C   LIG A   1      -7.371   0.679 127.163  0.00  0.00    +0.002 C 
ATOM     11  C   LIG A   1      -8.288   0.988 128.369  0.00  0.00    +0.005 C 
ATOM     12  C   LIG A   1      -8.144   2.421 128.898  0.00  0.00    +0.005 C 
ATOM     13  C   LIG A   1      -7.627  -0.741 126.474  0.00  0.00    -0.025 C 
ATOM     14  C   LIG A   1      -7.340  -1.912 127.445  0.00  0.00    +0.012 C 
ATOM     15  C   LIG A   1      -6.760  -0.781 125.157  0.00  0.00    +0.003 C 
ATOM     16  C   LIG A   1      -5.270  -0.523 125.458  0.00  0.00    +0.005 C 
ATOM     17  C   LIG A   1      -5.056   0.835 126.137  0.00  0.00    +0.008 C 
ATOM     18  C   LIG A   1      -7.035  -1.984 124.176  0.00  0.00    -0.006 C 
ATOM     19  C   LIG A   1      -6.307  -1.730 122.826  0.00  0.00    +0.014 C 
ATOM     20  C   LIG A   1      -6.511  -3.340 124.690  0.00  0.00    +0.014 C 
ATOM     21  C   LIG A   1      -8.564  -2.042 123.880  0.00  0.00    +0.120 C 
ATOM     22  C   LIG A   1      -9.434  -2.027 125.132  0.00  0.00    +0.032 C 
ATOM     23  C   LIG A   1      -9.125  -0.846 126.051  0.00  0.00    +0.010 C 
ATOM     24  C   LIG A   1      -7.329   4.387 131.233  0.00  0.00    +0.018 C 
ATOM     25  C   LIG A   1      -6.393   4.421 132.459  0.00  0.00    +0.009 C 
ATOM     26  C   LIG A   1      -5.124   3.719 132.013  0.00  0.00    +0.010 C 
ENDROOT
BRANCH  24  27
ATOM     27  C   LIG A   1      -8.204   5.627 131.041  0.00  0.00    -0.076 C 
ATOM     28  C   LIG A   1      -7.763   6.900 131.057  0.00  0.00    +0.007 C 
ATOM     29  C   LIG A   1      -9.672   5.366 130.825  0.00  0.00    +0.038 C 
ENDBRANCH  24  27
BRANCH  21  30
ATOM     30  O   LIG A   1      -8.918  -3.211 123.140  0.00  0.00    -0.391 OA
ATOM     31  H   LIG A   1      -8.517  -3.141 122.258  0.00  0.00    +0.210 HD
ENDBRANCH  21  30
BRANCH   1  32
ATOM     32  C   LIG A   1      -4.379   5.552 130.403  0.00  0.00    +0.163 C 
BRANCH  32  33
ATOM     33  O   LIG A   1      -4.850   6.216 129.237  0.00  0.00    -0.395 OA
ATOM     34  H   LIG A   1      -5.336   5.561 128.705  0.00  0.00    +0.209 HD
ENDBRANCH  32  33
ENDBRANCH   1  32
TORSDOF 4
ENDMDL
