MODEL 1
REMARK VINA RESULT:      -6.5      0.000      0.000
REMARK  Name = NuBBE_1343
REMARK  10 active torsions:
REMARK  status: ('A' for Active; 'I' for Inactive)
REMARK    1  A    between atoms: C_1  and  C_2
REMARK    2  A    between atoms: C_4  and  O_5
REMARK    3  A    between atoms: C_6  and  C_7
REMARK    4  A    between atoms: C_7  and  C_8
REMARK    5  A    between atoms: C_7  and  C_9
REMARK    6  A    between atoms: C_9  and  C_10
REMARK    7  A    between atoms: C_10  and  C_11
REMARK    8  A    between atoms: C_11  and  C_12
REMARK    9  A    between atoms: C_12  and  C_13
REMARK   10  A    between atoms: C_12  and  C_14
REMARK                            x       y       z     vdW  Elec       q    Type
REMARK                         _______ _______ _______ _____ _____    ______ ____
ROOT
ATOM      1  C   LIG A   1     -13.495   9.425 128.572  0.00  0.00    +0.044 C 
ATOM      2  C   LIG A   1     -12.426   8.538 129.136  0.00  0.00    -0.047 A 
ATOM      3  C   LIG A   1     -12.667   7.754 130.268  0.00  0.00    +0.049 A 
ATOM      4  C   LIG A   1     -11.665   6.922 130.773  0.00  0.00    +0.120 A 
ATOM      5  C   LIG A   1     -10.401   6.853 130.172  0.00  0.00    -0.003 A 
ATOM      6  C   LIG A   1     -10.158   7.676 129.060  0.00  0.00    +0.008 A 
ATOM      7  C   LIG A   1     -11.159   8.507 128.546  0.00  0.00    +0.004 A 
ENDROOT
BRANCH   4   8
ATOM      8  O   LIG A   1     -11.917   6.157 131.879  0.00  0.00    -0.506 OA
ATOM      9  H   LIG A   1     -11.078   5.994 132.339  0.00  0.00    +0.292 HD
ENDBRANCH   4   8
BRANCH   5  10
ATOM     10  C   LIG A   1      -9.332   5.901 130.687  0.00  0.00    +0.020 C 
ATOM     11  C   LIG A   1      -9.005   4.846 129.621  0.00  0.00    +0.013 C 
BRANCH  10  12
ATOM     12  C   LIG A   1      -8.053   6.625 131.151  0.00  0.00    +0.015 C 
BRANCH  12  13
ATOM     13  C   LIG A   1      -7.450   6.007 132.415  0.00  0.00    +0.075 C 
BRANCH  13  14
ATOM     14  C   LIG A   1      -8.517   5.669 133.448  0.00  0.00    +0.136 C 
ATOM     15  O   LIG A   1      -9.458   6.430 133.676  0.00  0.00    -0.297 OA
BRANCH  14  16
ATOM     16  C   LIG A   1      -8.425   4.324 134.165  0.00  0.00    +0.049 C 
ATOM     17  C   LIG A   1      -9.259   3.263 133.460  0.00  0.00    +0.015 C 
ATOM     18  C   LIG A   1      -6.972   3.890 134.320  0.00  0.00    +0.015 C 
ENDBRANCH  14  16
ENDBRANCH  13  14
ENDBRANCH  12  13
ENDBRANCH  10  12
ENDBRANCH   5  10
TORSDOF 6
ENDMDL
MODEL 2
REMARK VINA RESULT:      -6.4      8.885     11.602
REMARK  Name = NuBBE_1343
REMARK  10 active torsions:
REMARK  status: ('A' for Active; 'I' for Inactive)
REMARK    1  A    between atoms: C_1  and  C_2
REMARK    2  A    between atoms: C_4  and  O_5
REMARK    3  A    between atoms: C_6  and  C_7
REMARK    4  A    between atoms: C_7  and  C_8
REMARK    5  A    between atoms: C_7  and  C_9
REMARK    6  A    between atoms: C_9  and  C_10
REMARK    7  A    between atoms: C_10  and  C_11
REMARK    8  A    between atoms: C_11  and  C_12
REMARK    9  A    between atoms: C_12  and  C_13
REMARK   10  A    between atoms: C_12  and  C_14
REMARK                            x       y       z     vdW  Elec       q    Type
REMARK                         _______ _______ _______ _____ _____    ______ ____
ROOT
ATOM      1  C   LIG A   1      -5.065  -4.061 123.932  0.00  0.00    +0.044 C 
ATOM      2  C   LIG A   1      -6.173  -3.058 124.057  0.00  0.00    -0.047 A 
ATOM      3  C   LIG A   1      -7.497  -3.469 124.236  0.00  0.00    +0.049 A 
ATOM      4  C   LIG A   1      -8.516  -2.522 124.365  0.00  0.00    +0.120 A 
ATOM      5  C   LIG A   1      -8.246  -1.148 124.314  0.00  0.00    -0.003 A 
ATOM      6  C   LIG A   1      -6.918  -0.748 124.093  0.00  0.00    +0.008 A 
ATOM      7  C   LIG A   1      -5.893  -1.691 123.969  0.00  0.00    +0.004 A 
ENDROOT
BRANCH   4   8
ATOM      8  O   LIG A   1      -9.806  -2.940 124.544  0.00  0.00    -0.506 OA
ATOM      9  H   LIG A   1      -9.931  -3.775 124.065  0.00  0.00    +0.292 HD
ENDBRANCH   4   8
BRANCH   5  10
ATOM     10  C   LIG A   1      -9.349  -0.119 124.516  0.00  0.00    +0.020 C 
ATOM     11  C   LIG A   1      -9.060   0.727 125.764  0.00  0.00    +0.013 C 
BRANCH  10  12
ATOM     12  C   LIG A   1      -9.568   0.780 123.283  0.00  0.00    +0.015 C 
BRANCH  12  13
ATOM     13  C   LIG A   1      -9.218   2.246 123.553  0.00  0.00    +0.075 C 
BRANCH  13  14
ATOM     14  C   LIG A   1      -8.334   2.830 122.459  0.00  0.00    +0.136 C 
ATOM     15  O   LIG A   1      -8.810   3.429 121.495  0.00  0.00    -0.297 OA
BRANCH  14  16
ATOM     16  C   LIG A   1      -6.820   2.703 122.613  0.00  0.00    +0.049 C 
ATOM     17  C   LIG A   1      -6.086   3.609 121.634  0.00  0.00    +0.015 C 
ATOM     18  C   LIG A   1      -6.396   2.967 124.053  0.00  0.00    +0.015 C 
ENDBRANCH  14  16
ENDBRANCH  13  14
ENDBRANCH  12  13
ENDBRANCH  10  12
ENDBRANCH   5  10
TORSDOF 6
ENDMDL
MODEL 3
REMARK VINA RESULT:      -6.1      2.071      2.853
REMARK  Name = NuBBE_1343
REMARK  10 active torsions:
REMARK  status: ('A' for Active; 'I' for Inactive)
REMARK    1  A    between atoms: C_1  and  C_2
REMARK    2  A    between atoms: C_4  and  O_5
REMARK    3  A    between atoms: C_6  and  C_7
REMARK    4  A    between atoms: C_7  and  C_8
REMARK    5  A    between atoms: C_7  and  C_9
REMARK    6  A    between atoms: C_9  and  C_10
REMARK    7  A    between atoms: C_10  and  C_11
REMARK    8  A    between atoms: C_11  and  C_12
REMARK    9  A    between atoms: C_12  and  C_13
REMARK   10  A    between atoms: C_12  and  C_14
REMARK                            x       y       z     vdW  Elec       q    Type
REMARK                         _______ _______ _______ _____ _____    ______ ____
ROOT
ATOM      1  C   LIG A   1     -13.648   9.859 128.534  0.00  0.00    +0.044 C 
ATOM      2  C   LIG A   1     -12.695   8.770 128.929  0.00  0.00    -0.047 A 
ATOM      3  C   LIG A   1     -11.794   8.234 128.004  0.00  0.00    +0.049 A 
ATOM      4  C   LIG A   1     -10.903   7.230 128.390  0.00  0.00    +0.120 A 
ATOM      5  C   LIG A   1     -10.889   6.732 129.700  0.00  0.00    -0.003 A 
ATOM      6  C   LIG A   1     -11.826   7.249 130.609  0.00  0.00    +0.008 A 
ATOM      7  C   LIG A   1     -12.717   8.258 130.230  0.00  0.00    +0.004 A 
ENDROOT
BRANCH   4   8
ATOM      8  O   LIG A   1     -10.025   6.719 127.475  0.00  0.00    -0.506 OA
ATOM      9  H   LIG A   1      -9.459   7.438 127.154  0.00  0.00    +0.292 HD
ENDBRANCH   4   8
BRANCH   5  10
ATOM     10  C   LIG A   1      -9.877   5.681 130.134  0.00  0.00    +0.020 C 
ATOM     11  C   LIG A   1      -8.899   6.280 131.154  0.00  0.00    +0.013 C 
BRANCH  10  12
ATOM     12  C   LIG A   1     -10.535   4.404 130.691  0.00  0.00    +0.015 C 
BRANCH  12  13
ATOM     13  C   LIG A   1      -9.637   3.171 130.556  0.00  0.00    +0.075 C 
BRANCH  13  14
ATOM     14  C   LIG A   1      -9.601   2.351 131.839  0.00  0.00    +0.136 C 
ATOM     15  O   LIG A   1     -10.330   1.372 131.999  0.00  0.00    -0.297 OA
BRANCH  14  16
ATOM     16  C   LIG A   1      -8.590   2.741 132.915  0.00  0.00    +0.049 C 
ATOM     17  C   LIG A   1      -7.299   3.261 132.298  0.00  0.00    +0.015 C 
ATOM     18  C   LIG A   1      -9.194   3.745 133.890  0.00  0.00    +0.015 C 
ENDBRANCH  14  16
ENDBRANCH  13  14
ENDBRANCH  12  13
ENDBRANCH  10  12
ENDBRANCH   5  10
TORSDOF 6
ENDMDL
MODEL 4
REMARK VINA RESULT:      -6.1      8.505     10.375
REMARK  Name = NuBBE_1343
REMARK  10 active torsions:
REMARK  status: ('A' for Active; 'I' for Inactive)
REMARK    1  A    between atoms: C_1  and  C_2
REMARK    2  A    between atoms: C_4  and  O_5
REMARK    3  A    between atoms: C_6  and  C_7
REMARK    4  A    between atoms: C_7  and  C_8
REMARK    5  A    between atoms: C_7  and  C_9
REMARK    6  A    between atoms: C_9  and  C_10
REMARK    7  A    between atoms: C_10  and  C_11
REMARK    8  A    between atoms: C_11  and  C_12
REMARK    9  A    between atoms: C_12  and  C_13
REMARK   10  A    between atoms: C_12  and  C_14
REMARK                            x       y       z     vdW  Elec       q    Type
REMARK                         _______ _______ _______ _____ _____    ______ ____
ROOT
ATOM      1  C   LIG A   1      -8.311   3.515 125.229  0.00  0.00    +0.044 C 
ATOM      2  C   LIG A   1      -8.245   2.163 124.582  0.00  0.00    -0.047 A 
ATOM      3  C   LIG A   1      -9.327   1.663 123.851  0.00  0.00    +0.049 A 
ATOM      4  C   LIG A   1      -9.244   0.408 123.243  0.00  0.00    +0.120 A 
ATOM      5  C   LIG A   1      -8.091  -0.380 123.350  0.00  0.00    -0.003 A 
ATOM      6  C   LIG A   1      -7.026   0.115 124.120  0.00  0.00    +0.008 A 
ATOM      7  C   LIG A   1      -7.101   1.373 124.727  0.00  0.00    +0.004 A 
ENDROOT
BRANCH   4   8
ATOM      8  O   LIG A   1     -10.309  -0.066 122.528  0.00  0.00    -0.506 OA
ATOM      9  H   LIG A   1     -10.907  -0.532 123.134  0.00  0.00    +0.292 HD
ENDBRANCH   4   8
BRANCH   5  10
ATOM     10  C   LIG A   1      -7.981  -1.719 122.635  0.00  0.00    +0.020 C 
ATOM     11  C   LIG A   1      -6.510  -2.149 122.542  0.00  0.00    +0.013 C 
BRANCH  10  12
ATOM     12  C   LIG A   1      -8.833  -2.824 123.290  0.00  0.00    +0.015 C 
BRANCH  12  13
ATOM     13  C   LIG A   1      -8.160  -3.437 124.521  0.00  0.00    +0.075 C 
BRANCH  13  14
ATOM     14  C   LIG A   1      -8.881  -3.064 125.809  0.00  0.00    +0.136 C 
ATOM     15  O   LIG A   1     -10.106  -2.951 125.854  0.00  0.00    -0.297 OA
BRANCH  14  16
ATOM     16  C   LIG A   1      -8.046  -2.884 127.075  0.00  0.00    +0.049 C 
ATOM     17  C   LIG A   1      -7.837  -1.409 127.394  0.00  0.00    +0.015 C 
ATOM     18  C   LIG A   1      -8.668  -3.633 128.248  0.00  0.00    +0.015 C 
ENDBRANCH  14  16
ENDBRANCH  13  14
ENDBRANCH  12  13
ENDBRANCH  10  12
ENDBRANCH   5  10
TORSDOF 6
ENDMDL
MODEL 5
REMARK VINA RESULT:      -5.9      2.278      3.021
REMARK  Name = NuBBE_1343
REMARK  10 active torsions:
REMARK  status: ('A' for Active; 'I' for Inactive)
REMARK    1  A    between atoms: C_1  and  C_2
REMARK    2  A    between atoms: C_4  and  O_5
REMARK    3  A    between atoms: C_6  and  C_7
REMARK    4  A    between atoms: C_7  and  C_8
REMARK    5  A    between atoms: C_7  and  C_9
REMARK    6  A    between atoms: C_9  and  C_10
REMARK    7  A    between atoms: C_10  and  C_11
REMARK    8  A    between atoms: C_11  and  C_12
REMARK    9  A    between atoms: C_12  and  C_13
REMARK   10  A    between atoms: C_12  and  C_14
REMARK                            x       y       z     vdW  Elec       q    Type
REMARK                         _______ _______ _______ _____ _____    ______ ____
ROOT
ATOM      1  C   LIG A   1     -13.552   9.257 128.423  0.00  0.00    +0.044 C 
ATOM      2  C   LIG A   1     -12.450   8.492 129.093  0.00  0.00    -0.047 A 
ATOM      3  C   LIG A   1     -12.705   7.702 130.218  0.00  0.00    +0.049 A 
ATOM      4  C   LIG A   1     -11.671   6.983 130.822  0.00  0.00    +0.120 A 
ATOM      5  C   LIG A   1     -10.361   7.035 130.328  0.00  0.00    -0.003 A 
ATOM      6  C   LIG A   1     -10.109   7.863 129.221  0.00  0.00    +0.008 A 
ATOM      7  C   LIG A   1     -11.141   8.581 128.609  0.00  0.00    +0.004 A 
ENDROOT
BRANCH   4   8
ATOM      8  O   LIG A   1     -11.937   6.213 131.920  0.00  0.00    -0.506 OA
ATOM      9  H   LIG A   1     -12.877   5.971 131.909  0.00  0.00    +0.292 HD
ENDBRANCH   4   8
BRANCH   5  10
ATOM     10  C   LIG A   1      -9.249   6.204 130.950  0.00  0.00    +0.020 C 
ATOM     11  C   LIG A   1      -9.056   4.902 130.159  0.00  0.00    +0.013 C 
BRANCH  10  12
ATOM     12  C   LIG A   1      -7.918   6.972 131.073  0.00  0.00    +0.015 C 
BRANCH  12  13
ATOM     13  C   LIG A   1      -6.819   6.144 131.743  0.00  0.00    +0.075 C 
BRANCH  13  14
ATOM     14  C   LIG A   1      -5.519   6.178 130.951  0.00  0.00    +0.136 C 
ATOM     15  O   LIG A   1      -5.507   6.069 129.725  0.00  0.00    -0.297 OA
BRANCH  14  16
ATOM     16  C   LIG A   1      -4.216   6.409 131.714  0.00  0.00    +0.049 C 
ATOM     17  C   LIG A   1      -3.287   5.208 131.599  0.00  0.00    +0.015 C 
ATOM     18  C   LIG A   1      -3.537   7.695 131.255  0.00  0.00    +0.015 C 
ENDBRANCH  14  16
ENDBRANCH  13  14
ENDBRANCH  12  13
ENDBRANCH  10  12
ENDBRANCH   5  10
TORSDOF 6
ENDMDL
MODEL 6
REMARK VINA RESULT:      -5.9      8.688     10.613
REMARK  Name = NuBBE_1343
REMARK  10 active torsions:
REMARK  status: ('A' for Active; 'I' for Inactive)
REMARK    1  A    between atoms: C_1  and  C_2
REMARK    2  A    between atoms: C_4  and  O_5
REMARK    3  A    between atoms: C_6  and  C_7
REMARK    4  A    between atoms: C_7  and  C_8
REMARK    5  A    between atoms: C_7  and  C_9
REMARK    6  A    between atoms: C_9  and  C_10
REMARK    7  A    between atoms: C_10  and  C_11
REMARK    8  A    between atoms: C_11  and  C_12
REMARK    9  A    between atoms: C_12  and  C_13
REMARK   10  A    between atoms: C_12  and  C_14
REMARK                            x       y       z     vdW  Elec       q    Type
REMARK                         _______ _______ _______ _____ _____    ______ ____
ROOT
ATOM      1  C   LIG A   1      -5.654   5.217 119.180  0.00  0.00    +0.044 C 
ATOM      2  C   LIG A   1      -6.329   4.481 120.298  0.00  0.00    -0.047 A 
ATOM      3  C   LIG A   1      -5.648   4.196 121.485  0.00  0.00    +0.049 A 
ATOM      4  C   LIG A   1      -6.296   3.522 122.524  0.00  0.00    +0.120 A 
ATOM      5  C   LIG A   1      -7.630   3.111 122.406  0.00  0.00    -0.003 A 
ATOM      6  C   LIG A   1      -8.291   3.367 121.194  0.00  0.00    +0.008 A 
ATOM      7  C   LIG A   1      -7.650   4.046 120.153  0.00  0.00    +0.004 A 
ENDROOT
BRANCH   4   8
ATOM      8  O   LIG A   1      -5.617   3.253 123.680  0.00  0.00    -0.506 OA
ATOM      9  H   LIG A   1      -5.054   4.015 123.893  0.00  0.00    +0.292 HD
ENDBRANCH   4   8
BRANCH   5  10
ATOM     10  C   LIG A   1      -8.351   2.431 123.561  0.00  0.00    +0.020 C 
ATOM     11  C   LIG A   1      -8.508   3.408 124.735  0.00  0.00    +0.013 C 
BRANCH  10  12
ATOM     12  C   LIG A   1      -9.715   1.839 123.155  0.00  0.00    +0.015 C 
BRANCH  12  13
ATOM     13  C   LIG A   1      -9.643   0.340 122.855  0.00  0.00    +0.075 C 
BRANCH  13  14
ATOM     14  C   LIG A   1      -9.209  -0.464 124.073  0.00  0.00    +0.136 C 
ATOM     15  O   LIG A   1      -9.689  -0.257 125.187  0.00  0.00    -0.297 OA
BRANCH  14  16
ATOM     16  C   LIG A   1      -8.191  -1.585 123.870  0.00  0.00    +0.049 C 
ATOM     17  C   LIG A   1      -8.814  -2.775 123.154  0.00  0.00    +0.015 C 
ATOM     18  C   LIG A   1      -6.955  -1.071 123.140  0.00  0.00    +0.015 C 
ENDBRANCH  14  16
ENDBRANCH  13  14
ENDBRANCH  12  13
ENDBRANCH  10  12
ENDBRANCH   5  10
TORSDOF 6
ENDMDL
MODEL 7
REMARK VINA RESULT:      -5.9      9.471     10.740
REMARK  Name = NuBBE_1343
REMARK  10 active torsions:
REMARK  status: ('A' for Active; 'I' for Inactive)
REMARK    1  A    between atoms: C_1  and  C_2
REMARK    2  A    between atoms: C_4  and  O_5
REMARK    3  A    between atoms: C_6  and  C_7
REMARK    4  A    between atoms: C_7  and  C_8
REMARK    5  A    between atoms: C_7  and  C_9
REMARK    6  A    between atoms: C_9  and  C_10
REMARK    7  A    between atoms: C_10  and  C_11
REMARK    8  A    between atoms: C_11  and  C_12
REMARK    9  A    between atoms: C_12  and  C_13
REMARK   10  A    between atoms: C_12  and  C_14
REMARK                            x       y       z     vdW  Elec       q    Type
REMARK                         _______ _______ _______ _____ _____    ______ ____
ROOT
ATOM      1  C   LIG A   1      -6.179  -2.114 122.458  0.00  0.00    +0.044 C 
ATOM      2  C   LIG A   1      -6.789  -2.245 123.822  0.00  0.00    -0.047 A 
ATOM      3  C   LIG A   1      -8.161  -2.465 123.976  0.00  0.00    +0.049 A 
ATOM      4  C   LIG A   1      -8.713  -2.600 125.252  0.00  0.00    +0.120 A 
ATOM      5  C   LIG A   1      -7.918  -2.514 126.403  0.00  0.00    -0.003 A 
ATOM      6  C   LIG A   1      -6.548  -2.253 126.237  0.00  0.00    +0.008 A 
ATOM      7  C   LIG A   1      -5.990  -2.123 124.962  0.00  0.00    +0.004 A 
ENDROOT
BRANCH   4   8
ATOM      8  O   LIG A   1     -10.056  -2.818 125.387  0.00  0.00    -0.506 OA
ATOM      9  H   LIG A   1     -10.304  -3.574 124.831  0.00  0.00    +0.292 HD
ENDBRANCH   4   8
BRANCH   5  10
ATOM     10  C   LIG A   1      -8.511  -2.722 127.789  0.00  0.00    +0.020 C 
ATOM     11  C   LIG A   1      -8.606  -4.221 128.104  0.00  0.00    +0.013 C 
BRANCH  10  12
ATOM     12  C   LIG A   1      -7.736  -1.978 128.894  0.00  0.00    +0.015 C 
BRANCH  12  13
ATOM     13  C   LIG A   1      -7.510  -2.840 130.139  0.00  0.00    +0.075 C 
BRANCH  13  14
ATOM     14  C   LIG A   1      -6.138  -2.604 130.754  0.00  0.00    +0.136 C 
ATOM     15  O   LIG A   1      -5.906  -1.619 131.456  0.00  0.00    -0.297 OA
BRANCH  14  16
ATOM     16  C   LIG A   1      -5.055  -3.656 130.525  0.00  0.00    +0.049 C 
ATOM     17  C   LIG A   1      -5.626  -5.065 130.607  0.00  0.00    +0.015 C 
ATOM     18  C   LIG A   1      -4.334  -3.415 129.204  0.00  0.00    +0.015 C 
ENDBRANCH  14  16
ENDBRANCH  13  14
ENDBRANCH  12  13
ENDBRANCH  10  12
ENDBRANCH   5  10
TORSDOF 6
ENDMDL
MODEL 8
REMARK VINA RESULT:      -5.8      8.429     10.977
REMARK  Name = NuBBE_1343
REMARK  10 active torsions:
REMARK  status: ('A' for Active; 'I' for Inactive)
REMARK    1  A    between atoms: C_1  and  C_2
REMARK    2  A    between atoms: C_4  and  O_5
REMARK    3  A    between atoms: C_6  and  C_7
REMARK    4  A    between atoms: C_7  and  C_8
REMARK    5  A    between atoms: C_7  and  C_9
REMARK    6  A    between atoms: C_9  and  C_10
REMARK    7  A    between atoms: C_10  and  C_11
REMARK    8  A    between atoms: C_11  and  C_12
REMARK    9  A    between atoms: C_12  and  C_13
REMARK   10  A    between atoms: C_12  and  C_14
REMARK                            x       y       z     vdW  Elec       q    Type
REMARK                         _______ _______ _______ _____ _____    ______ ____
ROOT
ATOM      1  C   LIG A   1      -6.054   2.461 127.163  0.00  0.00    +0.044 C 
ATOM      2  C   LIG A   1      -6.575   1.062 127.018  0.00  0.00    -0.047 A 
ATOM      3  C   LIG A   1      -5.708  -0.034 127.050  0.00  0.00    +0.049 A 
ATOM      4  C   LIG A   1      -6.209  -1.332 126.928  0.00  0.00    +0.120 A 
ATOM      5  C   LIG A   1      -7.581  -1.572 126.765  0.00  0.00    -0.003 A 
ATOM      6  C   LIG A   1      -8.437  -0.461 126.693  0.00  0.00    +0.008 A 
ATOM      7  C   LIG A   1      -7.941   0.840 126.820  0.00  0.00    +0.004 A 
ENDROOT
BRANCH   4   8
ATOM      8  O   LIG A   1      -5.349  -2.394 126.965  0.00  0.00    -0.506 OA
ATOM      9  H   LIG A   1      -4.442  -2.056 127.028  0.00  0.00    +0.292 HD
ENDBRANCH   4   8
BRANCH   5  10
ATOM     10  C   LIG A   1      -8.131  -2.989 126.693  0.00  0.00    +0.020 C 
ATOM     11  C   LIG A   1      -8.639  -3.429 128.073  0.00  0.00    +0.013 C 
BRANCH  10  12
ATOM     12  C   LIG A   1      -9.231  -3.155 125.625  0.00  0.00    +0.015 C 
BRANCH  12  13
ATOM     13  C   LIG A   1      -8.663  -3.443 124.234  0.00  0.00    +0.075 C 
BRANCH  13  14
ATOM     14  C   LIG A   1      -8.617  -2.192 123.367  0.00  0.00    +0.136 C 
ATOM     15  O   LIG A   1      -9.640  -1.573 123.073  0.00  0.00    -0.297 OA
BRANCH  14  16
ATOM     16  C   LIG A   1      -7.252  -1.683 122.909  0.00  0.00    +0.049 C 
ATOM     17  C   LIG A   1      -7.046  -0.226 123.301  0.00  0.00    +0.015 C 
ATOM     18  C   LIG A   1      -6.134  -2.574 123.440  0.00  0.00    +0.015 C 
ENDBRANCH  14  16
ENDBRANCH  13  14
ENDBRANCH  12  13
ENDBRANCH  10  12
ENDBRANCH   5  10
TORSDOF 6
ENDMDL
MODEL 9
REMARK VINA RESULT:      -5.7      1.920      6.034
REMARK  Name = NuBBE_1343
REMARK  10 active torsions:
REMARK  status: ('A' for Active; 'I' for Inactive)
REMARK    1  A    between atoms: C_1  and  C_2
REMARK    2  A    between atoms: C_4  and  O_5
REMARK    3  A    between atoms: C_6  and  C_7
REMARK    4  A    between atoms: C_7  and  C_8
REMARK    5  A    between atoms: C_7  and  C_9
REMARK    6  A    between atoms: C_9  and  C_10
REMARK    7  A    between atoms: C_10  and  C_11
REMARK    8  A    between atoms: C_11  and  C_12
REMARK    9  A    between atoms: C_12  and  C_13
REMARK   10  A    between atoms: C_12  and  C_14
REMARK                            x       y       z     vdW  Elec       q    Type
REMARK                         _______ _______ _______ _____ _____    ______ ____
ROOT
ATOM      1  C   LIG A   1      -9.029   0.314 131.585  0.00  0.00    +0.044 C 
ATOM      2  C   LIG A   1      -8.876   1.805 131.635  0.00  0.00    -0.047 A 
ATOM      3  C   LIG A   1      -9.417   2.547 132.689  0.00  0.00    +0.049 A 
ATOM      4  C   LIG A   1      -9.254   3.934 132.729  0.00  0.00    +0.120 A 
ATOM      5  C   LIG A   1      -8.554   4.616 131.724  0.00  0.00    -0.003 A 
ATOM      6  C   LIG A   1      -8.050   3.864 130.650  0.00  0.00    +0.008 A 
ATOM      7  C   LIG A   1      -8.206   2.475 130.607  0.00  0.00    +0.004 A 
ENDROOT
BRANCH   4   8
ATOM      8  O   LIG A   1      -9.786   4.646 133.768  0.00  0.00    -0.506 OA
ATOM      9  H   LIG A   1     -10.234   5.429 133.410  0.00  0.00    +0.292 HD
ENDBRANCH   4   8
BRANCH   5  10
ATOM     10  C   LIG A   1      -8.325   6.118 131.802  0.00  0.00    +0.020 C 
ATOM     11  C   LIG A   1      -6.822   6.420 131.891  0.00  0.00    +0.013 C 
BRANCH  10  12
ATOM     12  C   LIG A   1      -8.970   6.888 130.632  0.00  0.00    +0.015 C 
BRANCH  12  13
ATOM     13  C   LIG A   1     -10.499   6.822 130.654  0.00  0.00    +0.075 C 
BRANCH  13  14
ATOM     14  C   LIG A   1     -11.115   7.519 129.448  0.00  0.00    +0.136 C 
ATOM     15  O   LIG A   1     -10.448   7.796 128.452  0.00  0.00    -0.297 OA
BRANCH  14  16
ATOM     16  C   LIG A   1     -12.611   7.823 129.480  0.00  0.00    +0.049 C 
ATOM     17  C   LIG A   1     -12.880   9.306 129.263  0.00  0.00    +0.015 C 
ATOM     18  C   LIG A   1     -13.363   6.960 128.473  0.00  0.00    +0.015 C 
ENDBRANCH  14  16
ENDBRANCH  13  14
ENDBRANCH  12  13
ENDBRANCH  10  12
ENDBRANCH   5  10
TORSDOF 6
ENDMDL
