MODEL 1
REMARK VINA RESULT:      -7.3      0.000      0.000
REMARK  Name = NuBBE_2019
REMARK  6 active torsions:
REMARK  status: ('A' for Active; 'I' for Inactive)
REMARK    1  A    between atoms: C_6  and  O_7
REMARK    2  A    between atoms: C_8  and  O_9
REMARK    3  A    between atoms: O_9  and  C_10
REMARK    4  A    between atoms: C_14  and  C_15
REMARK    5  A    between atoms: C_18  and  O_19
REMARK    6  A    between atoms: O_19  and  C_20
REMARK                            x       y       z     vdW  Elec       q    Type
REMARK                         _______ _______ _______ _____ _____    ______ ____
ROOT
ATOM      1  O   LIG A   1     -11.146   3.917 129.994  0.00  0.00    -0.286 OA
ATOM      2  C   LIG A   1     -10.430   4.296 130.918  0.00  0.00    +0.200 A 
ATOM      3  C   LIG A   1      -9.564   3.324 131.597  0.00  0.00    +0.068 A 
ATOM      4  C   LIG A   1      -9.532   1.999 131.159  0.00  0.00    +0.019 A 
ATOM      5  C   LIG A   1      -8.715   1.080 131.807  0.00  0.00    +0.050 A 
ATOM      6  C   LIG A   1      -7.929   1.485 132.893  0.00  0.00    +0.162 A 
ATOM      7  C   LIG A   1      -7.949   2.816 133.342  0.00  0.00    +0.205 A 
ATOM      8  C   LIG A   1      -8.783   3.733 132.675  0.00  0.00    +0.183 A 
ATOM      9  O   LIG A   1      -8.801   5.034 133.120  0.00  0.00    -0.458 OA
ATOM     10  C   LIG A   1      -9.580   5.943 132.448  0.00  0.00    +0.208 A 
ATOM     11  C   LIG A   1     -10.390   5.707 131.401  0.00  0.00    +0.064 A 
ENDROOT
BRANCH  11  12
ATOM     12  C   LIG A   1     -11.156   6.797 130.753  0.00  0.00    -0.011 A 
ATOM     13  C   LIG A   1     -12.400   7.225 131.245  0.00  0.00    +0.012 A 
ATOM     14  C   LIG A   1     -13.102   8.262 130.620  0.00  0.00    +0.046 A 
ATOM     15  C   LIG A   1     -12.589   8.884 129.483  0.00  0.00    +0.120 A 
ATOM     16  C   LIG A   1     -11.367   8.459 128.973  0.00  0.00    +0.046 A 
ATOM     17  C   LIG A   1     -10.658   7.434 129.608  0.00  0.00    +0.012 A 
BRANCH  15  18
ATOM     18  O   LIG A   1     -13.364   9.884 128.965  0.00  0.00    -0.495 OA
ATOM     19  C   LIG A   1     -13.551  11.025 129.793  0.00  0.00    +0.277 C 
ENDBRANCH  15  18
ENDBRANCH  11  12
BRANCH   6  20
ATOM     20  O   LIG A   1      -7.148   0.536 133.494  0.00  0.00    -0.503 OA
ATOM     21  H   LIG A   1      -6.740  -0.025 132.815  0.00  0.00    +0.292 HD
ENDBRANCH   6  20
BRANCH   7  22
ATOM     22  O   LIG A   1      -7.236   3.356 134.381  0.00  0.00    -0.488 OA
ATOM     23  C   LIG A   1      -5.863   3.657 134.183  0.00  0.00    +0.277 C 
ENDBRANCH   7  22
TORSDOF 4
ENDMDL
MODEL 2
REMARK VINA RESULT:      -7.2      1.054      2.339
REMARK  Name = NuBBE_2019
REMARK  6 active torsions:
REMARK  status: ('A' for Active; 'I' for Inactive)
REMARK    1  A    between atoms: C_6  and  O_7
REMARK    2  A    between atoms: C_8  and  O_9
REMARK    3  A    between atoms: O_9  and  C_10
REMARK    4  A    between atoms: C_14  and  C_15
REMARK    5  A    between atoms: C_18  and  O_19
REMARK    6  A    between atoms: O_19  and  C_20
REMARK                            x       y       z     vdW  Elec       q    Type
REMARK                         _______ _______ _______ _____ _____    ______ ____
ROOT
ATOM      1  O   LIG A   1      -9.610   6.611 132.806  0.00  0.00    -0.286 OA
ATOM      2  C   LIG A   1      -9.771   5.631 132.082  0.00  0.00    +0.200 A 
ATOM      3  C   LIG A   1      -9.138   4.359 132.449  0.00  0.00    +0.068 A 
ATOM      4  C   LIG A   1      -8.401   4.266 133.631  0.00  0.00    +0.019 A 
ATOM      5  C   LIG A   1      -7.799   3.061 133.973  0.00  0.00    +0.050 A 
ATOM      6  C   LIG A   1      -7.933   1.948 133.135  0.00  0.00    +0.162 A 
ATOM      7  C   LIG A   1      -8.674   2.026 131.945  0.00  0.00    +0.205 A 
ATOM      8  C   LIG A   1      -9.277   3.254 131.612  0.00  0.00    +0.183 A 
ATOM      9  O   LIG A   1      -9.999   3.326 130.444  0.00  0.00    -0.458 OA
ATOM     10  C   LIG A   1     -10.623   4.509 130.135  0.00  0.00    +0.208 A 
ATOM     11  C   LIG A   1     -10.582   5.658 130.830  0.00  0.00    +0.064 A 
ENDROOT
BRANCH  11  12
ATOM     12  C   LIG A   1     -11.334   6.858 130.389  0.00  0.00    -0.011 A 
ATOM     13  C   LIG A   1     -12.455   7.331 131.089  0.00  0.00    +0.012 A 
ATOM     14  C   LIG A   1     -13.143   8.471 130.657  0.00  0.00    +0.046 A 
ATOM     15  C   LIG A   1     -12.741   9.154 129.510  0.00  0.00    +0.120 A 
ATOM     16  C   LIG A   1     -11.643   8.686 128.796  0.00  0.00    +0.046 A 
ATOM     17  C   LIG A   1     -10.945   7.557 129.238  0.00  0.00    +0.012 A 
BRANCH  15  18
ATOM     18  O   LIG A   1     -13.489  10.252 129.192  0.00  0.00    -0.495 OA
ATOM     19  C   LIG A   1     -13.561  11.271 130.181  0.00  0.00    +0.277 C 
ENDBRANCH  15  18
ENDBRANCH  11  12
BRANCH   6  20
ATOM     20  O   LIG A   1      -7.315   0.790 133.521  0.00  0.00    -0.503 OA
ATOM     21  H   LIG A   1      -7.541   0.079 132.899  0.00  0.00    +0.292 HD
ENDBRANCH   6  20
BRANCH   7  22
ATOM     22  O   LIG A   1      -8.896   1.026 131.033  0.00  0.00    -0.488 OA
ATOM     23  C   LIG A   1      -7.865   0.700 130.114  0.00  0.00    +0.277 C 
ENDBRANCH   7  22
TORSDOF 4
ENDMDL
MODEL 3
REMARK VINA RESULT:      -6.8      9.358     11.724
REMARK  Name = NuBBE_2019
REMARK  6 active torsions:
REMARK  status: ('A' for Active; 'I' for Inactive)
REMARK    1  A    between atoms: C_6  and  O_7
REMARK    2  A    between atoms: C_8  and  O_9
REMARK    3  A    between atoms: O_9  and  C_10
REMARK    4  A    between atoms: C_14  and  C_15
REMARK    5  A    between atoms: C_18  and  O_19
REMARK    6  A    between atoms: O_19  and  C_20
REMARK                            x       y       z     vdW  Elec       q    Type
REMARK                         _______ _______ _______ _____ _____    ______ ____
ROOT
ATOM      1  O   LIG A   1      -4.922  -2.035 128.292  0.00  0.00    -0.286 OA
ATOM      2  C   LIG A   1      -6.051  -2.364 127.931  0.00  0.00    +0.200 A 
ATOM      3  C   LIG A   1      -6.462  -2.104 126.546  0.00  0.00    +0.068 A 
ATOM      4  C   LIG A   1      -5.559  -1.530 125.650  0.00  0.00    +0.019 A 
ATOM      5  C   LIG A   1      -5.954  -1.280 124.341  0.00  0.00    +0.050 A 
ATOM      6  C   LIG A   1      -7.251  -1.605 123.927  0.00  0.00    +0.162 A 
ATOM      7  C   LIG A   1      -8.169  -2.187 124.817  0.00  0.00    +0.205 A 
ATOM      8  C   LIG A   1      -7.753  -2.432 126.139  0.00  0.00    +0.183 A 
ATOM      9  O   LIG A   1      -8.656  -2.999 127.007  0.00  0.00    -0.458 OA
ATOM     10  C   LIG A   1      -8.244  -3.278 128.287  0.00  0.00    +0.208 A 
ATOM     11  C   LIG A   1      -7.043  -3.020 128.831  0.00  0.00    +0.064 A 
ENDROOT
BRANCH  11  12
ATOM     12  C   LIG A   1      -6.726  -3.405 130.227  0.00  0.00    -0.011 A 
ATOM     13  C   LIG A   1      -7.288  -2.739 131.327  0.00  0.00    +0.012 A 
ATOM     14  C   LIG A   1      -6.979  -3.126 132.637  0.00  0.00    +0.046 A 
ATOM     15  C   LIG A   1      -6.091  -4.173 132.879  0.00  0.00    +0.120 A 
ATOM     16  C   LIG A   1      -5.512  -4.831 131.798  0.00  0.00    +0.046 A 
ATOM     17  C   LIG A   1      -5.834  -4.455 130.491  0.00  0.00    +0.012 A 
BRANCH  15  18
ATOM     18  O   LIG A   1      -5.871  -4.460 134.196  0.00  0.00    -0.495 OA
ATOM     19  C   LIG A   1      -6.347  -5.721 134.652  0.00  0.00    +0.277 C 
ENDBRANCH  15  18
ENDBRANCH  11  12
BRANCH   6  20
ATOM     20  O   LIG A   1      -7.584  -1.333 122.628  0.00  0.00    -0.503 OA
ATOM     21  H   LIG A   1      -8.300  -1.926 122.346  0.00  0.00    +0.292 HD
ENDBRANCH   6  20
BRANCH   7  22
ATOM     22  O   LIG A   1      -9.461  -2.561 124.555  0.00  0.00    -0.488 OA
ATOM     23  C   LIG A   1      -9.699  -3.548 123.563  0.00  0.00    +0.277 C 
ENDBRANCH   7  22
TORSDOF 4
ENDMDL
MODEL 4
REMARK VINA RESULT:      -6.6      2.168      7.535
REMARK  Name = NuBBE_2019
REMARK  6 active torsions:
REMARK  status: ('A' for Active; 'I' for Inactive)
REMARK    1  A    between atoms: C_6  and  O_7
REMARK    2  A    between atoms: C_8  and  O_9
REMARK    3  A    between atoms: O_9  and  C_10
REMARK    4  A    between atoms: C_14  and  C_15
REMARK    5  A    between atoms: C_18  and  O_19
REMARK    6  A    between atoms: O_19  and  C_20
REMARK                            x       y       z     vdW  Elec       q    Type
REMARK                         _______ _______ _______ _____ _____    ______ ____
ROOT
ATOM      1  O   LIG A   1     -10.318   6.374 132.940  0.00  0.00    -0.286 OA
ATOM      2  C   LIG A   1     -10.072   6.220 131.745  0.00  0.00    +0.200 A 
ATOM      3  C   LIG A   1     -11.059   6.654 130.750  0.00  0.00    +0.068 A 
ATOM      4  C   LIG A   1     -12.239   7.272 131.167  0.00  0.00    +0.019 A 
ATOM      5  C   LIG A   1     -13.174   7.677 130.221  0.00  0.00    +0.050 A 
ATOM      6  C   LIG A   1     -12.930   7.466 128.859  0.00  0.00    +0.162 A 
ATOM      7  C   LIG A   1     -11.745   6.848 128.426  0.00  0.00    +0.205 A 
ATOM      8  C   LIG A   1     -10.809   6.443 129.396  0.00  0.00    +0.183 A 
ATOM      9  O   LIG A   1      -9.652   5.836 128.967  0.00  0.00    -0.458 OA
ATOM     10  C   LIG A   1      -8.717   5.477 129.905  0.00  0.00    +0.208 A 
ATOM     11  C   LIG A   1      -8.810   5.606 131.240  0.00  0.00    +0.064 A 
ENDROOT
BRANCH  11  12
ATOM     12  C   LIG A   1      -7.703   5.197 132.137  0.00  0.00    -0.011 A 
ATOM     13  C   LIG A   1      -7.708   3.964 132.808  0.00  0.00    +0.012 A 
ATOM     14  C   LIG A   1      -6.647   3.596 133.644  0.00  0.00    +0.046 A 
ATOM     15  C   LIG A   1      -5.567   4.455 133.843  0.00  0.00    +0.120 A 
ATOM     16  C   LIG A   1      -5.557   5.688 133.199  0.00  0.00    +0.046 A 
ATOM     17  C   LIG A   1      -6.609   6.047 132.351  0.00  0.00    +0.012 A 
BRANCH  15  18
ATOM     18  O   LIG A   1      -4.593   3.985 134.678  0.00  0.00    -0.495 OA
ATOM     19  C   LIG A   1      -3.378   3.579 134.059  0.00  0.00    +0.277 C 
ENDBRANCH  15  18
ENDBRANCH  11  12
BRANCH   6  20
ATOM     20  O   LIG A   1     -13.887   7.881 127.975  0.00  0.00    -0.503 OA
ATOM     21  H   LIG A   1     -14.649   7.279 128.015  0.00  0.00    +0.292 HD
ENDBRANCH   6  20
BRANCH   7  22
ATOM     22  O   LIG A   1     -11.369   6.581 127.135  0.00  0.00    -0.488 OA
ATOM     23  C   LIG A   1     -10.903   7.649 126.324  0.00  0.00    +0.277 C 
ENDBRANCH   7  22
TORSDOF 4
ENDMDL
MODEL 5
REMARK VINA RESULT:      -6.6      9.023     11.406
REMARK  Name = NuBBE_2019
REMARK  6 active torsions:
REMARK  status: ('A' for Active; 'I' for Inactive)
REMARK    1  A    between atoms: C_6  and  O_7
REMARK    2  A    between atoms: C_8  and  O_9
REMARK    3  A    between atoms: O_9  and  C_10
REMARK    4  A    between atoms: C_14  and  C_15
REMARK    5  A    between atoms: C_18  and  O_19
REMARK    6  A    between atoms: O_19  and  C_20
REMARK                            x       y       z     vdW  Elec       q    Type
REMARK                         _______ _______ _______ _____ _____    ______ ____
ROOT
ATOM      1  O   LIG A   1      -9.205  -3.745 128.518  0.00  0.00    -0.286 OA
ATOM      2  C   LIG A   1      -8.195  -3.287 127.987  0.00  0.00    +0.200 A 
ATOM      3  C   LIG A   1      -8.211  -3.002 126.547  0.00  0.00    +0.068 A 
ATOM      4  C   LIG A   1      -9.378  -3.214 125.811  0.00  0.00    +0.019 A 
ATOM      5  C   LIG A   1      -9.387  -2.948 124.447  0.00  0.00    +0.050 A 
ATOM      6  C   LIG A   1      -8.232  -2.470 123.818  0.00  0.00    +0.162 A 
ATOM      7  C   LIG A   1      -7.052  -2.250 124.547  0.00  0.00    +0.205 A 
ATOM      8  C   LIG A   1      -7.058  -2.525 125.927  0.00  0.00    +0.183 A 
ATOM      9  O   LIG A   1      -5.900  -2.311 126.636  0.00  0.00    -0.458 OA
ATOM     10  C   LIG A   1      -5.912  -2.538 127.990  0.00  0.00    +0.208 A 
ATOM     11  C   LIG A   1      -6.934  -3.000 128.730  0.00  0.00    +0.064 A 
ENDROOT
BRANCH  11  12
ATOM     12  C   LIG A   1      -6.813  -3.172 130.198  0.00  0.00    -0.011 A 
ATOM     13  C   LIG A   1      -6.012  -4.176 130.765  0.00  0.00    +0.012 A 
ATOM     14  C   LIG A   1      -5.908  -4.313 132.154  0.00  0.00    +0.046 A 
ATOM     15  C   LIG A   1      -6.611  -3.464 133.008  0.00  0.00    +0.120 A 
ATOM     16  C   LIG A   1      -7.422  -2.476 132.460  0.00  0.00    +0.046 A 
ATOM     17  C   LIG A   1      -7.512  -2.329 131.073  0.00  0.00    +0.012 A 
BRANCH  15  18
ATOM     18  O   LIG A   1      -6.426  -3.694 134.342  0.00  0.00    -0.495 OA
ATOM     19  C   LIG A   1      -7.521  -4.280 135.036  0.00  0.00    +0.277 C 
ENDBRANCH  15  18
ENDBRANCH  11  12
BRANCH   6  20
ATOM     20  O   LIG A   1      -8.299  -2.231 122.473  0.00  0.00    -0.503 OA
ATOM     21  H   LIG A   1      -9.219  -2.044 122.222  0.00  0.00    +0.292 HD
ENDBRANCH   6  20
BRANCH   7  22
ATOM     22  O   LIG A   1      -5.853  -1.785 124.072  0.00  0.00    -0.488 OA
ATOM     23  C   LIG A   1      -4.974  -2.694 123.428  0.00  0.00    +0.277 C 
ENDBRANCH   7  22
TORSDOF 4
ENDMDL
MODEL 6
REMARK VINA RESULT:      -6.3      8.439      9.722
REMARK  Name = NuBBE_2019
REMARK  6 active torsions:
REMARK  status: ('A' for Active; 'I' for Inactive)
REMARK    1  A    between atoms: C_6  and  O_7
REMARK    2  A    between atoms: C_8  and  O_9
REMARK    3  A    between atoms: O_9  and  C_10
REMARK    4  A    between atoms: C_14  and  C_15
REMARK    5  A    between atoms: C_18  and  O_19
REMARK    6  A    between atoms: O_19  and  C_20
REMARK                            x       y       z     vdW  Elec       q    Type
REMARK                         _______ _______ _______ _____ _____    ______ ____
ROOT
ATOM      1  O   LIG A   1      -8.267  -1.386 131.077  0.00  0.00    -0.286 OA
ATOM      2  C   LIG A   1      -7.516  -2.359 131.097  0.00  0.00    +0.200 A 
ATOM      3  C   LIG A   1      -6.906  -2.765 132.369  0.00  0.00    +0.068 A 
ATOM      4  C   LIG A   1      -7.218  -2.073 133.541  0.00  0.00    +0.019 A 
ATOM      5  C   LIG A   1      -6.635  -2.457 134.742  0.00  0.00    +0.050 A 
ATOM      6  C   LIG A   1      -5.740  -3.532 134.775  0.00  0.00    +0.162 A 
ATOM      7  C   LIG A   1      -5.419  -4.240 133.604  0.00  0.00    +0.205 A 
ATOM      8  C   LIG A   1      -6.018  -3.837 132.396  0.00  0.00    +0.183 A 
ATOM      9  O   LIG A   1      -5.698  -4.531 131.252  0.00  0.00    -0.458 OA
ATOM     10  C   LIG A   1      -6.310  -4.170 130.077  0.00  0.00    +0.208 A 
ATOM     11  C   LIG A   1      -7.179  -3.163 129.887  0.00  0.00    +0.064 A 
ENDROOT
BRANCH  11  12
ATOM     12  C   LIG A   1      -7.787  -2.904 128.560  0.00  0.00    -0.011 A 
ATOM     13  C   LIG A   1      -8.731  -3.775 127.992  0.00  0.00    +0.012 A 
ATOM     14  C   LIG A   1      -9.296  -3.505 126.741  0.00  0.00    +0.046 A 
ATOM     15  C   LIG A   1      -8.922  -2.372 126.019  0.00  0.00    +0.120 A 
ATOM     16  C   LIG A   1      -7.973  -1.510 126.560  0.00  0.00    +0.046 A 
ATOM     17  C   LIG A   1      -7.422  -1.771 127.818  0.00  0.00    +0.012 A 
BRANCH  15  18
ATOM     18  O   LIG A   1      -9.544  -2.215 124.813  0.00  0.00    -0.495 OA
ATOM     19  C   LIG A   1      -9.359  -3.263 123.870  0.00  0.00    +0.277 C 
ENDBRANCH  15  18
ENDBRANCH  11  12
BRANCH   6  20
ATOM     20  O   LIG A   1      -5.194  -3.862 135.985  0.00  0.00    -0.503 OA
ATOM     21  H   LIG A   1      -5.691  -4.599 136.375  0.00  0.00    +0.292 HD
ENDBRANCH   6  20
BRANCH   7  22
ATOM     22  O   LIG A   1      -4.570  -5.309 133.483  0.00  0.00    -0.488 OA
ATOM     23  C   LIG A   1      -3.171  -5.081 133.552  0.00  0.00    +0.277 C 
ENDBRANCH   7  22
TORSDOF 4
ENDMDL
MODEL 7
REMARK VINA RESULT:      -6.2      1.729      7.783
REMARK  Name = NuBBE_2019
REMARK  6 active torsions:
REMARK  status: ('A' for Active; 'I' for Inactive)
REMARK    1  A    between atoms: C_6  and  O_7
REMARK    2  A    between atoms: C_8  and  O_9
REMARK    3  A    between atoms: O_9  and  C_10
REMARK    4  A    between atoms: C_14  and  C_15
REMARK    5  A    between atoms: C_18  and  O_19
REMARK    6  A    between atoms: O_19  and  C_20
REMARK                            x       y       z     vdW  Elec       q    Type
REMARK                         _______ _______ _______ _____ _____    ______ ____
ROOT
ATOM      1  O   LIG A   1     -10.742   5.372 132.291  0.00  0.00    -0.286 OA
ATOM      2  C   LIG A   1     -10.376   5.666 131.154  0.00  0.00    +0.200 A 
ATOM      3  C   LIG A   1     -11.058   6.755 130.444  0.00  0.00    +0.068 A 
ATOM      4  C   LIG A   1     -12.076   7.468 131.079  0.00  0.00    +0.019 A 
ATOM      5  C   LIG A   1     -12.722   8.495 130.402  0.00  0.00    +0.050 A 
ATOM      6  C   LIG A   1     -12.351   8.812 129.090  0.00  0.00    +0.162 A 
ATOM      7  C   LIG A   1     -11.325   8.105 128.439  0.00  0.00    +0.205 A 
ATOM      8  C   LIG A   1     -10.682   7.067 129.139  0.00  0.00    +0.183 A 
ATOM      9  O   LIG A   1      -9.681   6.376 128.497  0.00  0.00    -0.458 OA
ATOM     10  C   LIG A   1      -9.022   5.390 129.189  0.00  0.00    +0.208 A 
ATOM     11  C   LIG A   1      -9.267   4.969 130.441  0.00  0.00    +0.064 A 
ENDROOT
BRANCH  11  12
ATOM     12  C   LIG A   1      -8.451   3.906 131.075  0.00  0.00    -0.011 A 
ATOM     13  C   LIG A   1      -7.195   4.173 131.643  0.00  0.00    +0.012 A 
ATOM     14  C   LIG A   1      -6.447   3.153 132.243  0.00  0.00    +0.046 A 
ATOM     15  C   LIG A   1      -6.924   1.844 132.275  0.00  0.00    +0.120 A 
ATOM     16  C   LIG A   1      -8.159   1.561 131.700  0.00  0.00    +0.046 A 
ATOM     17  C   LIG A   1      -8.914   2.583 131.116  0.00  0.00    +0.012 A 
BRANCH  15  18
ATOM     18  O   LIG A   1      -6.106   0.938 132.889  0.00  0.00    -0.495 OA
ATOM     19  C   LIG A   1      -5.985   1.059 134.301  0.00  0.00    +0.277 C 
ENDBRANCH  15  18
ENDBRANCH  11  12
BRANCH   6  20
ATOM     20  O   LIG A   1     -13.024   9.829 128.472  0.00  0.00    -0.503 OA
ATOM     21  H   LIG A   1     -13.764  10.115 129.032  0.00  0.00    +0.292 HD
ENDBRANCH   6  20
BRANCH   7  22
ATOM     22  O   LIG A   1     -10.853   8.303 127.168  0.00  0.00    -0.488 OA
ATOM     23  C   LIG A   1     -11.473   7.613 126.094  0.00  0.00    +0.277 C 
ENDBRANCH   7  22
TORSDOF 4
ENDMDL
MODEL 8
REMARK VINA RESULT:      -6.0      3.139      8.702
REMARK  Name = NuBBE_2019
REMARK  6 active torsions:
REMARK  status: ('A' for Active; 'I' for Inactive)
REMARK    1  A    between atoms: C_6  and  O_7
REMARK    2  A    between atoms: C_8  and  O_9
REMARK    3  A    between atoms: O_9  and  C_10
REMARK    4  A    between atoms: C_14  and  C_15
REMARK    5  A    between atoms: C_18  and  O_19
REMARK    6  A    between atoms: O_19  and  C_20
REMARK                            x       y       z     vdW  Elec       q    Type
REMARK                         _______ _______ _______ _____ _____    ______ ____
ROOT
ATOM      1  O   LIG A   1      -7.368   0.768 133.430  0.00  0.00    -0.286 OA
ATOM      2  C   LIG A   1      -7.856   1.307 132.439  0.00  0.00    +0.200 A 
ATOM      3  C   LIG A   1      -8.459   2.639 132.574  0.00  0.00    +0.068 A 
ATOM      4  C   LIG A   1      -8.432   3.291 133.808  0.00  0.00    +0.019 A 
ATOM      5  C   LIG A   1      -9.009   4.549 133.933  0.00  0.00    +0.050 A 
ATOM      6  C   LIG A   1      -9.611   5.157 132.825  0.00  0.00    +0.162 A 
ATOM      7  C   LIG A   1      -9.642   4.514 131.576  0.00  0.00    +0.205 A 
ATOM      8  C   LIG A   1      -9.054   3.240 131.467  0.00  0.00    +0.183 A 
ATOM      9  O   LIG A   1      -9.090   2.613 130.244  0.00  0.00    -0.458 OA
ATOM     10  C   LIG A   1      -8.482   1.388 130.121  0.00  0.00    +0.208 A 
ATOM     11  C   LIG A   1      -7.874   0.678 131.087  0.00  0.00    +0.064 A 
ENDROOT
BRANCH  11  12
ATOM     12  C   LIG A   1      -7.233  -0.627 130.802  0.00  0.00    -0.011 A 
ATOM     13  C   LIG A   1      -5.841  -0.802 130.871  0.00  0.00    +0.012 A 
ATOM     14  C   LIG A   1      -5.259  -2.047 130.605  0.00  0.00    +0.046 A 
ATOM     15  C   LIG A   1      -6.048  -3.140 130.249  0.00  0.00    +0.120 A 
ATOM     16  C   LIG A   1      -7.426  -2.978 130.158  0.00  0.00    +0.046 A 
ATOM     17  C   LIG A   1      -8.008  -1.738 130.441  0.00  0.00    +0.012 A 
BRANCH  15  18
ATOM     18  O   LIG A   1      -5.366  -4.302 130.017  0.00  0.00    -0.495 OA
ATOM     19  C   LIG A   1      -5.467  -5.300 131.024  0.00  0.00    +0.277 C 
ENDBRANCH  15  18
ENDBRANCH  11  12
BRANCH   6  20
ATOM     20  O   LIG A   1     -10.166   6.394 133.008  0.00  0.00    -0.503 OA
ATOM     21  H   LIG A   1     -10.074   6.655 133.940  0.00  0.00    +0.292 HD
ENDBRANCH   6  20
BRANCH   7  22
ATOM     22  O   LIG A   1     -10.187   4.984 130.410  0.00  0.00    -0.488 OA
ATOM     23  C   LIG A   1      -9.481   5.971 129.675  0.00  0.00    +0.277 C 
ENDBRANCH   7  22
TORSDOF 4
ENDMDL
MODEL 9
REMARK VINA RESULT:      -6.0      8.010     10.978
REMARK  Name = NuBBE_2019
REMARK  6 active torsions:
REMARK  status: ('A' for Active; 'I' for Inactive)
REMARK    1  A    between atoms: C_6  and  O_7
REMARK    2  A    between atoms: C_8  and  O_9
REMARK    3  A    between atoms: O_9  and  C_10
REMARK    4  A    between atoms: C_14  and  C_15
REMARK    5  A    between atoms: C_18  and  O_19
REMARK    6  A    between atoms: O_19  and  C_20
REMARK                            x       y       z     vdW  Elec       q    Type
REMARK                         _______ _______ _______ _____ _____    ______ ____
ROOT
ATOM      1  O   LIG A   1      -4.919   1.101 128.222  0.00  0.00    -0.286 OA
ATOM      2  C   LIG A   1      -5.578   0.837 127.218  0.00  0.00    +0.200 A 
ATOM      3  C   LIG A   1      -5.672   1.832 126.143  0.00  0.00    +0.068 A 
ATOM      4  C   LIG A   1      -4.981   3.040 126.253  0.00  0.00    +0.019 A 
ATOM      5  C   LIG A   1      -5.077   3.982 125.235  0.00  0.00    +0.050 A 
ATOM      6  C   LIG A   1      -5.861   3.716 124.106  0.00  0.00    +0.162 A 
ATOM      7  C   LIG A   1      -6.558   2.503 123.981  0.00  0.00    +0.205 A 
ATOM      8  C   LIG A   1      -6.452   1.561 125.021  0.00  0.00    +0.183 A 
ATOM      9  O   LIG A   1      -7.139   0.376 124.895  0.00  0.00    -0.458 OA
ATOM     10  C   LIG A   1      -7.006  -0.564 125.887  0.00  0.00    +0.208 A 
ATOM     11  C   LIG A   1      -6.301  -0.453 127.026  0.00  0.00    +0.064 A 
ENDROOT
BRANCH  11  12
ATOM     12  C   LIG A   1      -6.224  -1.567 128.000  0.00  0.00    -0.011 A 
ATOM     13  C   LIG A   1      -5.011  -2.207 128.303  0.00  0.00    +0.012 A 
ATOM     14  C   LIG A   1      -4.963  -3.252 129.233  0.00  0.00    +0.046 A 
ATOM     15  C   LIG A   1      -6.122  -3.694 129.869  0.00  0.00    +0.120 A 
ATOM     16  C   LIG A   1      -7.334  -3.082 129.566  0.00  0.00    +0.046 A 
ATOM     17  C   LIG A   1      -7.379  -2.027 128.649  0.00  0.00    +0.012 A 
BRANCH  15  18
ATOM     18  O   LIG A   1      -5.948  -4.717 130.758  0.00  0.00    -0.495 OA
ATOM     19  C   LIG A   1      -4.993  -4.497 131.788  0.00  0.00    +0.277 C 
ENDBRANCH  15  18
ENDBRANCH  11  12
BRANCH   6  20
ATOM     20  O   LIG A   1      -5.921   4.681 123.139  0.00  0.00    -0.503 OA
ATOM     21  H   LIG A   1      -5.134   5.248 123.197  0.00  0.00    +0.292 HD
ENDBRANCH   6  20
BRANCH   7  22
ATOM     22  O   LIG A   1      -7.356   2.104 122.939  0.00  0.00    -0.488 OA
ATOM     23  C   LIG A   1      -8.655   2.662 122.821  0.00  0.00    +0.277 C 
ENDBRANCH   7  22
TORSDOF 4
ENDMDL
