MODEL 1
REMARK VINA RESULT:      -7.8      0.000      0.000
REMARK  Name = NuBBE_51
REMARK  24 active torsions:
REMARK  status: ('A' for Active; 'I' for Inactive)
REMARK    1  A    between atoms: C_1  and  C_2
REMARK    2  A    between atoms: C_4  and  O_6
REMARK    3  A    between atoms: O_6  and  C_7
REMARK    4  A    between atoms: C_7  and  C_8
REMARK    5  A    between atoms: C_8  and  C_9
REMARK    6  A    between atoms: C_9  and  C_10
REMARK    7  A    between atoms: C_12  and  O_14
REMARK    8  A    between atoms: O_14  and  C_15
REMARK    9  A    between atoms: C_15  and  C_16
REMARK   10  A    between atoms: C_20  and  O_22
REMARK   11  A    between atoms: O_22  and  C_23
REMARK   12  A    between atoms: C_23  and  C_24
REMARK   13  A    between atoms: C_24  and  C_25
REMARK   14  A    between atoms: C_25  and  C_26
REMARK   15  A    between atoms: C_29  and  O_31
REMARK   16  A    between atoms: O_31  and  C_32
REMARK   17  A    between atoms: C_32  and  C_33
REMARK   18  A    between atoms: C_36  and  O_38
REMARK   19  A    between atoms: O_38  and  C_39
REMARK   20  A    between atoms: C_43  and  C_44
REMARK   21  A    between atoms: C_43  and  C_45
REMARK   22  A    between atoms: C_45  and  C_46
REMARK   23  A    between atoms: C_47  and  C_48
REMARK   24  A    between atoms: C_47  and  C_50
REMARK                            x       y       z     vdW  Elec       q    Type
REMARK                         _______ _______ _______ _____ _____    ______ ____
ROOT
ATOM      1  C   LIG A   1      -7.022  -0.361 128.661  0.00  0.00    +0.012 C 
ATOM      2  C   LIG A   1      -7.405   1.078 129.019  0.00  0.00    +0.037 C 
ATOM      3  C   LIG A   1      -7.824   1.940 127.804  0.00  0.00    +0.221 C 
ATOM      4  C   LIG A   1      -7.941   3.500 128.144  0.00  0.00    +0.234 C 
ATOM      5  C   LIG A   1      -7.813   3.968 129.702  0.00  0.00    +0.104 C 
ATOM      6  C   LIG A   1      -9.233   4.165 130.245  0.00  0.00    +0.013 C 
ATOM      7  C   LIG A   1      -9.813   5.449 129.703  0.00  0.00    +0.343 C 
ATOM      8  O   LIG A   1      -8.684   6.227 129.306  0.00  0.00    -0.297 OA
ATOM      9  C   LIG A   1      -7.490   5.528 129.745  0.00  0.00    +0.328 C 
ATOM     10  C   LIG A   1      -9.801   3.444 131.210  0.00  0.00    +0.010 C 
ATOM     11  C   LIG A   1      -9.109   2.372 131.967  0.00  0.00    +0.141 C 
ATOM     12  C   LIG A   1      -7.591   2.463 131.902  0.00  0.00    +0.041 C 
ATOM     13  C   LIG A   1      -6.894   2.979 130.566  0.00  0.00    +0.018 C 
ATOM     14  C   LIG A   1      -6.276   1.716 129.835  0.00  0.00    -0.018 C 
ATOM     15  C   LIG A   1      -5.783   0.678 130.843  0.00  0.00    +0.012 C 
ENDROOT
BRANCH  11  16
ATOM     16  O   LIG A   1      -9.438   2.447 133.361  0.00  0.00    -0.376 OA
ATOM     17  C   LIG A   1      -9.107   3.679 133.974  0.00  0.00    +0.194 C 
ENDBRANCH  11  16
BRANCH   7  18
ATOM     18  O   LIG A   1     -10.728   6.194 130.525  0.00  0.00    -0.431 OA
BRANCH  18  19
ATOM     19  C   LIG A   1     -11.973   6.336 130.019  0.00  0.00    +0.309 C 
ATOM     20  O   LIG A   1     -12.443   5.653 129.128  0.00  0.00    -0.251 OA
BRANCH  19  21
ATOM     21  C   LIG A   1     -12.802   7.436 130.623  0.00  0.00    +0.120 C 
BRANCH  21  22
ATOM     22  C   LIG A   1     -12.664   8.794 129.957  0.00  0.00    +0.008 C 
ATOM     23  C   LIG A   1     -11.870   8.786 128.657  0.00  0.00    +0.004 C 
ENDBRANCH  21  22
ENDBRANCH  19  21
ENDBRANCH  18  19
ENDBRANCH   7  18
BRANCH   4  24
ATOM     24  O   LIG A   1      -7.235   4.494 127.258  0.00  0.00    -0.457 OA
BRANCH  24  25
ATOM     25  C   LIG A   1      -7.587   4.992 126.043  0.00  0.00    +0.304 C 
ATOM     26  C   LIG A   1      -6.443   4.955 125.040  0.00  0.00    +0.136 C 
ATOM     27  O   LIG A   1      -8.690   5.441 125.765  0.00  0.00    -0.251 OA
ENDBRANCH  24  25
ENDBRANCH   4  24
BRANCH   9  28
ATOM     28  O   LIG A   1      -6.829   6.297 130.784  0.00  0.00    -0.434 OA
BRANCH  28  29
ATOM     29  C   LIG A   1      -5.558   6.694 130.744  0.00  0.00    +0.306 C 
ATOM     30  C   LIG A   1      -4.661   6.037 131.676  0.00  0.00    +0.136 C 
ATOM     31  O   LIG A   1      -5.073   7.548 129.935  0.00  0.00    -0.251 OA
ENDBRANCH  28  29
ENDBRANCH   9  28
BRANCH  14  32
ATOM     32  C   LIG A   1      -4.998   1.993 128.988  0.00  0.00    +0.034 C 
BRANCH  32  33
ATOM     33  C   LIG A   1      -4.309   3.341 129.016  0.00  0.00    -0.023 C 
ATOM     34  C   LIG A   1      -3.421   3.982 128.226  0.00  0.00    -0.055 C 
ATOM     35  C   LIG A   1      -2.744   5.226 128.692  0.00  0.00    +0.043 C 
BRANCH  34  36
ATOM     36  C   LIG A   1      -2.855   3.676 126.929  0.00  0.00    -0.005 C 
ATOM     37  C   LIG A   1      -1.692   3.050 126.707  0.00  0.00    +0.008 C 
ENDBRANCH  34  36
ENDBRANCH  32  33
ENDBRANCH  14  32
BRANCH   3  38
ATOM     38  O   LIG A   1      -9.147   1.464 127.319  0.00  0.00    -0.457 OA
BRANCH  38  39
ATOM     39  C   LIG A   1      -9.322   0.927 126.073  0.00  0.00    +0.307 C 
ATOM     40  O   LIG A   1     -10.296   0.305 125.669  0.00  0.00    -0.251 OA
BRANCH  39  41
ATOM     41  C   LIG A   1      -8.321   1.396 125.081  0.00  0.00    +0.120 C 
BRANCH  41  42
ATOM     42  C   LIG A   1      -7.660   0.141 124.501  0.00  0.00    +0.008 C 
ATOM     43  C   LIG A   1      -6.272  -0.042 125.064  0.00  0.00    +0.004 C 
ENDBRANCH  41  42
ENDBRANCH  39  41
ENDBRANCH  38  39
ENDBRANCH   3  38
TORSDOF 16
ENDMDL
MODEL 2
REMARK VINA RESULT:      -7.6      1.825      5.442
REMARK  Name = NuBBE_51
REMARK  24 active torsions:
REMARK  status: ('A' for Active; 'I' for Inactive)
REMARK    1  A    between atoms: C_1  and  C_2
REMARK    2  A    between atoms: C_4  and  O_6
REMARK    3  A    between atoms: O_6  and  C_7
REMARK    4  A    between atoms: C_7  and  C_8
REMARK    5  A    between atoms: C_8  and  C_9
REMARK    6  A    between atoms: C_9  and  C_10
REMARK    7  A    between atoms: C_12  and  O_14
REMARK    8  A    between atoms: O_14  and  C_15
REMARK    9  A    between atoms: C_15  and  C_16
REMARK   10  A    between atoms: C_20  and  O_22
REMARK   11  A    between atoms: O_22  and  C_23
REMARK   12  A    between atoms: C_23  and  C_24
REMARK   13  A    between atoms: C_24  and  C_25
REMARK   14  A    between atoms: C_25  and  C_26
REMARK   15  A    between atoms: C_29  and  O_31
REMARK   16  A    between atoms: O_31  and  C_32
REMARK   17  A    between atoms: C_32  and  C_33
REMARK   18  A    between atoms: C_36  and  O_38
REMARK   19  A    between atoms: O_38  and  C_39
REMARK   20  A    between atoms: C_43  and  C_44
REMARK   21  A    between atoms: C_43  and  C_45
REMARK   22  A    between atoms: C_45  and  C_46
REMARK   23  A    between atoms: C_47  and  C_48
REMARK   24  A    between atoms: C_47  and  C_50
REMARK                            x       y       z     vdW  Elec       q    Type
REMARK                         _______ _______ _______ _____ _____    ______ ____
ROOT
ATOM      1  C   LIG A   1      -3.999   2.782 132.678  0.00  0.00    +0.012 C 
ATOM      2  C   LIG A   1      -5.136   3.443 131.891  0.00  0.00    +0.037 C 
ATOM      3  C   LIG A   1      -6.536   2.862 132.197  0.00  0.00    +0.221 C 
ATOM      4  C   LIG A   1      -7.664   3.352 131.172  0.00  0.00    +0.234 C 
ATOM      5  C   LIG A   1      -7.281   4.513 130.091  0.00  0.00    +0.104 C 
ATOM      6  C   LIG A   1      -7.788   5.848 130.647  0.00  0.00    +0.013 C 
ATOM      7  C   LIG A   1      -9.288   5.928 130.493  0.00  0.00    +0.343 C 
ATOM      8  O   LIG A   1      -9.606   4.984 129.470  0.00  0.00    -0.297 OA
ATOM      9  C   LIG A   1      -8.357   4.496 128.916  0.00  0.00    +0.328 C 
ATOM     10  C   LIG A   1      -7.025   6.877 131.010  0.00  0.00    +0.010 C 
ATOM     11  C   LIG A   1      -5.549   6.913 130.864  0.00  0.00    +0.141 C 
ATOM     12  C   LIG A   1      -5.013   5.911 129.851  0.00  0.00    +0.041 C 
ATOM     13  C   LIG A   1      -5.727   4.495 129.697  0.00  0.00    +0.018 C 
ATOM     14  C   LIG A   1      -4.799   3.417 130.396  0.00  0.00    -0.018 C 
ATOM     15  C   LIG A   1      -3.321   3.775 130.243  0.00  0.00    +0.012 C 
ENDROOT
BRANCH  11  16
ATOM     16  O   LIG A   1      -5.121   8.198 130.394  0.00  0.00    -0.376 OA
ATOM     17  C   LIG A   1      -3.934   8.172 129.621  0.00  0.00    +0.194 C 
ENDBRANCH  11  16
BRANCH   7  18
ATOM     18  O   LIG A   1      -9.891   7.212 130.261  0.00  0.00    -0.431 OA
BRANCH  18  19
ATOM     19  C   LIG A   1     -11.240   7.212 130.191  0.00  0.00    +0.309 C 
ATOM     20  O   LIG A   1     -11.979   6.734 131.032  0.00  0.00    -0.251 OA
BRANCH  19  21
ATOM     21  C   LIG A   1     -11.831   7.853 128.966  0.00  0.00    +0.120 C 
BRANCH  21  22
ATOM     22  C   LIG A   1     -10.828   8.288 127.913  0.00  0.00    +0.008 C 
ATOM     23  C   LIG A   1     -10.811   7.425 126.657  0.00  0.00    +0.004 C 
ENDBRANCH  21  22
ENDBRANCH  19  21
ENDBRANCH  18  19
ENDBRANCH   7  18
BRANCH   4  24
ATOM     24  O   LIG A   1      -8.550   2.324 130.517  0.00  0.00    -0.457 OA
BRANCH  24  25
ATOM     25  C   LIG A   1      -8.493   0.965 130.552  0.00  0.00    +0.304 C 
ATOM     26  C   LIG A   1      -9.196   0.381 131.769  0.00  0.00    +0.136 C 
ATOM     27  O   LIG A   1      -7.933   0.267 129.719  0.00  0.00    -0.251 OA
ENDBRANCH  24  25
ENDBRANCH   4  24
BRANCH   9  28
ATOM     28  O   LIG A   1      -8.221   4.951 127.544  0.00  0.00    -0.434 OA
BRANCH  28  29
ATOM     29  C   LIG A   1      -8.005   4.155 126.498  0.00  0.00    +0.306 C 
ATOM     30  C   LIG A   1      -7.259   4.743 125.400  0.00  0.00    +0.136 C 
ATOM     31  O   LIG A   1      -8.351   2.934 126.410  0.00  0.00    -0.251 OA
ENDBRANCH  28  29
ENDBRANCH   9  28
BRANCH  14  32
ATOM     32  C   LIG A   1      -4.861   1.985 129.785  0.00  0.00    +0.034 C 
BRANCH  32  33
ATOM     33  C   LIG A   1      -5.012   1.768 128.294  0.00  0.00    -0.023 C 
ATOM     34  C   LIG A   1      -4.468   2.313 127.185  0.00  0.00    -0.055 C 
ATOM     35  C   LIG A   1      -5.041   2.033 125.837  0.00  0.00    +0.043 C 
BRANCH  34  36
ATOM     36  C   LIG A   1      -3.394   3.262 126.978  0.00  0.00    -0.005 C 
ATOM     37  C   LIG A   1      -2.102   2.959 126.797  0.00  0.00    +0.008 C 
ENDBRANCH  34  36
ENDBRANCH  32  33
ENDBRANCH  14  32
BRANCH   3  38
ATOM     38  O   LIG A   1      -6.933   3.280 133.568  0.00  0.00    -0.457 OA
BRANCH  38  39
ATOM     39  C   LIG A   1      -8.154   3.834 133.842  0.00  0.00    +0.307 C 
ATOM     40  O   LIG A   1      -9.245   3.282 133.772  0.00  0.00    -0.251 OA
BRANCH  39  41
ATOM     41  C   LIG A   1      -8.067   5.146 134.532  0.00  0.00    +0.120 C 
BRANCH  41  42
ATOM     42  C   LIG A   1      -6.593   5.566 134.488  0.00  0.00    +0.008 C 
ATOM     43  C   LIG A   1      -6.102   5.940 135.864  0.00  0.00    +0.004 C 
ENDBRANCH  41  42
ENDBRANCH  39  41
ENDBRANCH  38  39
ENDBRANCH   3  38
TORSDOF 16
ENDMDL
MODEL 3
REMARK VINA RESULT:      -7.4      2.018      6.360
REMARK  Name = NuBBE_51
REMARK  24 active torsions:
REMARK  status: ('A' for Active; 'I' for Inactive)
REMARK    1  A    between atoms: C_1  and  C_2
REMARK    2  A    between atoms: C_4  and  O_6
REMARK    3  A    between atoms: O_6  and  C_7
REMARK    4  A    between atoms: C_7  and  C_8
REMARK    5  A    between atoms: C_8  and  C_9
REMARK    6  A    between atoms: C_9  and  C_10
REMARK    7  A    between atoms: C_12  and  O_14
REMARK    8  A    between atoms: O_14  and  C_15
REMARK    9  A    between atoms: C_15  and  C_16
REMARK   10  A    between atoms: C_20  and  O_22
REMARK   11  A    between atoms: O_22  and  C_23
REMARK   12  A    between atoms: C_23  and  C_24
REMARK   13  A    between atoms: C_24  and  C_25
REMARK   14  A    between atoms: C_25  and  C_26
REMARK   15  A    between atoms: C_29  and  O_31
REMARK   16  A    between atoms: O_31  and  C_32
REMARK   17  A    between atoms: C_32  and  C_33
REMARK   18  A    between atoms: C_36  and  O_38
REMARK   19  A    between atoms: O_38  and  C_39
REMARK   20  A    between atoms: C_43  and  C_44
REMARK   21  A    between atoms: C_43  and  C_45
REMARK   22  A    between atoms: C_45  and  C_46
REMARK   23  A    between atoms: C_47  and  C_48
REMARK   24  A    between atoms: C_47  and  C_50
REMARK                            x       y       z     vdW  Elec       q    Type
REMARK                         _______ _______ _______ _____ _____    ______ ____
ROOT
ATOM      1  C   LIG A   1      -4.290   6.572 130.551  0.00  0.00    +0.012 C 
ATOM      2  C   LIG A   1      -5.311   5.450 130.339  0.00  0.00    +0.037 C 
ATOM      3  C   LIG A   1      -5.806   5.315 128.880  0.00  0.00    +0.221 C 
ATOM      4  C   LIG A   1      -7.070   4.344 128.727  0.00  0.00    +0.234 C 
ATOM      5  C   LIG A   1      -7.551   3.483 130.027  0.00  0.00    +0.104 C 
ATOM      6  C   LIG A   1      -6.970   2.072 129.889  0.00  0.00    +0.013 C 
ATOM      7  C   LIG A   1      -7.746   1.301 128.848  0.00  0.00    +0.343 C 
ATOM      8  O   LIG A   1      -9.000   1.976 128.745  0.00  0.00    -0.297 OA
ATOM      9  C   LIG A   1      -9.046   2.984 129.788  0.00  0.00    +0.328 C 
ATOM     10  C   LIG A   1      -6.069   1.521 130.700  0.00  0.00    +0.010 C 
ATOM     11  C   LIG A   1      -5.535   2.175 131.919  0.00  0.00    +0.141 C 
ATOM     12  C   LIG A   1      -6.416   3.301 132.443  0.00  0.00    +0.041 C 
ATOM     13  C   LIG A   1      -7.210   4.219 131.410  0.00  0.00    +0.018 C 
ATOM     14  C   LIG A   1      -6.459   5.612 131.341  0.00  0.00    -0.018 C 
ATOM     15  C   LIG A   1      -5.851   5.982 132.693  0.00  0.00    +0.012 C 
ENDROOT
BRANCH  11  16
ATOM     16  O   LIG A   1      -5.439   1.232 132.995  0.00  0.00    -0.376 OA
ATOM     17  C   LIG A   1      -6.338   0.142 132.900  0.00  0.00    +0.194 C 
ENDBRANCH  11  16
BRANCH   7  18
ATOM     18  O   LIG A   1      -7.901  -0.119 129.013  0.00  0.00    -0.431 OA
BRANCH  18  19
ATOM     19  C   LIG A   1      -7.711  -0.854 127.895  0.00  0.00    +0.309 C 
ATOM     20  O   LIG A   1      -7.920  -0.462 126.763  0.00  0.00    -0.251 OA
BRANCH  19  21
ATOM     21  C   LIG A   1      -7.210  -2.255 128.112  0.00  0.00    +0.120 C 
BRANCH  21  22
ATOM     22  C   LIG A   1      -8.024  -3.093 129.083  0.00  0.00    +0.008 C 
ATOM     23  C   LIG A   1      -7.394  -3.258 130.461  0.00  0.00    +0.004 C 
ENDBRANCH  21  22
ENDBRANCH  19  21
ENDBRANCH  18  19
ENDBRANCH   7  18
BRANCH   4  24
ATOM     24  O   LIG A   1      -8.277   4.834 127.970  0.00  0.00    -0.457 OA
BRANCH  24  25
ATOM     25  C   LIG A   1      -8.511   4.891 126.631  0.00  0.00    +0.304 C 
ATOM     26  C   LIG A   1      -7.984   3.670 125.891  0.00  0.00    +0.136 C 
ATOM     27  O   LIG A   1      -9.067   5.817 126.058  0.00  0.00    -0.251 OA
ENDBRANCH  24  25
ENDBRANCH   4  24
BRANCH   9  28
ATOM     28  O   LIG A   1     -10.059   2.629 130.765  0.00  0.00    -0.434 OA
BRANCH  28  29
ATOM     29  C   LIG A   1      -9.841   1.889 131.851  0.00  0.00    +0.306 C 
ATOM     30  C   LIG A   1      -9.676   2.622 133.093  0.00  0.00    +0.136 C 
ATOM     31  O   LIG A   1      -9.816   0.618 131.890  0.00  0.00    -0.251 OA
ENDBRANCH  28  29
ENDBRANCH   9  28
BRANCH  14  32
ATOM     32  C   LIG A   1      -7.363   6.843 131.032  0.00  0.00    +0.034 C 
BRANCH  32  33
ATOM     33  C   LIG A   1      -8.872   6.728 131.005  0.00  0.00    -0.023 C 
ATOM     34  C   LIG A   1      -9.857   7.204 130.215  0.00  0.00    -0.055 C 
ATOM     35  C   LIG A   1     -11.286   7.104 130.631  0.00  0.00    +0.043 C 
BRANCH  34  36
ATOM     36  C   LIG A   1      -9.852   7.931 128.962  0.00  0.00    -0.005 C 
ATOM     37  C   LIG A   1     -10.934   8.326 128.279  0.00  0.00    +0.008 C 
ENDBRANCH  34  36
ENDBRANCH  32  33
ENDBRANCH  14  32
BRANCH   3  38
ATOM     38  O   LIG A   1      -4.696   4.775 128.051  0.00  0.00    -0.457 OA
BRANCH  38  39
ATOM     39  C   LIG A   1      -4.719   4.806 126.683  0.00  0.00    +0.307 C 
ATOM     40  O   LIG A   1      -5.177   5.694 125.975  0.00  0.00    -0.251 OA
BRANCH  39  41
ATOM     41  C   LIG A   1      -3.866   3.767 126.053  0.00  0.00    +0.120 C 
BRANCH  41  42
ATOM     42  C   LIG A   1      -2.962   3.214 127.160  0.00  0.00    +0.008 C 
ATOM     43  C   LIG A   1      -1.562   2.989 126.646  0.00  0.00    +0.004 C 
ENDBRANCH  41  42
ENDBRANCH  39  41
ENDBRANCH  38  39
ENDBRANCH   3  38
TORSDOF 16
ENDMDL
MODEL 4
REMARK VINA RESULT:      -7.3      2.727      7.803
REMARK  Name = NuBBE_51
REMARK  24 active torsions:
REMARK  status: ('A' for Active; 'I' for Inactive)
REMARK    1  A    between atoms: C_1  and  C_2
REMARK    2  A    between atoms: C_4  and  O_6
REMARK    3  A    between atoms: O_6  and  C_7
REMARK    4  A    between atoms: C_7  and  C_8
REMARK    5  A    between atoms: C_8  and  C_9
REMARK    6  A    between atoms: C_9  and  C_10
REMARK    7  A    between atoms: C_12  and  O_14
REMARK    8  A    between atoms: O_14  and  C_15
REMARK    9  A    between atoms: C_15  and  C_16
REMARK   10  A    between atoms: C_20  and  O_22
REMARK   11  A    between atoms: O_22  and  C_23
REMARK   12  A    between atoms: C_23  and  C_24
REMARK   13  A    between atoms: C_24  and  C_25
REMARK   14  A    between atoms: C_25  and  C_26
REMARK   15  A    between atoms: C_29  and  O_31
REMARK   16  A    between atoms: O_31  and  C_32
REMARK   17  A    between atoms: C_32  and  C_33
REMARK   18  A    between atoms: C_36  and  O_38
REMARK   19  A    between atoms: O_38  and  C_39
REMARK   20  A    between atoms: C_43  and  C_44
REMARK   21  A    between atoms: C_43  and  C_45
REMARK   22  A    between atoms: C_45  and  C_46
REMARK   23  A    between atoms: C_47  and  C_48
REMARK   24  A    between atoms: C_47  and  C_50
REMARK                            x       y       z     vdW  Elec       q    Type
REMARK                         _______ _______ _______ _____ _____    ______ ____
ROOT
ATOM      1  C   LIG A   1      -6.230   3.385 130.989  0.00  0.00    +0.012 C 
ATOM      2  C   LIG A   1      -6.512   2.463 129.799  0.00  0.00    +0.037 C 
ATOM      3  C   LIG A   1      -6.372   3.151 128.421  0.00  0.00    +0.221 C 
ATOM      4  C   LIG A   1      -6.944   2.270 127.211  0.00  0.00    +0.234 C 
ATOM      5  C   LIG A   1      -7.403   0.735 127.517  0.00  0.00    +0.104 C 
ATOM      6  C   LIG A   1      -6.251  -0.185 127.099  0.00  0.00    +0.013 C 
ATOM      7  C   LIG A   1      -6.205  -0.293 125.593  0.00  0.00    +0.343 C 
ATOM      8  O   LIG A   1      -7.510   0.083 125.155  0.00  0.00    -0.297 OA
ATOM      9  C   LIG A   1      -8.345   0.235 126.332  0.00  0.00    +0.328 C 
ATOM     10  C   LIG A   1      -5.532  -0.950 127.919  0.00  0.00    +0.010 C 
ATOM     11  C   LIG A   1      -5.788  -1.082 129.374  0.00  0.00    +0.141 C 
ATOM     12  C   LIG A   1      -7.194  -0.668 129.785  0.00  0.00    +0.041 C 
ATOM     13  C   LIG A   1      -7.910   0.535 129.024  0.00  0.00    +0.018 C 
ATOM     14  C   LIG A   1      -7.878   1.792 129.989  0.00  0.00    -0.018 C 
ATOM     15  C   LIG A   1      -7.992   1.371 131.453  0.00  0.00    +0.012 C 
ENDROOT
BRANCH  11  16
ATOM     16  O   LIG A   1      -5.656  -2.449 129.786  0.00  0.00    -0.376 OA
ATOM     17  C   LIG A   1      -4.498  -3.098 129.293  0.00  0.00    +0.194 C 
ENDBRANCH  11  16
BRANCH   7  18
ATOM     18  O   LIG A   1      -5.763  -1.527 125.003  0.00  0.00    -0.431 OA
BRANCH  18  19
ATOM     19  C   LIG A   1      -5.970  -1.636 123.672  0.00  0.00    +0.309 C 
ATOM     20  O   LIG A   1      -6.511  -0.792 122.982  0.00  0.00    -0.251 OA
BRANCH  19  21
ATOM     21  C   LIG A   1      -5.488  -2.912 123.039  0.00  0.00    +0.120 C 
BRANCH  21  22
ATOM     22  C   LIG A   1      -4.919  -3.940 124.000  0.00  0.00    +0.008 C 
ATOM     23  C   LIG A   1      -4.133  -5.064 123.336  0.00  0.00    +0.004 C 
ENDBRANCH  21  22
ENDBRANCH  19  21
ENDBRANCH  18  19
ENDBRANCH   7  18
BRANCH   4  24
ATOM     24  O   LIG A   1      -7.908   2.903 126.242  0.00  0.00    -0.457 OA
BRANCH  24  25
ATOM     25  C   LIG A   1      -7.678   3.736 125.192  0.00  0.00    +0.304 C 
ATOM     26  C   LIG A   1      -6.384   3.412 124.459  0.00  0.00    +0.136 C 
ATOM     27  O   LIG A   1      -8.407   4.660 124.860  0.00  0.00    -0.251 OA
ENDBRANCH  24  25
ENDBRANCH   4  24
BRANCH   9  28
ATOM     28  O   LIG A   1      -9.361  -0.802 126.347  0.00  0.00    -0.434 OA
BRANCH  28  29
ATOM     29  C   LIG A   1      -9.195  -2.035 125.872  0.00  0.00    +0.306 C 
ATOM     30  C   LIG A   1      -8.598  -2.990 126.788  0.00  0.00    +0.136 C 
ATOM     31  O   LIG A   1      -9.555  -2.442 124.722  0.00  0.00    -0.251 OA
ENDBRANCH  28  29
ENDBRANCH   9  28
BRANCH  14  32
ATOM     32  C   LIG A   1      -9.068   2.785 129.833  0.00  0.00    +0.034 C 
BRANCH  32  33
ATOM     33  C   LIG A   1      -9.532   3.648 130.987  0.00  0.00    -0.023 C 
ATOM     34  C   LIG A   1      -9.414   4.951 131.320  0.00  0.00    -0.055 C 
ATOM     35  C   LIG A   1      -9.783   5.426 132.684  0.00  0.00    +0.043 C 
BRANCH  34  36
ATOM     36  C   LIG A   1      -8.889   6.104 130.619  0.00  0.00    -0.005 C 
ATOM     37  C   LIG A   1      -7.875   6.878 131.028  0.00  0.00    +0.008 C 
ENDBRANCH  34  36
ENDBRANCH  32  33
ENDBRANCH  14  32
BRANCH   3  38
ATOM     38  O   LIG A   1      -4.931   3.417 128.168  0.00  0.00    -0.457 OA
BRANCH  38  39
ATOM     39  C   LIG A   1      -4.493   4.552 127.542  0.00  0.00    +0.307 C 
ATOM     40  O   LIG A   1      -5.184   5.447 127.071  0.00  0.00    -0.251 OA
BRANCH  39  41
ATOM     41  C   LIG A   1      -3.037   4.795 127.708  0.00  0.00    +0.120 C 
BRANCH  41  42
ATOM     42  C   LIG A   1      -2.356   3.423 127.648  0.00  0.00    +0.008 C 
ATOM     43  C   LIG A   1      -1.764   3.179 126.282  0.00  0.00    +0.004 C 
ENDBRANCH  41  42
ENDBRANCH  39  41
ENDBRANCH  38  39
ENDBRANCH   3  38
TORSDOF 16
ENDMDL
MODEL 5
REMARK VINA RESULT:      -7.2      2.695      6.695
REMARK  Name = NuBBE_51
REMARK  24 active torsions:
REMARK  status: ('A' for Active; 'I' for Inactive)
REMARK    1  A    between atoms: C_1  and  C_2
REMARK    2  A    between atoms: C_4  and  O_6
REMARK    3  A    between atoms: O_6  and  C_7
REMARK    4  A    between atoms: C_7  and  C_8
REMARK    5  A    between atoms: C_8  and  C_9
REMARK    6  A    between atoms: C_9  and  C_10
REMARK    7  A    between atoms: C_12  and  O_14
REMARK    8  A    between atoms: O_14  and  C_15
REMARK    9  A    between atoms: C_15  and  C_16
REMARK   10  A    between atoms: C_20  and  O_22
REMARK   11  A    between atoms: O_22  and  C_23
REMARK   12  A    between atoms: C_23  and  C_24
REMARK   13  A    between atoms: C_24  and  C_25
REMARK   14  A    between atoms: C_25  and  C_26
REMARK   15  A    between atoms: C_29  and  O_31
REMARK   16  A    between atoms: O_31  and  C_32
REMARK   17  A    between atoms: C_32  and  C_33
REMARK   18  A    between atoms: C_36  and  O_38
REMARK   19  A    between atoms: O_38  and  C_39
REMARK   20  A    between atoms: C_43  and  C_44
REMARK   21  A    between atoms: C_43  and  C_45
REMARK   22  A    between atoms: C_45  and  C_46
REMARK   23  A    between atoms: C_47  and  C_48
REMARK   24  A    between atoms: C_47  and  C_50
REMARK                            x       y       z     vdW  Elec       q    Type
REMARK                         _______ _______ _______ _____ _____    ______ ____
ROOT
ATOM      1  C   LIG A   1      -5.282  -1.595 128.394  0.00  0.00    +0.012 C 
ATOM      2  C   LIG A   1      -5.678  -0.115 128.417  0.00  0.00    +0.037 C 
ATOM      3  C   LIG A   1      -6.492   0.301 129.665  0.00  0.00    +0.221 C 
ATOM      4  C   LIG A   1      -7.140   1.760 129.541  0.00  0.00    +0.234 C 
ATOM      5  C   LIG A   1      -6.727   2.689 128.265  0.00  0.00    +0.104 C 
ATOM      6  C   LIG A   1      -5.640   3.662 128.733  0.00  0.00    +0.013 C 
ATOM      7  C   LIG A   1      -6.259   4.753 129.574  0.00  0.00    +0.343 C 
ATOM      8  O   LIG A   1      -7.641   4.756 129.217  0.00  0.00    -0.297 OA
ATOM      9  C   LIG A   1      -7.811   3.845 128.100  0.00  0.00    +0.328 C 
ATOM     10  C   LIG A   1      -4.381   3.685 128.300  0.00  0.00    +0.010 C 
ATOM     11  C   LIG A   1      -3.851   2.804 127.230  0.00  0.00    +0.141 C 
ATOM     12  C   LIG A   1      -4.933   2.208 126.340  0.00  0.00    +0.041 C 
ATOM     13  C   LIG A   1      -6.342   1.820 126.974  0.00  0.00    +0.018 C 
ATOM     14  C   LIG A   1      -6.385   0.242 127.104  0.00  0.00    -0.018 C 
ATOM     15  C   LIG A   1      -5.621  -0.430 125.964  0.00  0.00    +0.012 C 
ENDROOT
BRANCH  11  16
ATOM     16  O   LIG A   1      -2.994   3.542 126.348  0.00  0.00    -0.376 OA
ATOM     17  C   LIG A   1      -1.624   3.192 126.437  0.00  0.00    +0.194 C 
ENDBRANCH  11  16
BRANCH   7  18
ATOM     18  O   LIG A   1      -5.680   6.068 129.534  0.00  0.00    -0.431 OA
BRANCH  18  19
ATOM     19  C   LIG A   1      -5.016   6.440 130.651  0.00  0.00    +0.309 C 
ATOM     20  O   LIG A   1      -5.473   6.395 131.778  0.00  0.00    -0.251 OA
BRANCH  19  21
ATOM     21  C   LIG A   1      -3.617   6.948 130.440  0.00  0.00    +0.120 C 
BRANCH  21  22
ATOM     22  C   LIG A   1      -3.328   7.500 129.055  0.00  0.00    +0.008 C 
ATOM     23  C   LIG A   1      -2.277   6.724 128.270  0.00  0.00    +0.004 C 
ENDBRANCH  21  22
ENDBRANCH  19  21
ENDBRANCH  18  19
ENDBRANCH   7  18
BRANCH   4  24
ATOM     24  O   LIG A   1      -8.607   1.933 129.839  0.00  0.00    -0.457 OA
BRANCH  24  25
ATOM     25  C   LIG A   1      -9.241   2.182 131.016  0.00  0.00    +0.304 C 
ATOM     26  C   LIG A   1      -9.571   0.910 131.785  0.00  0.00    +0.136 C 
ATOM     27  O   LIG A   1      -9.538   3.294 131.428  0.00  0.00    -0.251 OA
ENDBRANCH  24  25
ENDBRANCH   4  24
BRANCH   9  28
ATOM     28  O   LIG A   1      -8.175   4.595 126.910  0.00  0.00    -0.434 OA
BRANCH  28  29
ATOM     29  C   LIG A   1      -7.452   4.644 125.792  0.00  0.00    +0.306 C 
ATOM     30  C   LIG A   1      -7.933   3.827 124.693  0.00  0.00    +0.136 C 
ATOM     31  O   LIG A   1      -6.427   5.372 125.604  0.00  0.00    -0.251 OA
ENDBRANCH  28  29
ENDBRANCH   9  28
BRANCH  14  32
ATOM     32  C   LIG A   1      -7.799  -0.401 126.984  0.00  0.00    +0.034 C 
BRANCH  32  33
ATOM     33  C   LIG A   1      -8.058  -1.571 126.058  0.00  0.00    -0.023 C 
ATOM     34  C   LIG A   1      -8.432  -2.858 126.219  0.00  0.00    -0.055 C 
ATOM     35  C   LIG A   1      -8.345  -3.825 125.087  0.00  0.00    +0.043 C 
BRANCH  34  36
ATOM     36  C   LIG A   1      -8.873  -3.620 127.368  0.00  0.00    -0.005 C 
ATOM     37  C   LIG A   1      -8.339  -3.573 128.595  0.00  0.00    +0.008 C 
ENDBRANCH  34  36
ENDBRANCH  32  33
ENDBRANCH  14  32
BRANCH   3  38
ATOM     38  O   LIG A   1      -5.588   0.287 130.846  0.00  0.00    -0.457 OA
BRANCH  38  39
ATOM     39  C   LIG A   1      -6.044   0.064 132.117  0.00  0.00    +0.307 C 
ATOM     40  O   LIG A   1      -6.236   0.904 132.988  0.00  0.00    -0.251 OA
BRANCH  39  41
ATOM     41  C   LIG A   1      -6.588  -1.302 132.319  0.00  0.00    +0.120 C 
BRANCH  41  42
ATOM     42  C   LIG A   1      -5.431  -2.275 132.066  0.00  0.00    +0.008 C 
ATOM     43  C   LIG A   1      -5.942  -3.586 131.524  0.00  0.00    +0.004 C 
ENDBRANCH  41  42
ENDBRANCH  39  41
ENDBRANCH  38  39
ENDBRANCH   3  38
TORSDOF 16
ENDMDL
MODEL 6
REMARK VINA RESULT:      -7.2      1.788      5.734
REMARK  Name = NuBBE_51
REMARK  24 active torsions:
REMARK  status: ('A' for Active; 'I' for Inactive)
REMARK    1  A    between atoms: C_1  and  C_2
REMARK    2  A    between atoms: C_4  and  O_6
REMARK    3  A    between atoms: O_6  and  C_7
REMARK    4  A    between atoms: C_7  and  C_8
REMARK    5  A    between atoms: C_8  and  C_9
REMARK    6  A    between atoms: C_9  and  C_10
REMARK    7  A    between atoms: C_12  and  O_14
REMARK    8  A    between atoms: O_14  and  C_15
REMARK    9  A    between atoms: C_15  and  C_16
REMARK   10  A    between atoms: C_20  and  O_22
REMARK   11  A    between atoms: O_22  and  C_23
REMARK   12  A    between atoms: C_23  and  C_24
REMARK   13  A    between atoms: C_24  and  C_25
REMARK   14  A    between atoms: C_25  and  C_26
REMARK   15  A    between atoms: C_29  and  O_31
REMARK   16  A    between atoms: O_31  and  C_32
REMARK   17  A    between atoms: C_32  and  C_33
REMARK   18  A    between atoms: C_36  and  O_38
REMARK   19  A    between atoms: O_38  and  C_39
REMARK   20  A    between atoms: C_43  and  C_44
REMARK   21  A    between atoms: C_43  and  C_45
REMARK   22  A    between atoms: C_45  and  C_46
REMARK   23  A    between atoms: C_47  and  C_48
REMARK   24  A    between atoms: C_47  and  C_50
REMARK                            x       y       z     vdW  Elec       q    Type
REMARK                         _______ _______ _______ _____ _____    ______ ____
ROOT
ATOM      1  C   LIG A   1      -3.191   3.444 126.709  0.00  0.00    +0.012 C 
ATOM      2  C   LIG A   1      -4.548   3.599 127.403  0.00  0.00    +0.037 C 
ATOM      3  C   LIG A   1      -4.543   4.603 128.580  0.00  0.00    +0.221 C 
ATOM      4  C   LIG A   1      -5.873   4.542 129.471  0.00  0.00    +0.234 C 
ATOM      5  C   LIG A   1      -7.115   3.620 128.951  0.00  0.00    +0.104 C 
ATOM      6  C   LIG A   1      -8.118   4.546 128.254  0.00  0.00    +0.013 C 
ATOM      7  C   LIG A   1      -8.883   5.338 129.287  0.00  0.00    +0.343 C 
ATOM      8  O   LIG A   1      -8.749   4.595 130.498  0.00  0.00    -0.297 OA
ATOM      9  C   LIG A   1      -8.094   3.340 130.176  0.00  0.00    +0.328 C 
ATOM     10  C   LIG A   1      -8.434   4.514 126.961  0.00  0.00    +0.010 C 
ATOM     11  C   LIG A   1      -7.907   3.516 125.998  0.00  0.00    +0.141 C 
ATOM     12  C   LIG A   1      -7.362   2.259 126.661  0.00  0.00    +0.041 C 
ATOM     13  C   LIG A   1      -6.626   2.373 128.070  0.00  0.00    +0.018 C 
ATOM     14  C   LIG A   1      -5.072   2.216 127.807  0.00  0.00    -0.018 C 
ATOM     15  C   LIG A   1      -4.799   1.257 126.650  0.00  0.00    +0.012 C 
ENDROOT
BRANCH  11  16
ATOM     16  O   LIG A   1      -8.948   3.065 125.120  0.00  0.00    -0.376 OA
ATOM     17  C   LIG A   1      -8.869   1.693 124.777  0.00  0.00    +0.194 C 
ENDBRANCH  11  16
BRANCH   7  18
ATOM     18  O   LIG A   1     -10.249   5.694 129.011  0.00  0.00    -0.431 OA
BRANCH  18  19
ATOM     19  C   LIG A   1     -10.507   7.020 128.992  0.00  0.00    +0.309 C 
ATOM     20  O   LIG A   1      -9.666   7.893 129.106  0.00  0.00    -0.251 OA
BRANCH  19  21
ATOM     21  C   LIG A   1     -11.951   7.402 128.822  0.00  0.00    +0.120 C 
BRANCH  21  22
ATOM     22  C   LIG A   1     -12.538   8.240 129.945  0.00  0.00    +0.008 C 
ATOM     23  C   LIG A   1     -12.824   7.470 131.228  0.00  0.00    +0.004 C 
ENDBRANCH  21  22
ENDBRANCH  19  21
ENDBRANCH  18  19
ENDBRANCH   7  18
BRANCH   4  24
ATOM     24  O   LIG A   1      -5.742   4.418 130.967  0.00  0.00    -0.457 OA
BRANCH  24  25
ATOM     25  C   LIG A   1      -5.678   5.380 131.926  0.00  0.00    +0.304 C 
ATOM     26  C   LIG A   1      -6.076   6.754 131.406  0.00  0.00    +0.136 C 
ATOM     27  O   LIG A   1      -5.327   5.191 133.082  0.00  0.00    -0.251 OA
ENDBRANCH  24  25
ENDBRANCH   4  24
BRANCH   9  28
ATOM     28  O   LIG A   1      -9.023   2.241 130.373  0.00  0.00    -0.434 OA
BRANCH  28  29
ATOM     29  C   LIG A   1      -9.141   1.539 131.499  0.00  0.00    +0.306 C 
ATOM     30  C   LIG A   1      -9.189   2.315 132.725  0.00  0.00    +0.136 C 
ATOM     31  O   LIG A   1      -9.263   0.275 131.577  0.00  0.00    -0.251 OA
ENDBRANCH  28  29
ENDBRANCH   9  28
BRANCH  14  32
ATOM     32  C   LIG A   1      -4.258   1.577 128.972  0.00  0.00    +0.034 C 
BRANCH  32  33
ATOM     33  C   LIG A   1      -4.900   0.613 129.947  0.00  0.00    -0.023 C 
ATOM     34  C   LIG A   1      -5.355  -0.656 129.884  0.00  0.00    -0.055 C 
ATOM     35  C   LIG A   1      -6.179  -1.228 130.987  0.00  0.00    +0.043 C 
BRANCH  34  36
ATOM     36  C   LIG A   1      -5.290  -1.677 128.859  0.00  0.00    -0.005 C 
ATOM     37  C   LIG A   1      -4.424  -2.698 128.821  0.00  0.00    +0.008 C 
ENDBRANCH  34  36
ENDBRANCH  32  33
ENDBRANCH  14  32
BRANCH   3  38
ATOM     38  O   LIG A   1      -4.409   5.978 128.030  0.00  0.00    -0.457 OA
BRANCH  38  39
ATOM     39  C   LIG A   1      -3.583   6.915 128.589  0.00  0.00    +0.307 C 
ATOM     40  O   LIG A   1      -3.879   8.058 128.912  0.00  0.00    -0.251 OA
BRANCH  39  41
ATOM     41  C   LIG A   1      -2.292   6.356 129.065  0.00  0.00    +0.120 C 
BRANCH  41  42
ATOM     42  C   LIG A   1      -2.236   6.613 130.575  0.00  0.00    +0.008 C 
ATOM     43  C   LIG A   1      -2.138   5.313 131.335  0.00  0.00    +0.004 C 
ENDBRANCH  41  42
ENDBRANCH  39  41
ENDBRANCH  38  39
ENDBRANCH   3  38
TORSDOF 16
ENDMDL
MODEL 7
REMARK VINA RESULT:      -7.2      2.393      6.152
REMARK  Name = NuBBE_51
REMARK  24 active torsions:
REMARK  status: ('A' for Active; 'I' for Inactive)
REMARK    1  A    between atoms: C_1  and  C_2
REMARK    2  A    between atoms: C_4  and  O_6
REMARK    3  A    between atoms: O_6  and  C_7
REMARK    4  A    between atoms: C_7  and  C_8
REMARK    5  A    between atoms: C_8  and  C_9
REMARK    6  A    between atoms: C_9  and  C_10
REMARK    7  A    between atoms: C_12  and  O_14
REMARK    8  A    between atoms: O_14  and  C_15
REMARK    9  A    between atoms: C_15  and  C_16
REMARK   10  A    between atoms: C_20  and  O_22
REMARK   11  A    between atoms: O_22  and  C_23
REMARK   12  A    between atoms: C_23  and  C_24
REMARK   13  A    between atoms: C_24  and  C_25
REMARK   14  A    between atoms: C_25  and  C_26
REMARK   15  A    between atoms: C_29  and  O_31
REMARK   16  A    between atoms: O_31  and  C_32
REMARK   17  A    between atoms: C_32  and  C_33
REMARK   18  A    between atoms: C_36  and  O_38
REMARK   19  A    between atoms: O_38  and  C_39
REMARK   20  A    between atoms: C_43  and  C_44
REMARK   21  A    between atoms: C_43  and  C_45
REMARK   22  A    between atoms: C_45  and  C_46
REMARK   23  A    between atoms: C_47  and  C_48
REMARK   24  A    between atoms: C_47  and  C_50
REMARK                            x       y       z     vdW  Elec       q    Type
REMARK                         _______ _______ _______ _____ _____    ______ ____
ROOT
ATOM      1  C   LIG A   1     -11.148   3.897 130.355  0.00  0.00    +0.012 C 
ATOM      2  C   LIG A   1      -9.661   4.135 130.638  0.00  0.00    +0.037 C 
ATOM      3  C   LIG A   1      -8.927   4.926 129.531  0.00  0.00    +0.221 C 
ATOM      4  C   LIG A   1      -7.334   4.918 129.697  0.00  0.00    +0.234 C 
ATOM      5  C   LIG A   1      -6.697   4.282 131.058  0.00  0.00    +0.104 C 
ATOM      6  C   LIG A   1      -6.377   5.443 132.006  0.00  0.00    +0.013 C 
ATOM      7  C   LIG A   1      -5.138   6.163 131.530  0.00  0.00    +0.343 C 
ATOM      8  O   LIG A   1      -4.462   5.225 130.693  0.00  0.00    -0.297 OA
ATOM      9  C   LIG A   1      -5.158   3.956 130.801  0.00  0.00    +0.328 C 
ATOM     10  C   LIG A   1      -6.956   5.665 133.184  0.00  0.00    +0.010 C 
ATOM     11  C   LIG A   1      -7.965   4.767 133.799  0.00  0.00    +0.141 C 
ATOM     12  C   LIG A   1      -7.950   3.355 133.232  0.00  0.00    +0.041 C 
ATOM     13  C   LIG A   1      -7.621   3.134 131.689  0.00  0.00    +0.018 C 
ATOM     14  C   LIG A   1      -8.985   2.797 130.957  0.00  0.00    -0.018 C 
ATOM     15  C   LIG A   1      -9.922   2.005 131.868  0.00  0.00    +0.012 C 
ENDROOT
BRANCH  11  16
ATOM     16  O   LIG A   1      -7.717   4.619 135.204  0.00  0.00    -0.376 OA
ATOM     17  C   LIG A   1      -7.593   5.841 135.908  0.00  0.00    +0.194 C 
ENDBRANCH  11  16
BRANCH   7  18
ATOM     18  O   LIG A   1      -4.265   6.754 132.508  0.00  0.00    -0.431 OA
BRANCH  18  19
ATOM     19  C   LIG A   1      -3.256   7.500 132.005  0.00  0.00    +0.309 C 
ATOM     20  O   LIG A   1      -3.366   8.278 131.075  0.00  0.00    -0.251 OA
BRANCH  19  21
ATOM     21  C   LIG A   1      -1.918   7.321 132.666  0.00  0.00    +0.120 C 
BRANCH  21  22
ATOM     22  C   LIG A   1      -1.039   6.237 132.068  0.00  0.00    +0.008 C 
ATOM     23  C   LIG A   1      -1.400   4.820 132.494  0.00  0.00    +0.004 C 
ENDBRANCH  21  22
ENDBRANCH  19  21
ENDBRANCH  18  19
ENDBRANCH   7  18
BRANCH   4  24
ATOM     24  O   LIG A   1      -6.480   4.539 128.514  0.00  0.00    -0.457 OA
BRANCH  24  25
ATOM     25  C   LIG A   1      -6.836   4.210 127.244  0.00  0.00    +0.304 C 
ATOM     26  C   LIG A   1      -6.382   2.810 126.852  0.00  0.00    +0.136 C 
ATOM     27  O   LIG A   1      -7.442   4.943 126.475  0.00  0.00    -0.251 OA
ENDBRANCH  24  25
ENDBRANCH   4  24
BRANCH   9  28
ATOM     28  O   LIG A   1      -4.306   2.986 131.465  0.00  0.00    -0.434 OA
BRANCH  28  29
ATOM     29  C   LIG A   1      -4.467   2.566 132.720  0.00  0.00    +0.306 C 
ATOM     30  C   LIG A   1      -4.707   1.145 132.884  0.00  0.00    +0.136 C 
ATOM     31  O   LIG A   1      -4.379   3.291 133.761  0.00  0.00    -0.251 OA
ENDBRANCH  28  29
ENDBRANCH   9  28
BRANCH  14  32
ATOM     32  C   LIG A   1      -8.864   1.868 129.712  0.00  0.00    +0.034 C 
BRANCH  32  33
ATOM     33  C   LIG A   1      -7.722   0.885 129.569  0.00  0.00    -0.023 C 
ATOM     34  C   LIG A   1      -7.331  -0.234 130.216  0.00  0.00    -0.055 C 
ATOM     35  C   LIG A   1      -5.986  -0.828 129.969  0.00  0.00    +0.043 C 
BRANCH  34  36
ATOM     36  C   LIG A   1      -7.942  -1.037 131.255  0.00  0.00    -0.005 C 
ATOM     37  C   LIG A   1      -7.376  -2.079 131.878  0.00  0.00    +0.008 C 
ENDBRANCH  34  36
ENDBRANCH  32  33
ENDBRANCH  14  32
BRANCH   3  38
ATOM     38  O   LIG A   1      -9.395   6.337 129.566  0.00  0.00    -0.457 OA
BRANCH  38  39
ATOM     39  C   LIG A   1     -10.199   6.868 128.595  0.00  0.00    +0.307 C 
ATOM     40  O   LIG A   1     -10.110   6.689 127.386  0.00  0.00    -0.251 OA
BRANCH  39  41
ATOM     41  C   LIG A   1     -11.434   7.498 129.127  0.00  0.00    +0.120 C 
BRANCH  41  42
ATOM     42  C   LIG A   1     -12.613   6.764 128.479  0.00  0.00    +0.008 C 
ATOM     43  C   LIG A   1     -13.628   7.745 127.947  0.00  0.00    +0.004 C 
ENDBRANCH  41  42
ENDBRANCH  39  41
ENDBRANCH  38  39
ENDBRANCH   3  38
TORSDOF 16
ENDMDL
MODEL 8
REMARK VINA RESULT:      -7.2      1.627      2.234
REMARK  Name = NuBBE_51
REMARK  24 active torsions:
REMARK  status: ('A' for Active; 'I' for Inactive)
REMARK    1  A    between atoms: C_1  and  C_2
REMARK    2  A    between atoms: C_4  and  O_6
REMARK    3  A    between atoms: O_6  and  C_7
REMARK    4  A    between atoms: C_7  and  C_8
REMARK    5  A    between atoms: C_8  and  C_9
REMARK    6  A    between atoms: C_9  and  C_10
REMARK    7  A    between atoms: C_12  and  O_14
REMARK    8  A    between atoms: O_14  and  C_15
REMARK    9  A    between atoms: C_15  and  C_16
REMARK   10  A    between atoms: C_20  and  O_22
REMARK   11  A    between atoms: O_22  and  C_23
REMARK   12  A    between atoms: C_23  and  C_24
REMARK   13  A    between atoms: C_24  and  C_25
REMARK   14  A    between atoms: C_25  and  C_26
REMARK   15  A    between atoms: C_29  and  O_31
REMARK   16  A    between atoms: O_31  and  C_32
REMARK   17  A    between atoms: C_32  and  C_33
REMARK   18  A    between atoms: C_36  and  O_38
REMARK   19  A    between atoms: O_38  and  C_39
REMARK   20  A    between atoms: C_43  and  C_44
REMARK   21  A    between atoms: C_43  and  C_45
REMARK   22  A    between atoms: C_45  and  C_46
REMARK   23  A    between atoms: C_47  and  C_48
REMARK   24  A    between atoms: C_47  and  C_50
REMARK                            x       y       z     vdW  Elec       q    Type
REMARK                         _______ _______ _______ _____ _____    ______ ____
ROOT
ATOM      1  C   LIG A   1      -5.331  -0.401 131.319  0.00  0.00    +0.012 C 
ATOM      2  C   LIG A   1      -6.040   0.926 131.029  0.00  0.00    +0.037 C 
ATOM      3  C   LIG A   1      -6.526   1.076 129.568  0.00  0.00    +0.221 C 
ATOM      4  C   LIG A   1      -6.999   2.562 129.207  0.00  0.00    +0.234 C 
ATOM      5  C   LIG A   1      -7.107   3.658 130.412  0.00  0.00    +0.104 C 
ATOM      6  C   LIG A   1      -8.578   3.735 130.837  0.00  0.00    +0.013 C 
ATOM      7  C   LIG A   1      -9.368   4.503 129.805  0.00  0.00    +0.343 C 
ATOM      8  O   LIG A   1      -8.399   5.276 129.096  0.00  0.00    -0.297 OA
ATOM      9  C   LIG A   1      -7.126   5.119 129.776  0.00  0.00    +0.328 C 
ATOM     10  C   LIG A   1      -9.061   3.379 132.026  0.00  0.00    +0.010 C 
ATOM     11  C   LIG A   1      -8.225   2.914 133.160  0.00  0.00    +0.141 C 
ATOM     12  C   LIG A   1      -6.761   3.313 133.041  0.00  0.00    +0.041 C 
ATOM     13  C   LIG A   1      -6.077   3.362 131.603  0.00  0.00    +0.018 C 
ATOM     14  C   LIG A   1      -5.145   2.087 131.477  0.00  0.00    -0.018 C 
ATOM     15  C   LIG A   1      -4.532   1.712 132.826  0.00  0.00    +0.012 C 
ENDROOT
BRANCH  11  16
ATOM     16  O   LIG A   1      -8.680   3.492 134.391  0.00  0.00    -0.376 OA
ATOM     17  C   LIG A   1      -8.057   4.718 134.728  0.00  0.00    +0.194 C 
ENDBRANCH  11  16
BRANCH   7  18
ATOM     18  O   LIG A   1     -10.487   5.294 130.240  0.00  0.00    -0.431 OA
BRANCH  18  19
ATOM     19  C   LIG A   1     -10.184   6.545 130.651  0.00  0.00    +0.309 C 
ATOM     20  O   LIG A   1      -9.664   6.819 131.717  0.00  0.00    -0.251 OA
BRANCH  19  21
ATOM     21  C   LIG A   1     -10.537   7.650 129.695  0.00  0.00    +0.120 C 
BRANCH  21  22
ATOM     22  C   LIG A   1     -11.977   7.657 129.214  0.00  0.00    +0.008 C 
ATOM     23  C   LIG A   1     -12.636   9.031 129.199  0.00  0.00    +0.004 C 
ENDBRANCH  21  22
ENDBRANCH  19  21
ENDBRANCH  18  19
ENDBRANCH   7  18
BRANCH   4  24
ATOM     24  O   LIG A   1      -6.447   3.222 127.971  0.00  0.00    -0.457 OA
BRANCH  24  25
ATOM     25  C   LIG A   1      -6.978   3.337 126.724  0.00  0.00    +0.304 C 
ATOM     26  C   LIG A   1      -5.996   3.926 125.720  0.00  0.00    +0.136 C 
ATOM     27  O   LIG A   1      -8.119   3.021 126.419  0.00  0.00    -0.251 OA
ENDBRANCH  24  25
ENDBRANCH   4  24
BRANCH   9  28
ATOM     28  O   LIG A   1      -6.734   6.383 130.375  0.00  0.00    -0.434 OA
BRANCH  28  29
ATOM     29  C   LIG A   1      -5.481   6.827 130.461  0.00  0.00    +0.306 C 
ATOM     30  C   LIG A   1      -4.804   6.569 131.718  0.00  0.00    +0.136 C 
ATOM     31  O   LIG A   1      -4.832   7.401 129.529  0.00  0.00    -0.251 OA
ENDBRANCH  28  29
ENDBRANCH   9  28
BRANCH  14  32
ATOM     32  C   LIG A   1      -3.887   2.265 130.575  0.00  0.00    +0.034 C 
BRANCH  32  33
ATOM     33  C   LIG A   1      -3.591   3.578 129.883  0.00  0.00    -0.023 C 
ATOM     34  C   LIG A   1      -3.150   3.941 128.660  0.00  0.00    -0.055 C 
ATOM     35  C   LIG A   1      -2.717   5.342 128.389  0.00  0.00    +0.043 C 
BRANCH  34  36
ATOM     36  C   LIG A   1      -2.900   3.199 127.442  0.00  0.00    -0.005 C 
ATOM     37  C   LIG A   1      -1.718   3.075 126.825  0.00  0.00    +0.008 C 
ENDBRANCH  34  36
ENDBRANCH  32  33
ENDBRANCH  14  32
BRANCH   3  38
ATOM     38  O   LIG A   1      -7.672   0.152 129.353  0.00  0.00    -0.457 OA
BRANCH  38  39
ATOM     39  C   LIG A   1      -7.749  -0.682 128.271  0.00  0.00    +0.307 C 
ATOM     40  O   LIG A   1      -8.081  -0.380 127.132  0.00  0.00    -0.251 OA
BRANCH  39  41
ATOM     41  C   LIG A   1      -7.110  -2.004 128.496  0.00  0.00    +0.120 C 
BRANCH  41  42
ATOM     42  C   LIG A   1      -8.189  -2.913 129.095  0.00  0.00    +0.008 C 
ATOM     43  C   LIG A   1      -8.791  -3.800 128.033  0.00  0.00    +0.004 C 
ENDBRANCH  41  42
ENDBRANCH  39  41
ENDBRANCH  38  39
ENDBRANCH   3  38
TORSDOF 16
ENDMDL
MODEL 9
REMARK VINA RESULT:      -7.1      1.980      6.045
REMARK  Name = NuBBE_51
REMARK  24 active torsions:
REMARK  status: ('A' for Active; 'I' for Inactive)
REMARK    1  A    between atoms: C_1  and  C_2
REMARK    2  A    between atoms: C_4  and  O_6
REMARK    3  A    between atoms: O_6  and  C_7
REMARK    4  A    between atoms: C_7  and  C_8
REMARK    5  A    between atoms: C_8  and  C_9
REMARK    6  A    between atoms: C_9  and  C_10
REMARK    7  A    between atoms: C_12  and  O_14
REMARK    8  A    between atoms: O_14  and  C_15
REMARK    9  A    between atoms: C_15  and  C_16
REMARK   10  A    between atoms: C_20  and  O_22
REMARK   11  A    between atoms: O_22  and  C_23
REMARK   12  A    between atoms: C_23  and  C_24
REMARK   13  A    between atoms: C_24  and  C_25
REMARK   14  A    between atoms: C_25  and  C_26
REMARK   15  A    between atoms: C_29  and  O_31
REMARK   16  A    between atoms: O_31  and  C_32
REMARK   17  A    between atoms: C_32  and  C_33
REMARK   18  A    between atoms: C_36  and  O_38
REMARK   19  A    between atoms: O_38  and  C_39
REMARK   20  A    between atoms: C_43  and  C_44
REMARK   21  A    between atoms: C_43  and  C_45
REMARK   22  A    between atoms: C_45  and  C_46
REMARK   23  A    between atoms: C_47  and  C_48
REMARK   24  A    between atoms: C_47  and  C_50
REMARK                            x       y       z     vdW  Elec       q    Type
REMARK                         _______ _______ _______ _____ _____    ______ ____
ROOT
ATOM      1  C   LIG A   1      -3.280   5.212 127.862  0.00  0.00    +0.012 C 
ATOM      2  C   LIG A   1      -4.660   4.799 128.382  0.00  0.00    +0.037 C 
ATOM      3  C   LIG A   1      -4.982   5.324 129.801  0.00  0.00    +0.221 C 
ATOM      4  C   LIG A   1      -6.288   4.655 130.443  0.00  0.00    +0.234 C 
ATOM      5  C   LIG A   1      -7.210   3.691 129.503  0.00  0.00    +0.104 C 
ATOM      6  C   LIG A   1      -8.390   4.528 128.999  0.00  0.00    +0.013 C 
ATOM      7  C   LIG A   1      -9.389   4.724 130.113  0.00  0.00    +0.343 C 
ATOM      8  O   LIG A   1      -9.119   3.675 131.043  0.00  0.00    -0.297 OA
ATOM      9  C   LIG A   1      -8.136   2.794 130.440  0.00  0.00    +0.328 C 
ATOM     10  C   LIG A   1      -8.623   4.854 127.729  0.00  0.00    +0.010 C 
ATOM     11  C   LIG A   1      -7.801   4.389 126.585  0.00  0.00    +0.141 C 
ATOM     12  C   LIG A   1      -6.971   3.152 126.894  0.00  0.00    +0.041 C 
ATOM     13  C   LIG A   1      -6.362   2.963 128.354  0.00  0.00    +0.018 C 
ATOM     14  C   LIG A   1      -4.812   3.278 128.266  0.00  0.00    -0.018 C 
ATOM     15  C   LIG A   1      -4.235   2.852 126.916  0.00  0.00    +0.012 C 
ENDROOT
BRANCH  11  16
ATOM     16  O   LIG A   1      -8.638   4.022 125.480  0.00  0.00    -0.376 OA
ATOM     17  C   LIG A   1      -7.949   3.420 124.399  0.00  0.00    +0.194 C 
ENDBRANCH  11  16
BRANCH   7  18
ATOM     18  O   LIG A   1     -10.786   4.815 129.781  0.00  0.00    -0.431 OA
BRANCH  18  19
ATOM     19  C   LIG A   1     -11.430   5.891 130.286  0.00  0.00    +0.309 C 
ATOM     20  O   LIG A   1     -11.347   6.272 131.438  0.00  0.00    -0.251 OA
BRANCH  19  21
ATOM     21  C   LIG A   1     -12.308   6.638 129.321  0.00  0.00    +0.120 C 
BRANCH  21  22
ATOM     22  C   LIG A   1     -11.891   8.071 129.039  0.00  0.00    +0.008 C 
ATOM     23  C   LIG A   1     -10.493   8.221 128.452  0.00  0.00    +0.004 C 
ENDBRANCH  21  22
ENDBRANCH  19  21
ENDBRANCH  18  19
ENDBRANCH   7  18
BRANCH   4  24
ATOM     24  O   LIG A   1      -6.202   4.074 131.831  0.00  0.00    -0.457 OA
BRANCH  24  25
ATOM     25  C   LIG A   1      -6.476   4.638 133.038  0.00  0.00    +0.304 C 
ATOM     26  C   LIG A   1      -6.447   3.629 134.177  0.00  0.00    +0.136 C 
ATOM     27  O   LIG A   1      -6.735   5.820 133.214  0.00  0.00    -0.251 OA
ENDBRANCH  24  25
ENDBRANCH   4  24
BRANCH   9  28
ATOM     28  O   LIG A   1      -8.743   1.504 130.162  0.00  0.00    -0.434 OA
BRANCH  28  29
ATOM     29  C   LIG A   1      -8.907   0.533 131.059  0.00  0.00    +0.306 C 
ATOM     30  C   LIG A   1      -8.031  -0.614 130.916  0.00  0.00    +0.136 C 
ATOM     31  O   LIG A   1      -9.721   0.557 132.037  0.00  0.00    -0.251 OA
ENDBRANCH  28  29
ENDBRANCH   9  28
BRANCH  14  32
ATOM     32  C   LIG A   1      -3.913   2.500 129.274  0.00  0.00    +0.034 C 
BRANCH  32  33
ATOM     33  C   LIG A   1      -4.513   1.623 130.352  0.00  0.00    -0.023 C 
ATOM     34  C   LIG A   1      -4.258   1.396 131.658  0.00  0.00    -0.055 C 
ATOM     35  C   LIG A   1      -4.894   0.253 132.373  0.00  0.00    +0.043 C 
BRANCH  34  36
ATOM     36  C   LIG A   1      -3.363   2.020 132.610  0.00  0.00    -0.005 C 
ATOM     37  C   LIG A   1      -2.998   3.309 132.619  0.00  0.00    +0.008 C 
ENDBRANCH  34  36
ENDBRANCH  32  33
ENDBRANCH  14  32
BRANCH   3  38
ATOM     38  O   LIG A   1      -5.197   6.793 129.725  0.00  0.00    -0.457 OA
BRANCH  38  39
ATOM     39  C   LIG A   1      -4.355   7.690 130.326  0.00  0.00    +0.307 C 
ATOM     40  O   LIG A   1      -4.113   8.832 129.958  0.00  0.00    -0.251 OA
BRANCH  39  41
ATOM     41  C   LIG A   1      -3.927   7.279 131.687  0.00  0.00    +0.120 C 
BRANCH  41  42
ATOM     42  C   LIG A   1      -2.413   7.509 131.756  0.00  0.00    +0.008 C 
ATOM     43  C   LIG A   1      -1.673   6.431 131.003  0.00  0.00    +0.004 C 
ENDBRANCH  41  42
ENDBRANCH  39  41
ENDBRANCH  38  39
ENDBRANCH   3  38
TORSDOF 16
ENDMDL
