MODEL 1
REMARK VINA RESULT:      -8.2      0.000      0.000
REMARK  Name = NuBBE_1329
REMARK  8 active torsions:
REMARK  status: ('A' for Active; 'I' for Inactive)
REMARK    1  A    between atoms: C_4  and  C_5
REMARK    2  A    between atoms: C_8  and  O_9
REMARK    3  A    between atoms: O_9  and  C_10
REMARK    4  A    between atoms: C_13  and  O_14
REMARK    5  A    between atoms: C_20  and  C_21
REMARK    6  A    between atoms: C_20  and  C_22
REMARK    7  A    between atoms: C_26  and  O_27
REMARK    8  A    between atoms: O_27  and  C_28
REMARK                            x       y       z     vdW  Elec       q    Type
REMARK                         _______ _______ _______ _____ _____    ______ ____
ROOT
ATOM      1  O   LIG A   1      -8.456   4.223 124.766  0.00  0.00    -0.244 OA
ATOM      2  C   LIG A   1      -8.088   3.069 124.908  0.00  0.00    +0.349 A 
ATOM      3  O   LIG A   1      -8.237   2.422 126.125  0.00  0.00    -0.421 OA
ATOM      4  C   LIG A   1      -7.505   2.265 123.800  0.00  0.00    +0.109 A 
ATOM      5  C   LIG A   1      -7.000   1.037 124.039  0.00  0.00    +0.146 A 
ATOM      6  C   LIG A   1      -6.983   0.444 125.404  0.00  0.00    +0.102 A 
ATOM      7  C   LIG A   1      -7.663   1.165 126.383  0.00  0.00    +0.150 A 
ATOM      8  C   LIG A   1      -7.786   0.719 127.692  0.00  0.00    +0.093 A 
ATOM      9  C   LIG A   1      -7.180  -0.473 128.072  0.00  0.00    +0.136 A 
ATOM     10  O   LIG A   1      -7.352  -0.777 129.396  0.00  0.00    -0.481 OA
ATOM     11  C   LIG A   1      -6.879  -2.035 129.904  0.00  0.00    +0.123 C 
ATOM     12  C   LIG A   1      -8.105  -2.895 130.223  0.00  0.00    +0.060 C 
ATOM     13  C   LIG A   1      -6.122  -1.714 131.200  0.00  0.00    +0.060 C 
ATOM     14  C   LIG A   1      -5.954  -2.767 128.974  0.00  0.00    +0.020 C 
ATOM     15  C   LIG A   1      -5.718  -2.381 127.716  0.00  0.00    +0.015 C 
ATOM     16  C   LIG A   1      -6.425  -1.227 127.153  0.00  0.00    +0.059 A 
ATOM     17  C   LIG A   1      -6.349  -0.775 125.800  0.00  0.00    +0.145 A 
ENDROOT
BRANCH   4  18
ATOM     18  C   LIG A   1      -7.502   2.868 122.445  0.00  0.00    -0.007 A 
ATOM     19  C   LIG A   1      -6.298   3.245 121.838  0.00  0.00    +0.012 A 
ATOM     20  C   LIG A   1      -6.302   3.876 120.588  0.00  0.00    +0.046 A 
ATOM     21  C   LIG A   1      -7.503   4.159 119.935  0.00  0.00    +0.120 A 
ATOM     22  C   LIG A   1      -8.706   3.774 120.526  0.00  0.00    +0.046 A 
ATOM     23  C   LIG A   1      -8.705   3.133 121.775  0.00  0.00    +0.012 A 
BRANCH  21  24
ATOM     24  O   LIG A   1      -7.377   4.767 118.716  0.00  0.00    -0.495 OA
ATOM     25  C   LIG A   1      -6.201   5.547 118.529  0.00  0.00    +0.277 C 
ENDBRANCH  21  24
ENDBRANCH   4  18
BRANCH   5  26
ATOM     26  O   LIG A   1      -6.505   0.274 122.996  0.00  0.00    -0.505 OA
ATOM     27  H   LIG A   1      -6.383   0.859 122.225  0.00  0.00    +0.292 HD
ENDBRANCH   5  26
BRANCH  17  28
ATOM     28  O   LIG A   1      -5.596  -1.361 124.802  0.00  0.00    -0.494 OA
ATOM     29  C   LIG A   1      -5.942  -2.657 124.326  0.00  0.00    +0.277 C 
ENDBRANCH  17  28
TORSDOF 4
ENDMDL
MODEL 2
REMARK VINA RESULT:      -8.2      7.742      9.116
REMARK  Name = NuBBE_1329
REMARK  8 active torsions:
REMARK  status: ('A' for Active; 'I' for Inactive)
REMARK    1  A    between atoms: C_4  and  C_5
REMARK    2  A    between atoms: C_8  and  O_9
REMARK    3  A    between atoms: O_9  and  C_10
REMARK    4  A    between atoms: C_13  and  O_14
REMARK    5  A    between atoms: C_20  and  C_21
REMARK    6  A    between atoms: C_20  and  C_22
REMARK    7  A    between atoms: C_26  and  O_27
REMARK    8  A    between atoms: O_27  and  C_28
REMARK                            x       y       z     vdW  Elec       q    Type
REMARK                         _______ _______ _______ _____ _____    ______ ____
ROOT
ATOM      1  O   LIG A   1     -11.652   3.800 129.973  0.00  0.00    -0.244 OA
ATOM      2  C   LIG A   1     -10.644   3.967 130.640  0.00  0.00    +0.349 A 
ATOM      3  O   LIG A   1      -9.853   2.892 131.009  0.00  0.00    -0.421 OA
ATOM      4  C   LIG A   1     -10.170   5.313 131.062  0.00  0.00    +0.109 A 
ATOM      5  C   LIG A   1      -9.121   5.435 131.901  0.00  0.00    +0.146 A 
ATOM      6  C   LIG A   1      -8.412   4.248 132.454  0.00  0.00    +0.102 A 
ATOM      7  C   LIG A   1      -8.794   3.017 131.925  0.00  0.00    +0.150 A 
ATOM      8  C   LIG A   1      -8.191   1.824 132.296  0.00  0.00    +0.093 A 
ATOM      9  C   LIG A   1      -7.190   1.829 133.261  0.00  0.00    +0.136 A 
ATOM     10  O   LIG A   1      -6.706   0.583 133.555  0.00  0.00    -0.481 OA
ATOM     11  C   LIG A   1      -5.590   0.446 134.450  0.00  0.00    +0.123 C 
ATOM     12  C   LIG A   1      -4.383   0.001 133.619  0.00  0.00    +0.060 C 
ATOM     13  C   LIG A   1      -5.971  -0.662 135.442  0.00  0.00    +0.060 C 
ATOM     14  C   LIG A   1      -5.263   1.692 135.222  0.00  0.00    +0.020 C 
ATOM     15  C   LIG A   1      -5.836   2.877 134.985  0.00  0.00    +0.015 C 
ATOM     16  C   LIG A   1      -6.792   3.027 133.884  0.00  0.00    +0.059 A 
ATOM     17  C   LIG A   1      -7.392   4.251 133.456  0.00  0.00    +0.145 A 
ENDROOT
BRANCH   4  18
ATOM     18  C   LIG A   1     -10.893   6.492 130.528  0.00  0.00    -0.007 A 
ATOM     19  C   LIG A   1     -12.048   6.965 131.162  0.00  0.00    +0.012 A 
ATOM     20  C   LIG A   1     -12.768   8.035 130.619  0.00  0.00    +0.046 A 
ATOM     21  C   LIG A   1     -12.360   8.638 129.428  0.00  0.00    +0.120 A 
ATOM     22  C   LIG A   1     -11.203   8.183 128.796  0.00  0.00    +0.046 A 
ATOM     23  C   LIG A   1     -10.474   7.116 129.344  0.00  0.00    +0.012 A 
BRANCH  21  24
ATOM     24  O   LIG A   1     -13.137   9.681 129.004  0.00  0.00    -0.495 OA
ATOM     25  C   LIG A   1     -13.495  10.634 129.998  0.00  0.00    +0.277 C 
ENDBRANCH  21  24
ENDBRANCH   4  18
BRANCH   5  26
ATOM     26  O   LIG A   1      -8.652   6.690 132.250  0.00  0.00    -0.505 OA
ATOM     27  H   LIG A   1      -8.580   6.725 133.223  0.00  0.00    +0.292 HD
ENDBRANCH   5  26
BRANCH  17  28
ATOM     28  O   LIG A   1      -7.161   5.494 134.013  0.00  0.00    -0.494 OA
ATOM     29  C   LIG A   1      -7.594   5.763 135.342  0.00  0.00    +0.277 C 
ENDBRANCH  17  28
TORSDOF 4
ENDMDL
MODEL 3
REMARK VINA RESULT:      -8.1      5.749      8.099
REMARK  Name = NuBBE_1329
REMARK  8 active torsions:
REMARK  status: ('A' for Active; 'I' for Inactive)
REMARK    1  A    between atoms: C_4  and  C_5
REMARK    2  A    between atoms: C_8  and  O_9
REMARK    3  A    between atoms: O_9  and  C_10
REMARK    4  A    between atoms: C_13  and  O_14
REMARK    5  A    between atoms: C_20  and  C_21
REMARK    6  A    between atoms: C_20  and  C_22
REMARK    7  A    between atoms: C_26  and  O_27
REMARK    8  A    between atoms: O_27  and  C_28
REMARK                            x       y       z     vdW  Elec       q    Type
REMARK                         _______ _______ _______ _____ _____    ______ ____
ROOT
ATOM      1  O   LIG A   1      -9.315   6.463 133.347  0.00  0.00    -0.244 OA
ATOM      2  C   LIG A   1      -9.304   5.389 132.769  0.00  0.00    +0.349 A 
ATOM      3  O   LIG A   1      -8.734   4.272 133.359  0.00  0.00    -0.421 OA
ATOM      4  C   LIG A   1      -9.928   5.184 131.434  0.00  0.00    +0.109 A 
ATOM      5  C   LIG A   1      -9.781   4.012 130.784  0.00  0.00    +0.146 A 
ATOM      6  C   LIG A   1      -8.983   2.891 131.351  0.00  0.00    +0.102 A 
ATOM      7  C   LIG A   1      -8.536   3.070 132.659  0.00  0.00    +0.150 A 
ATOM      8  C   LIG A   1      -7.827   2.096 133.348  0.00  0.00    +0.093 A 
ATOM      9  C   LIG A   1      -7.505   0.902 132.713  0.00  0.00    +0.136 A 
ATOM     10  O   LIG A   1      -6.777   0.045 133.495  0.00  0.00    -0.481 OA
ATOM     11  C   LIG A   1      -6.470  -1.273 133.011  0.00  0.00    +0.123 C 
ATOM     12  C   LIG A   1      -7.294  -2.269 133.832  0.00  0.00    +0.060 C 
ATOM     13  C   LIG A   1      -4.975  -1.491 133.285  0.00  0.00    +0.060 C 
ATOM     14  C   LIG A   1      -6.725  -1.466 131.544  0.00  0.00    +0.020 C 
ATOM     15  C   LIG A   1      -7.342  -0.560 130.779  0.00  0.00    +0.015 C 
ATOM     16  C   LIG A   1      -7.869   0.672 131.373  0.00  0.00    +0.059 A 
ATOM     17  C   LIG A   1      -8.638   1.667 130.695  0.00  0.00    +0.145 A 
ENDROOT
BRANCH   4  18
ATOM     18  C   LIG A   1     -10.703   6.311 130.861  0.00  0.00    -0.007 A 
ATOM     19  C   LIG A   1     -12.011   6.565 131.291  0.00  0.00    +0.012 A 
ATOM     20  C   LIG A   1     -12.766   7.586 130.701  0.00  0.00    +0.046 A 
ATOM     21  C   LIG A   1     -12.237   8.355 129.663  0.00  0.00    +0.120 A 
ATOM     22  C   LIG A   1     -10.929   8.119 129.238  0.00  0.00    +0.046 A 
ATOM     23  C   LIG A   1     -10.167   7.102 129.835  0.00  0.00    +0.012 A 
BRANCH  21  24
ATOM     24  O   LIG A   1     -13.065   9.329 129.176  0.00  0.00    -0.495 OA
ATOM     25  C   LIG A   1     -13.179  10.503 129.972  0.00  0.00    +0.277 C 
ENDBRANCH  21  24
ENDBRANCH   4  18
BRANCH   5  26
ATOM     26  O   LIG A   1     -10.406   3.809 129.565  0.00  0.00    -0.505 OA
ATOM     27  H   LIG A   1      -9.736   3.908 128.863  0.00  0.00    +0.292 HD
ENDBRANCH   5  26
BRANCH  17  28
ATOM     28  O   LIG A   1      -9.012   1.623 129.366  0.00  0.00    -0.494 OA
ATOM     29  C   LIG A   1      -8.030   1.792 128.351  0.00  0.00    +0.277 C 
ENDBRANCH  17  28
TORSDOF 4
ENDMDL
MODEL 4
REMARK VINA RESULT:      -7.8      4.017      8.194
REMARK  Name = NuBBE_1329
REMARK  8 active torsions:
REMARK  status: ('A' for Active; 'I' for Inactive)
REMARK    1  A    between atoms: C_4  and  C_5
REMARK    2  A    between atoms: C_8  and  O_9
REMARK    3  A    between atoms: O_9  and  C_10
REMARK    4  A    between atoms: C_13  and  O_14
REMARK    5  A    between atoms: C_20  and  C_21
REMARK    6  A    between atoms: C_20  and  C_22
REMARK    7  A    between atoms: C_26  and  O_27
REMARK    8  A    between atoms: O_27  and  C_28
REMARK                            x       y       z     vdW  Elec       q    Type
REMARK                         _______ _______ _______ _____ _____    ______ ____
ROOT
ATOM      1  O   LIG A   1      -9.538   3.913 129.339  0.00  0.00    -0.244 OA
ATOM      2  C   LIG A   1      -8.978   2.855 129.109  0.00  0.00    +0.349 A 
ATOM      3  O   LIG A   1      -8.960   2.326 127.828  0.00  0.00    -0.421 OA
ATOM      4  C   LIG A   1      -8.245   2.086 130.150  0.00  0.00    +0.109 A 
ATOM      5  C   LIG A   1      -7.748   0.863 129.874  0.00  0.00    +0.146 A 
ATOM      6  C   LIG A   1      -7.924   0.224 128.541  0.00  0.00    +0.102 A 
ATOM      7  C   LIG A   1      -8.489   1.031 127.555  0.00  0.00    +0.150 A 
ATOM      8  C   LIG A   1      -8.669   0.601 126.248  0.00  0.00    +0.093 A 
ATOM      9  C   LIG A   1      -8.315  -0.696 125.895  0.00  0.00    +0.136 A 
ATOM     10  O   LIG A   1      -8.576  -0.998 124.586  0.00  0.00    -0.481 OA
ATOM     11  C   LIG A   1      -8.157  -2.265 124.051  0.00  0.00    +0.123 C 
ATOM     12  C   LIG A   1      -7.006  -1.997 123.076  0.00  0.00    +0.060 C 
ATOM     13  C   LIG A   1      -9.363  -2.824 123.284  0.00  0.00    +0.060 C 
ATOM     14  C   LIG A   1      -7.740  -3.266 125.090  0.00  0.00    +0.020 C 
ATOM     15  C   LIG A   1      -7.601  -2.967 126.386  0.00  0.00    +0.015 C 
ATOM     16  C   LIG A   1      -7.794  -1.590 126.851  0.00  0.00    +0.059 A 
ATOM     17  C   LIG A   1      -7.573  -1.115 128.179  0.00  0.00    +0.145 A 
ENDROOT
BRANCH   4  18
ATOM     18  C   LIG A   1      -8.091   2.715 131.484  0.00  0.00    -0.007 A 
ATOM     19  C   LIG A   1      -9.108   2.610 132.440  0.00  0.00    +0.012 A 
ATOM     20  C   LIG A   1      -8.991   3.262 133.674  0.00  0.00    +0.046 A 
ATOM     21  C   LIG A   1      -7.871   4.041 133.966  0.00  0.00    +0.120 A 
ATOM     22  C   LIG A   1      -6.846   4.140 133.025  0.00  0.00    +0.046 A 
ATOM     23  C   LIG A   1      -6.956   3.480 131.791  0.00  0.00    +0.012 A 
BRANCH  21  24
ATOM     24  O   LIG A   1      -7.866   4.618 135.206  0.00  0.00    -0.495 OA
ATOM     25  C   LIG A   1      -6.946   5.688 135.391  0.00  0.00    +0.277 C 
ENDBRANCH  21  24
ENDBRANCH   4  18
BRANCH   5  26
ATOM     26  O   LIG A   1      -7.023   0.173 130.830  0.00  0.00    -0.505 OA
ATOM     27  H   LIG A   1      -7.415   0.365 131.703  0.00  0.00    +0.292 HD
ENDBRANCH   5  26
BRANCH  17  28
ATOM     28  O   LIG A   1      -7.136  -1.882 129.242  0.00  0.00    -0.494 OA
ATOM     29  C   LIG A   1      -7.981  -2.897 129.774  0.00  0.00    +0.277 C 
ENDBRANCH  17  28
TORSDOF 4
ENDMDL
MODEL 5
REMARK VINA RESULT:      -7.7      6.879      8.420
REMARK  Name = NuBBE_1329
REMARK  8 active torsions:
REMARK  status: ('A' for Active; 'I' for Inactive)
REMARK    1  A    between atoms: C_4  and  C_5
REMARK    2  A    between atoms: C_8  and  O_9
REMARK    3  A    between atoms: O_9  and  C_10
REMARK    4  A    between atoms: C_13  and  O_14
REMARK    5  A    between atoms: C_20  and  C_21
REMARK    6  A    between atoms: C_20  and  C_22
REMARK    7  A    between atoms: C_26  and  O_27
REMARK    8  A    between atoms: O_27  and  C_28
REMARK                            x       y       z     vdW  Elec       q    Type
REMARK                         _______ _______ _______ _____ _____    ______ ____
ROOT
ATOM      1  O   LIG A   1     -12.034   4.416 129.880  0.00  0.00    -0.244 OA
ATOM      2  C   LIG A   1     -10.832   4.567 130.017  0.00  0.00    +0.349 A 
ATOM      3  O   LIG A   1      -9.986   3.473 130.108  0.00  0.00    -0.421 OA
ATOM      4  C   LIG A   1     -10.186   5.907 130.051  0.00  0.00    +0.109 A 
ATOM      5  C   LIG A   1      -8.871   6.024 130.329  0.00  0.00    +0.146 A 
ATOM      6  C   LIG A   1      -8.021   4.840 130.631  0.00  0.00    +0.102 A 
ATOM      7  C   LIG A   1      -8.628   3.600 130.449  0.00  0.00    +0.150 A 
ATOM      8  C   LIG A   1      -7.953   2.401 130.636  0.00  0.00    +0.093 A 
ATOM      9  C   LIG A   1      -6.629   2.416 131.058  0.00  0.00    +0.136 A 
ATOM     10  O   LIG A   1      -6.096   1.167 131.234  0.00  0.00    -0.481 OA
ATOM     11  C   LIG A   1      -4.703   1.028 131.558  0.00  0.00    +0.123 C 
ATOM     12  C   LIG A   1      -4.001   0.438 130.331  0.00  0.00    +0.060 C 
ATOM     13  C   LIG A   1      -4.634   0.029 132.721  0.00  0.00    +0.060 C 
ATOM     14  C   LIG A   1      -4.036   2.306 131.979  0.00  0.00    +0.020 C 
ATOM     15  C   LIG A   1      -4.625   3.504 131.899  0.00  0.00    +0.015 C 
ATOM     16  C   LIG A   1      -5.966   3.630 131.320  0.00  0.00    +0.059 A 
ATOM     17  C   LIG A   1      -6.662   4.854 131.079  0.00  0.00    +0.145 A 
ENDROOT
BRANCH   4  18
ATOM     18  C   LIG A   1     -11.041   7.086 129.773  0.00  0.00    -0.007 A 
ATOM     19  C   LIG A   1     -11.929   7.564 130.744  0.00  0.00    +0.012 A 
ATOM     20  C   LIG A   1     -12.784   8.635 130.456  0.00  0.00    +0.046 A 
ATOM     21  C   LIG A   1     -12.781   9.232 129.195  0.00  0.00    +0.120 A 
ATOM     22  C   LIG A   1     -11.889   8.771 128.226  0.00  0.00    +0.046 A 
ATOM     23  C   LIG A   1     -11.025   7.704 128.514  0.00  0.00    +0.012 A 
BRANCH  21  24
ATOM     24  O   LIG A   1     -13.652  10.275 129.039  0.00  0.00    -0.495 OA
ATOM     25  C   LIG A   1     -13.602  11.282 130.043  0.00  0.00    +0.277 C 
ENDBRANCH  21  24
ENDBRANCH   4  18
BRANCH   5  26
ATOM     26  O   LIG A   1      -8.265   7.269 130.310  0.00  0.00    -0.505 OA
ATOM     27  H   LIG A   1      -8.909   7.924 130.637  0.00  0.00    +0.292 HD
ENDBRANCH   5  26
BRANCH  17  28
ATOM     28  O   LIG A   1      -6.178   6.118 131.350  0.00  0.00    -0.494 OA
ATOM     29  C   LIG A   1      -5.079   6.628 130.603  0.00  0.00    +0.277 C 
ENDBRANCH  17  28
TORSDOF 4
ENDMDL
MODEL 6
REMARK VINA RESULT:      -7.5      4.590      7.065
REMARK  Name = NuBBE_1329
REMARK  8 active torsions:
REMARK  status: ('A' for Active; 'I' for Inactive)
REMARK    1  A    between atoms: C_4  and  C_5
REMARK    2  A    between atoms: C_8  and  O_9
REMARK    3  A    between atoms: O_9  and  C_10
REMARK    4  A    between atoms: C_13  and  O_14
REMARK    5  A    between atoms: C_20  and  C_21
REMARK    6  A    between atoms: C_20  and  C_22
REMARK    7  A    between atoms: C_26  and  O_27
REMARK    8  A    between atoms: O_27  and  C_28
REMARK                            x       y       z     vdW  Elec       q    Type
REMARK                         _______ _______ _______ _____ _____    ______ ____
ROOT
ATOM      1  O   LIG A   1      -5.579   5.617 126.299  0.00  0.00    -0.244 OA
ATOM      2  C   LIG A   1      -5.416   4.411 126.369  0.00  0.00    +0.349 A 
ATOM      3  O   LIG A   1      -5.875   3.573 125.365  0.00  0.00    -0.421 OA
ATOM      4  C   LIG A   1      -4.685   3.759 127.489  0.00  0.00    +0.109 A 
ATOM      5  C   LIG A   1      -4.639   2.414 127.584  0.00  0.00    +0.146 A 
ATOM      6  C   LIG A   1      -5.323   1.531 126.600  0.00  0.00    +0.102 A 
ATOM      7  C   LIG A   1      -5.872   2.174 125.493  0.00  0.00    +0.150 A 
ATOM      8  C   LIG A   1      -6.494   1.486 124.460  0.00  0.00    +0.093 A 
ATOM      9  C   LIG A   1      -6.620   0.104 124.532  0.00  0.00    +0.136 A 
ATOM     10  O   LIG A   1      -7.281  -0.442 123.465  0.00  0.00    -0.481 OA
ATOM     11  C   LIG A   1      -7.385  -1.871 123.348  0.00  0.00    +0.123 C 
ATOM     12  C   LIG A   1      -6.496  -2.305 122.179  0.00  0.00    +0.060 C 
ATOM     13  C   LIG A   1      -8.854  -2.166 123.015  0.00  0.00    +0.060 C 
ATOM     14  C   LIG A   1      -7.013  -2.621 124.595  0.00  0.00    +0.020 C 
ATOM     15  C   LIG A   1      -6.468  -2.039 125.669  0.00  0.00    +0.015 C 
ATOM     16  C   LIG A   1      -6.143  -0.610 125.648  0.00  0.00    +0.059 A 
ATOM     17  C   LIG A   1      -5.465   0.110 126.679  0.00  0.00    +0.145 A 
ENDROOT
BRANCH   4  18
ATOM     18  C   LIG A   1      -4.025   4.642 128.481  0.00  0.00    -0.007 A 
ATOM     19  C   LIG A   1      -4.706   5.048 129.635  0.00  0.00    +0.012 A 
ATOM     20  C   LIG A   1      -4.106   5.936 130.536  0.00  0.00    +0.046 A 
ATOM     21  C   LIG A   1      -2.830   6.446 130.293  0.00  0.00    +0.120 A 
ATOM     22  C   LIG A   1      -2.139   6.036 129.153  0.00  0.00    +0.046 A 
ATOM     23  C   LIG A   1      -2.734   5.139 128.252  0.00  0.00    +0.012 A 
BRANCH  21  24
ATOM     24  O   LIG A   1      -2.347   7.295 131.250  0.00  0.00    -0.495 OA
ATOM     25  C   LIG A   1      -1.180   6.857 131.938  0.00  0.00    +0.277 C 
ENDBRANCH  21  24
ENDBRANCH   4  18
BRANCH   5  26
ATOM     26  O   LIG A   1      -3.915   1.813 128.600  0.00  0.00    -0.505 OA
ATOM     27  H   LIG A   1      -4.209   0.885 128.670  0.00  0.00    +0.292 HD
ENDBRANCH   5  26
BRANCH  17  28
ATOM     28  O   LIG A   1      -5.002  -0.431 127.863  0.00  0.00    -0.494 OA
ATOM     29  C   LIG A   1      -5.931  -0.848 128.858  0.00  0.00    +0.277 C 
ENDBRANCH  17  28
TORSDOF 4
ENDMDL
MODEL 7
REMARK VINA RESULT:      -7.4      6.771      8.095
REMARK  Name = NuBBE_1329
REMARK  8 active torsions:
REMARK  status: ('A' for Active; 'I' for Inactive)
REMARK    1  A    between atoms: C_4  and  C_5
REMARK    2  A    between atoms: C_8  and  O_9
REMARK    3  A    between atoms: O_9  and  C_10
REMARK    4  A    between atoms: C_13  and  O_14
REMARK    5  A    between atoms: C_20  and  C_21
REMARK    6  A    between atoms: C_20  and  C_22
REMARK    7  A    between atoms: C_26  and  O_27
REMARK    8  A    between atoms: O_27  and  C_28
REMARK                            x       y       z     vdW  Elec       q    Type
REMARK                         _______ _______ _______ _____ _____    ______ ____
ROOT
ATOM      1  O   LIG A   1      -2.467   3.729 126.005  0.00  0.00    -0.244 OA
ATOM      2  C   LIG A   1      -3.000   4.291 126.947  0.00  0.00    +0.349 A 
ATOM      3  O   LIG A   1      -2.247   5.006 127.865  0.00  0.00    -0.421 OA
ATOM      4  C   LIG A   1      -4.473   4.294 127.156  0.00  0.00    +0.109 A 
ATOM      5  C   LIG A   1      -5.003   4.824 128.278  0.00  0.00    +0.146 A 
ATOM      6  C   LIG A   1      -4.152   5.403 129.354  0.00  0.00    +0.102 A 
ATOM      7  C   LIG A   1      -2.795   5.510 129.057  0.00  0.00    +0.150 A 
ATOM      8  C   LIG A   1      -1.880   6.078 129.932  0.00  0.00    +0.093 A 
ATOM      9  C   LIG A   1      -2.306   6.529 131.176  0.00  0.00    +0.136 A 
ATOM     10  O   LIG A   1      -1.297   7.036 131.950  0.00  0.00    -0.481 OA
ATOM     11  C   LIG A   1      -1.607   7.643 133.215  0.00  0.00    +0.123 C 
ATOM     12  C   LIG A   1      -1.368   9.150 133.074  0.00  0.00    +0.060 C 
ATOM     13  C   LIG A   1      -0.614   7.056 134.227  0.00  0.00    +0.060 C 
ATOM     14  C   LIG A   1      -3.004   7.379 133.701  0.00  0.00    +0.020 C 
ATOM     15  C   LIG A   1      -3.940   6.779 132.957  0.00  0.00    +0.015 C 
ATOM     16  C   LIG A   1      -3.651   6.401 131.571  0.00  0.00    +0.059 A 
ATOM     17  C   LIG A   1      -4.587   5.856 130.639  0.00  0.00    +0.145 A 
ENDROOT
BRANCH   4  18
ATOM     18  C   LIG A   1      -5.317   3.696 126.094  0.00  0.00    -0.007 A 
ATOM     19  C   LIG A   1      -5.678   2.344 126.151  0.00  0.00    +0.012 A 
ATOM     20  C   LIG A   1      -6.416   1.764 125.113  0.00  0.00    +0.046 A 
ATOM     21  C   LIG A   1      -6.790   2.513 123.997  0.00  0.00    +0.120 A 
ATOM     22  C   LIG A   1      -6.447   3.864 123.938  0.00  0.00    +0.046 A 
ATOM     23  C   LIG A   1      -5.714   4.451 124.981  0.00  0.00    +0.012 A 
BRANCH  21  24
ATOM     24  O   LIG A   1      -7.518   1.839 123.055  0.00  0.00    -0.495 OA
ATOM     25  C   LIG A   1      -8.802   2.377 122.760  0.00  0.00    +0.277 C 
ENDBRANCH  21  24
ENDBRANCH   4  18
BRANCH   5  26
ATOM     26  O   LIG A   1      -6.376   4.870 128.445  0.00  0.00    -0.505 OA
ATOM     27  H   LIG A   1      -6.560   5.146 129.363  0.00  0.00    +0.292 HD
ENDBRANCH   5  26
BRANCH  17  28
ATOM     28  O   LIG A   1      -5.920   5.602 130.898  0.00  0.00    -0.494 OA
ATOM     29  C   LIG A   1      -6.812   6.686 131.131  0.00  0.00    +0.277 C 
ENDBRANCH  17  28
TORSDOF 4
ENDMDL
MODEL 8
REMARK VINA RESULT:      -7.4      5.105      7.317
REMARK  Name = NuBBE_1329
REMARK  8 active torsions:
REMARK  status: ('A' for Active; 'I' for Inactive)
REMARK    1  A    between atoms: C_4  and  C_5
REMARK    2  A    between atoms: C_8  and  O_9
REMARK    3  A    between atoms: O_9  and  C_10
REMARK    4  A    between atoms: C_13  and  O_14
REMARK    5  A    between atoms: C_20  and  C_21
REMARK    6  A    between atoms: C_20  and  C_22
REMARK    7  A    between atoms: C_26  and  O_27
REMARK    8  A    between atoms: O_27  and  C_28
REMARK                            x       y       z     vdW  Elec       q    Type
REMARK                         _______ _______ _______ _____ _____    ______ ____
ROOT
ATOM      1  O   LIG A   1      -8.602   1.167 129.868  0.00  0.00    -0.244 OA
ATOM      2  C   LIG A   1      -7.520   1.608 129.519  0.00  0.00    +0.349 A 
ATOM      3  O   LIG A   1      -6.775   2.410 130.369  0.00  0.00    -0.421 OA
ATOM      4  C   LIG A   1      -6.905   1.291 128.203  0.00  0.00    +0.109 A 
ATOM      5  C   LIG A   1      -5.767   1.902 127.815  0.00  0.00    +0.146 A 
ATOM      6  C   LIG A   1      -5.092   2.923 128.664  0.00  0.00    +0.102 A 
ATOM      7  C   LIG A   1      -5.619   3.086 129.944  0.00  0.00    +0.150 A 
ATOM      8  C   LIG A   1      -5.070   3.958 130.873  0.00  0.00    +0.093 A 
ATOM      9  C   LIG A   1      -3.974   4.738 130.522  0.00  0.00    +0.136 A 
ATOM     10  O   LIG A   1      -3.555   5.575 131.520  0.00  0.00    -0.481 OA
ATOM     11  C   LIG A   1      -2.364   6.358 131.339  0.00  0.00    +0.123 C 
ATOM     12  C   LIG A   1      -1.288   5.783 132.267  0.00  0.00    +0.060 C 
ATOM     13  C   LIG A   1      -2.718   7.784 131.782  0.00  0.00    +0.060 C 
ATOM     14  C   LIG A   1      -1.864   6.402 129.923  0.00  0.00    +0.020 C 
ATOM     15  C   LIG A   1      -2.370   5.649 128.941  0.00  0.00    +0.015 C 
ATOM     16  C   LIG A   1      -3.424   4.672 129.227  0.00  0.00    +0.059 A 
ATOM     17  C   LIG A   1      -3.973   3.736 128.299  0.00  0.00    +0.145 A 
ENDROOT
BRANCH   4  18
ATOM     18  C   LIG A   1      -7.591   0.291 127.349  0.00  0.00    -0.007 A 
ATOM     19  C   LIG A   1      -8.560   0.693 126.423  0.00  0.00    +0.012 A 
ATOM     20  C   LIG A   1      -9.256  -0.258 125.667  0.00  0.00    +0.046 A 
ATOM     21  C   LIG A   1      -9.012  -1.621 125.835  0.00  0.00    +0.120 A 
ATOM     22  C   LIG A   1      -8.038  -2.031 126.746  0.00  0.00    +0.046 A 
ATOM     23  C   LIG A   1      -7.332  -1.079 127.499  0.00  0.00    +0.012 A 
BRANCH  21  24
ATOM     24  O   LIG A   1      -9.745  -2.451 125.032  0.00  0.00    -0.495 OA
ATOM     25  C   LIG A   1      -9.000  -3.381 124.254  0.00  0.00    +0.277 C 
ENDBRANCH  21  24
ENDBRANCH   4  18
BRANCH   5  26
ATOM     26  O   LIG A   1      -5.171   1.566 126.612  0.00  0.00    -0.505 OA
ATOM     27  H   LIG A   1      -4.206   1.530 126.753  0.00  0.00    +0.292 HD
ENDBRANCH   5  26
BRANCH  17  28
ATOM     28  O   LIG A   1      -3.593   3.600 126.978  0.00  0.00    -0.494 OA
ATOM     29  C   LIG A   1      -2.282   3.142 126.666  0.00  0.00    +0.277 C 
ENDBRANCH  17  28
TORSDOF 4
ENDMDL
MODEL 9
REMARK VINA RESULT:      -7.4      2.269      4.224
REMARK  Name = NuBBE_1329
REMARK  8 active torsions:
REMARK  status: ('A' for Active; 'I' for Inactive)
REMARK    1  A    between atoms: C_4  and  C_5
REMARK    2  A    between atoms: C_8  and  O_9
REMARK    3  A    between atoms: O_9  and  C_10
REMARK    4  A    between atoms: C_13  and  O_14
REMARK    5  A    between atoms: C_20  and  C_21
REMARK    6  A    between atoms: C_20  and  C_22
REMARK    7  A    between atoms: C_26  and  O_27
REMARK    8  A    between atoms: O_27  and  C_28
REMARK                            x       y       z     vdW  Elec       q    Type
REMARK                         _______ _______ _______ _____ _____    ______ ____
ROOT
ATOM      1  O   LIG A   1      -8.967   3.125 128.647  0.00  0.00    -0.244 OA
ATOM      2  C   LIG A   1      -8.647   1.963 128.835  0.00  0.00    +0.349 A 
ATOM      3  O   LIG A   1      -8.703   1.408 130.103  0.00  0.00    -0.421 OA
ATOM      4  C   LIG A   1      -8.226   1.054 127.734  0.00  0.00    +0.109 A 
ATOM      5  C   LIG A   1      -7.764  -0.183 128.009  0.00  0.00    +0.146 A 
ATOM      6  C   LIG A   1      -7.637  -0.684 129.405  0.00  0.00    +0.102 A 
ATOM      7  C   LIG A   1      -8.173   0.139 130.393  0.00  0.00    +0.150 A 
ATOM      8  C   LIG A   1      -8.182  -0.212 131.736  0.00  0.00    +0.093 A 
ATOM      9  C   LIG A   1      -7.604  -1.410 132.138  0.00  0.00    +0.136 A 
ATOM     10  O   LIG A   1      -7.653  -1.615 133.491  0.00  0.00    -0.481 OA
ATOM     11  C   LIG A   1      -7.196  -2.862 134.038  0.00  0.00    +0.123 C 
ATOM     12  C   LIG A   1      -8.427  -3.625 134.539  0.00  0.00    +0.060 C 
ATOM     13  C   LIG A   1      -6.293  -2.502 135.226  0.00  0.00    +0.060 C 
ATOM     14  C   LIG A   1      -6.413  -3.708 133.076  0.00  0.00    +0.020 C 
ATOM     15  C   LIG A   1      -6.289  -3.421 131.775  0.00  0.00    +0.015 C 
ATOM     16  C   LIG A   1      -6.989  -2.266 131.205  0.00  0.00    +0.059 A 
ATOM     17  C   LIG A   1      -7.030  -1.911 129.822  0.00  0.00    +0.145 A 
ENDROOT
BRANCH   4  18
ATOM     18  C   LIG A   1      -8.332   1.565 126.346  0.00  0.00    -0.007 A 
ATOM     19  C   LIG A   1      -7.365   2.439 125.835  0.00  0.00    +0.012 A 
ATOM     20  C   LIG A   1      -7.502   2.974 124.549  0.00  0.00    +0.046 A 
ATOM     21  C   LIG A   1      -8.612   2.663 123.761  0.00  0.00    +0.120 A 
ATOM     22  C   LIG A   1      -9.573   1.782 124.257  0.00  0.00    +0.046 A 
ATOM     23  C   LIG A   1      -9.433   1.237 125.543  0.00  0.00    +0.012 A 
BRANCH  21  24
ATOM     24  O   LIG A   1      -8.628   3.238 122.520  0.00  0.00    -0.495 OA
ATOM     25  C   LIG A   1      -7.371   3.327 121.860  0.00  0.00    +0.277 C 
ENDBRANCH  21  24
ENDBRANCH   4  18
BRANCH   5  26
ATOM     26  O   LIG A   1      -7.421  -1.042 126.979  0.00  0.00    -0.505 OA
ATOM     27  H   LIG A   1      -6.923  -1.789 127.362  0.00  0.00    +0.292 HD
ENDBRANCH   5  26
BRANCH  17  28
ATOM     28  O   LIG A   1      -6.416  -2.606 128.798  0.00  0.00    -0.494 OA
ATOM     29  C   LIG A   1      -4.999  -2.574 128.674  0.00  0.00    +0.277 C 
ENDBRANCH  17  28
TORSDOF 4
ENDMDL
