MODEL 1
REMARK VINA RESULT:      -6.8      0.000      0.000
REMARK  Name = NuBBE_1518
REMARK  10 active torsions:
REMARK  status: ('A' for Active; 'I' for Inactive)
REMARK    1  A    between atoms: C_1  and  N_2
REMARK    2  A    between atoms: C_8  and  C_9
REMARK    3  A    between atoms: C_9  and  C_10
REMARK    4  A    between atoms: C_10  and  C_11
REMARK    5  A    between atoms: C_11  and  C_12
REMARK    6  A    between atoms: C_12  and  C_13
REMARK    7  A    between atoms: C_13  and  C_14
REMARK    8  A    between atoms: C_14  and  C_15
REMARK    9  A    between atoms: C_15  and  C_16
REMARK   10  A    between atoms: C_16  and  C_17
REMARK                            x       y       z     vdW  Elec       q    Type
REMARK                         _______ _______ _______ _____ _____    ______ ____
ROOT
ATOM      1  C   LIG A   1      -9.054   2.543 122.149  0.00  0.00    +0.149 C 
ATOM      2  N   LIG A   1      -7.704   3.123 122.175  0.00  0.00    -0.347 N 
ATOM      3  C   LIG A   1      -7.308   3.791 120.977  0.00  0.00    +0.053 A 
ATOM      4  C   LIG A   1      -6.022   4.351 120.868  0.00  0.00    +0.045 A 
ATOM      5  C   LIG A   1      -5.150   4.359 122.040  0.00  0.00    +0.190 A 
ATOM      6  O   LIG A   1      -4.103   4.992 122.055  0.00  0.00    -0.287 OA
ATOM      7  C   LIG A   1      -5.623   3.667 123.242  0.00  0.00    +0.072 A 
ATOM      8  C   LIG A   1      -6.843   3.105 123.300  0.00  0.00    +0.022 A 
ATOM      9  C   LIG A   1      -5.552   4.984 119.702  0.00  0.00    +0.013 A 
ATOM     10  C   LIG A   1      -6.401   5.124 118.620  0.00  0.00    +0.001 A 
ATOM     11  C   LIG A   1      -7.693   4.641 118.703  0.00  0.00    +0.002 A 
ATOM     12  C   LIG A   1      -8.143   3.979 119.857  0.00  0.00    +0.026 A 
ENDROOT
BRANCH   8  13
ATOM     13  C   LIG A   1      -7.323   2.592 124.667  0.00  0.00    +0.053 C 
BRANCH  13  14
ATOM     14  C   LIG A   1      -6.918   1.175 125.126  0.00  0.00    +0.006 C 
BRANCH  14  15
ATOM     15  C   LIG A   1      -7.073   0.049 124.097  0.00  0.00    +0.000 C 
BRANCH  15  16
ATOM     16  C   LIG A   1      -6.091  -1.120 124.269  0.00  0.00    +0.000 C 
BRANCH  16  17
ATOM     17  C   LIG A   1      -6.532  -2.492 123.726  0.00  0.00    -0.000 C 
BRANCH  17  18
ATOM     18  C   LIG A   1      -8.038  -2.761 123.538  0.00  0.00    -0.000 C 
BRANCH  18  19
ATOM     19  C   LIG A   1      -8.668  -3.646 124.614  0.00  0.00    -0.000 C 
BRANCH  19  20
ATOM     20  C   LIG A   1      -9.379  -2.915 125.753  0.00  0.00    -0.003 C 
ATOM     21  C   LIG A   1      -8.509  -2.813 126.994  0.00  0.00    +0.004 C 
ENDBRANCH  19  20
ENDBRANCH  18  19
ENDBRANCH  17  18
ENDBRANCH  16  17
ENDBRANCH  15  16
ENDBRANCH  14  15
ENDBRANCH  13  14
ENDBRANCH   8  13
TORSDOF 8
ENDMDL
MODEL 2
REMARK VINA RESULT:      -6.8      2.477      4.268
REMARK  Name = NuBBE_1518
REMARK  10 active torsions:
REMARK  status: ('A' for Active; 'I' for Inactive)
REMARK    1  A    between atoms: C_1  and  N_2
REMARK    2  A    between atoms: C_8  and  C_9
REMARK    3  A    between atoms: C_9  and  C_10
REMARK    4  A    between atoms: C_10  and  C_11
REMARK    5  A    between atoms: C_11  and  C_12
REMARK    6  A    between atoms: C_12  and  C_13
REMARK    7  A    between atoms: C_13  and  C_14
REMARK    8  A    between atoms: C_14  and  C_15
REMARK    9  A    between atoms: C_15  and  C_16
REMARK   10  A    between atoms: C_16  and  C_17
REMARK                            x       y       z     vdW  Elec       q    Type
REMARK                         _______ _______ _______ _____ _____    ______ ____
ROOT
ATOM      1  C   LIG A   1      -5.984   1.865 125.849  0.00  0.00    +0.149 C 
ATOM      2  N   LIG A   1      -7.301   1.618 125.243  0.00  0.00    -0.347 N 
ATOM      3  C   LIG A   1      -7.510   2.238 123.974  0.00  0.00    +0.053 A 
ATOM      4  C   LIG A   1      -8.746   2.108 123.315  0.00  0.00    +0.045 A 
ATOM      5  C   LIG A   1      -9.761   1.223 123.881  0.00  0.00    +0.190 A 
ATOM      6  O   LIG A   1     -10.773   0.930 123.258  0.00  0.00    -0.287 OA
ATOM      7  C   LIG A   1      -9.478   0.607 125.180  0.00  0.00    +0.072 A 
ATOM      8  C   LIG A   1      -8.300   0.785 125.804  0.00  0.00    +0.022 A 
ATOM      9  C   LIG A   1      -9.034   2.728 122.085  0.00  0.00    +0.013 A 
ATOM     10  C   LIG A   1      -8.047   3.457 121.449  0.00  0.00    +0.001 A 
ATOM     11  C   LIG A   1      -6.799   3.564 122.031  0.00  0.00    +0.002 A 
ATOM     12  C   LIG A   1      -6.530   2.972 123.275  0.00  0.00    +0.026 A 
ENDROOT
BRANCH   8  13
ATOM     13  C   LIG A   1      -8.024  -0.068 127.052  0.00  0.00    +0.053 C 
BRANCH  13  14
ATOM     14  C   LIG A   1      -7.467  -1.497 126.882  0.00  0.00    +0.006 C 
BRANCH  14  15
ATOM     15  C   LIG A   1      -8.251  -2.626 127.564  0.00  0.00    +0.000 C 
BRANCH  15  16
ATOM     16  C   LIG A   1      -8.919  -3.618 126.601  0.00  0.00    +0.000 C 
BRANCH  16  17
ATOM     17  C   LIG A   1      -8.397  -3.651 125.153  0.00  0.00    -0.000 C 
BRANCH  17  18
ATOM     18  C   LIG A   1      -9.364  -3.275 124.012  0.00  0.00    -0.000 C 
BRANCH  18  19
ATOM     19  C   LIG A   1      -8.819  -2.241 123.028  0.00  0.00    -0.000 C 
BRANCH  19  20
ATOM     20  C   LIG A   1      -7.329  -2.344 122.701  0.00  0.00    -0.003 C 
ATOM     21  C   LIG A   1      -6.581  -1.068 123.049  0.00  0.00    +0.004 C 
ENDBRANCH  19  20
ENDBRANCH  18  19
ENDBRANCH  17  18
ENDBRANCH  16  17
ENDBRANCH  15  16
ENDBRANCH  14  15
ENDBRANCH  13  14
ENDBRANCH   8  13
TORSDOF 8
ENDMDL
MODEL 3
REMARK VINA RESULT:      -6.7      1.462      2.476
REMARK  Name = NuBBE_1518
REMARK  10 active torsions:
REMARK  status: ('A' for Active; 'I' for Inactive)
REMARK    1  A    between atoms: C_1  and  N_2
REMARK    2  A    between atoms: C_8  and  C_9
REMARK    3  A    between atoms: C_9  and  C_10
REMARK    4  A    between atoms: C_10  and  C_11
REMARK    5  A    between atoms: C_11  and  C_12
REMARK    6  A    between atoms: C_12  and  C_13
REMARK    7  A    between atoms: C_13  and  C_14
REMARK    8  A    between atoms: C_14  and  C_15
REMARK    9  A    between atoms: C_15  and  C_16
REMARK   10  A    between atoms: C_16  and  C_17
REMARK                            x       y       z     vdW  Elec       q    Type
REMARK                         _______ _______ _______ _____ _____    ______ ____
ROOT
ATOM      1  C   LIG A   1      -9.358   2.447 121.713  0.00  0.00    +0.149 C 
ATOM      2  N   LIG A   1      -8.171   2.833 122.490  0.00  0.00    -0.347 N 
ATOM      3  C   LIG A   1      -7.165   3.528 121.752  0.00  0.00    +0.053 A 
ATOM      4  C   LIG A   1      -5.965   3.912 122.378  0.00  0.00    +0.045 A 
ATOM      5  C   LIG A   1      -5.821   3.712 123.818  0.00  0.00    +0.190 A 
ATOM      6  O   LIG A   1      -4.883   4.193 124.440  0.00  0.00    -0.287 OA
ATOM      7  C   LIG A   1      -6.897   3.004 124.517  0.00  0.00    +0.072 A 
ATOM      8  C   LIG A   1      -8.014   2.613 123.880  0.00  0.00    +0.022 A 
ATOM      9  C   LIG A   1      -4.915   4.560 121.702  0.00  0.00    +0.013 A 
ATOM     10  C   LIG A   1      -5.074   4.896 120.370  0.00  0.00    +0.001 A 
ATOM     11  C   LIG A   1      -6.259   4.590 119.730  0.00  0.00    +0.002 A 
ATOM     12  C   LIG A   1      -7.289   3.912 120.402  0.00  0.00    +0.026 A 
ENDROOT
BRANCH   8  13
ATOM     13  C   LIG A   1      -9.166   2.069 124.740  0.00  0.00    +0.053 C 
BRANCH  13  14
ATOM     14  C   LIG A   1      -9.488   0.561 124.705  0.00  0.00    +0.006 C 
BRANCH  14  15
ATOM     15  C   LIG A   1      -8.296  -0.394 124.563  0.00  0.00    +0.000 C 
BRANCH  15  16
ATOM     16  C   LIG A   1      -8.409  -1.398 123.406  0.00  0.00    +0.000 C 
BRANCH  16  17
ATOM     17  C   LIG A   1      -7.840  -2.808 123.644  0.00  0.00    -0.000 C 
BRANCH  17  18
ATOM     18  C   LIG A   1      -6.844  -3.016 124.803  0.00  0.00    -0.000 C 
BRANCH  18  19
ATOM     19  C   LIG A   1      -5.406  -2.605 124.491  0.00  0.00    -0.000 C 
BRANCH  19  20
ATOM     20  C   LIG A   1      -4.735  -3.334 123.325  0.00  0.00    -0.003 C 
ATOM     21  C   LIG A   1      -4.466  -4.794 123.649  0.00  0.00    +0.004 C 
ENDBRANCH  19  20
ENDBRANCH  18  19
ENDBRANCH  17  18
ENDBRANCH  16  17
ENDBRANCH  15  16
ENDBRANCH  14  15
ENDBRANCH  13  14
ENDBRANCH   8  13
TORSDOF 8
ENDMDL
MODEL 4
REMARK VINA RESULT:      -6.6      1.895      3.175
REMARK  Name = NuBBE_1518
REMARK  10 active torsions:
REMARK  status: ('A' for Active; 'I' for Inactive)
REMARK    1  A    between atoms: C_1  and  N_2
REMARK    2  A    between atoms: C_8  and  C_9
REMARK    3  A    between atoms: C_9  and  C_10
REMARK    4  A    between atoms: C_10  and  C_11
REMARK    5  A    between atoms: C_11  and  C_12
REMARK    6  A    between atoms: C_12  and  C_13
REMARK    7  A    between atoms: C_13  and  C_14
REMARK    8  A    between atoms: C_14  and  C_15
REMARK    9  A    between atoms: C_15  and  C_16
REMARK   10  A    between atoms: C_16  and  C_17
REMARK                            x       y       z     vdW  Elec       q    Type
REMARK                         _______ _______ _______ _____ _____    ______ ____
ROOT
ATOM      1  C   LIG A   1      -5.615   3.311 124.815  0.00  0.00    +0.149 C 
ATOM      2  N   LIG A   1      -6.715   3.185 123.848  0.00  0.00    -0.347 N 
ATOM      3  C   LIG A   1      -6.422   3.662 122.533  0.00  0.00    +0.053 A 
ATOM      4  C   LIG A   1      -7.410   3.631 121.532  0.00  0.00    +0.045 A 
ATOM      5  C   LIG A   1      -8.687   2.983 121.815  0.00  0.00    +0.190 A 
ATOM      6  O   LIG A   1      -9.505   2.765 120.930  0.00  0.00    -0.287 OA
ATOM      7  C   LIG A   1      -8.918   2.504 123.180  0.00  0.00    +0.072 A 
ATOM      8  C   LIG A   1      -7.967   2.585 124.127  0.00  0.00    +0.022 A 
ATOM      9  C   LIG A   1      -7.203   4.124 120.230  0.00  0.00    +0.013 A 
ATOM     10  C   LIG A   1      -5.958   4.614 119.882  0.00  0.00    +0.001 A 
ATOM     11  C   LIG A   1      -4.941   4.610 120.817  0.00  0.00    +0.002 A 
ATOM     12  C   LIG A   1      -5.164   4.148 122.124  0.00  0.00    +0.026 A 
ENDROOT
BRANCH   8  13
ATOM     13  C   LIG A   1      -8.231   1.867 125.460  0.00  0.00    +0.053 C 
BRANCH  13  14
ATOM     14  C   LIG A   1      -7.895   0.367 125.589  0.00  0.00    +0.006 C 
BRANCH  14  15
ATOM     15  C   LIG A   1      -8.884  -0.617 124.952  0.00  0.00    +0.000 C 
BRANCH  15  16
ATOM     16  C   LIG A   1      -8.430  -1.206 123.608  0.00  0.00    +0.000 C 
BRANCH  16  17
ATOM     17  C   LIG A   1      -7.975  -2.677 123.604  0.00  0.00    -0.000 C 
BRANCH  17  18
ATOM     18  C   LIG A   1      -7.210  -3.214 124.831  0.00  0.00    -0.000 C 
BRANCH  18  19
ATOM     19  C   LIG A   1      -5.706  -2.939 124.816  0.00  0.00    -0.000 C 
BRANCH  19  20
ATOM     20  C   LIG A   1      -4.990  -3.187 123.488  0.00  0.00    -0.003 C 
ATOM     21  C   LIG A   1      -4.234  -4.505 123.488  0.00  0.00    +0.004 C 
ENDBRANCH  19  20
ENDBRANCH  18  19
ENDBRANCH  17  18
ENDBRANCH  16  17
ENDBRANCH  15  16
ENDBRANCH  14  15
ENDBRANCH  13  14
ENDBRANCH   8  13
TORSDOF 8
ENDMDL
MODEL 5
REMARK VINA RESULT:      -6.6      3.178      5.162
REMARK  Name = NuBBE_1518
REMARK  10 active torsions:
REMARK  status: ('A' for Active; 'I' for Inactive)
REMARK    1  A    between atoms: C_1  and  N_2
REMARK    2  A    between atoms: C_8  and  C_9
REMARK    3  A    between atoms: C_9  and  C_10
REMARK    4  A    between atoms: C_10  and  C_11
REMARK    5  A    between atoms: C_11  and  C_12
REMARK    6  A    between atoms: C_12  and  C_13
REMARK    7  A    between atoms: C_13  and  C_14
REMARK    8  A    between atoms: C_14  and  C_15
REMARK    9  A    between atoms: C_15  and  C_16
REMARK   10  A    between atoms: C_16  and  C_17
REMARK                            x       y       z     vdW  Elec       q    Type
REMARK                         _______ _______ _______ _____ _____    ______ ____
ROOT
ATOM      1  C   LIG A   1      -5.768   0.099 127.013  0.00  0.00    +0.149 C 
ATOM      2  N   LIG A   1      -7.065   0.332 126.360  0.00  0.00    -0.347 N 
ATOM      3  C   LIG A   1      -7.091   1.420 125.435  0.00  0.00    +0.053 A 
ATOM      4  C   LIG A   1      -8.286   1.765 124.779  0.00  0.00    +0.045 A 
ATOM      5  C   LIG A   1      -9.462   0.916 124.953  0.00  0.00    +0.190 A 
ATOM      6  O   LIG A   1     -10.465   1.061 124.267  0.00  0.00    -0.287 OA
ATOM      7  C   LIG A   1      -9.364  -0.192 125.908  0.00  0.00    +0.072 A 
ATOM      8  C   LIG A   1      -8.216  -0.471 126.551  0.00  0.00    +0.022 A 
ATOM      9  C   LIG A   1      -8.393   2.851 123.890  0.00  0.00    +0.013 A 
ATOM     10  C   LIG A   1      -7.265   3.590 123.589  0.00  0.00    +0.001 A 
ATOM     11  C   LIG A   1      -6.056   3.251 124.165  0.00  0.00    +0.002 A 
ATOM     12  C   LIG A   1      -5.964   2.188 125.078  0.00  0.00    +0.026 A 
ENDROOT
BRANCH   8  13
ATOM     13  C   LIG A   1      -8.159  -1.773 127.365  0.00  0.00    +0.053 C 
BRANCH  13  14
ATOM     14  C   LIG A   1      -8.127  -3.126 126.624  0.00  0.00    +0.006 C 
BRANCH  14  15
ATOM     15  C   LIG A   1      -8.980  -3.235 125.354  0.00  0.00    +0.000 C 
BRANCH  15  16
ATOM     16  C   LIG A   1      -8.182  -3.437 124.058  0.00  0.00    +0.000 C 
BRANCH  16  17
ATOM     17  C   LIG A   1      -7.890  -2.185 123.211  0.00  0.00    -0.000 C 
BRANCH  17  18
ATOM     18  C   LIG A   1      -6.483  -1.556 123.285  0.00  0.00    -0.000 C 
BRANCH  18  19
ATOM     19  C   LIG A   1      -5.479  -2.338 124.131  0.00  0.00    -0.000 C 
BRANCH  19  20
ATOM     20  C   LIG A   1      -4.487  -3.211 123.361  0.00  0.00    -0.003 C 
ATOM     21  C   LIG A   1      -4.602  -4.676 123.747  0.00  0.00    +0.004 C 
ENDBRANCH  19  20
ENDBRANCH  18  19
ENDBRANCH  17  18
ENDBRANCH  16  17
ENDBRANCH  15  16
ENDBRANCH  14  15
ENDBRANCH  13  14
ENDBRANCH   8  13
TORSDOF 8
ENDMDL
MODEL 6
REMARK VINA RESULT:      -6.6      1.818      2.794
REMARK  Name = NuBBE_1518
REMARK  10 active torsions:
REMARK  status: ('A' for Active; 'I' for Inactive)
REMARK    1  A    between atoms: C_1  and  N_2
REMARK    2  A    between atoms: C_8  and  C_9
REMARK    3  A    between atoms: C_9  and  C_10
REMARK    4  A    between atoms: C_10  and  C_11
REMARK    5  A    between atoms: C_11  and  C_12
REMARK    6  A    between atoms: C_12  and  C_13
REMARK    7  A    between atoms: C_13  and  C_14
REMARK    8  A    between atoms: C_14  and  C_15
REMARK    9  A    between atoms: C_15  and  C_16
REMARK   10  A    between atoms: C_16  and  C_17
REMARK                            x       y       z     vdW  Elec       q    Type
REMARK                         _______ _______ _______ _____ _____    ______ ____
ROOT
ATOM      1  C   LIG A   1      -5.218   3.707 124.792  0.00  0.00    +0.149 C 
ATOM      2  N   LIG A   1      -6.425   3.389 124.015  0.00  0.00    -0.347 N 
ATOM      3  C   LIG A   1      -6.366   3.741 122.632  0.00  0.00    +0.053 A 
ATOM      4  C   LIG A   1      -7.476   3.523 121.796  0.00  0.00    +0.045 A 
ATOM      5  C   LIG A   1      -8.635   2.811 122.328  0.00  0.00    +0.190 A 
ATOM      6  O   LIG A   1      -9.543   2.433 121.600  0.00  0.00    -0.287 OA
ATOM      7  C   LIG A   1      -8.626   2.467 123.752  0.00  0.00    +0.072 A 
ATOM      8  C   LIG A   1      -7.564   2.726 124.535  0.00  0.00    +0.022 A 
ATOM      9  C   LIG A   1      -7.501   3.886 120.437  0.00  0.00    +0.013 A 
ATOM     10  C   LIG A   1      -6.369   4.431 119.862  0.00  0.00    +0.001 A 
ATOM     11  C   LIG A   1      -5.235   4.610 120.631  0.00  0.00    +0.002 A 
ATOM     12  C   LIG A   1      -5.229   4.278 121.996  0.00  0.00    +0.026 A 
ENDROOT
BRANCH   8  13
ATOM     13  C   LIG A   1      -7.570   2.139 125.956  0.00  0.00    +0.053 C 
BRANCH  13  14
ATOM     14  C   LIG A   1      -7.234   0.648 126.158  0.00  0.00    +0.006 C 
BRANCH  14  15
ATOM     15  C   LIG A   1      -6.577  -0.076 124.975  0.00  0.00    +0.000 C 
BRANCH  15  16
ATOM     16  C   LIG A   1      -5.440  -1.035 125.359  0.00  0.00    +0.000 C 
BRANCH  16  17
ATOM     17  C   LIG A   1      -5.749  -2.543 125.314  0.00  0.00    -0.000 C 
BRANCH  17  18
ATOM     18  C   LIG A   1      -6.605  -3.085 124.152  0.00  0.00    -0.000 C 
BRANCH  18  19
ATOM     19  C   LIG A   1      -7.943  -3.692 124.573  0.00  0.00    -0.000 C 
BRANCH  19  20
ATOM     20  C   LIG A   1      -9.176  -3.191 123.820  0.00  0.00    -0.003 C 
ATOM     21  C   LIG A   1      -8.826  -2.101 122.820  0.00  0.00    +0.004 C 
ENDBRANCH  19  20
ENDBRANCH  18  19
ENDBRANCH  17  18
ENDBRANCH  16  17
ENDBRANCH  15  16
ENDBRANCH  14  15
ENDBRANCH  13  14
ENDBRANCH   8  13
TORSDOF 8
ENDMDL
MODEL 7
REMARK VINA RESULT:      -6.4      3.201      5.641
REMARK  Name = NuBBE_1518
REMARK  10 active torsions:
REMARK  status: ('A' for Active; 'I' for Inactive)
REMARK    1  A    between atoms: C_1  and  N_2
REMARK    2  A    between atoms: C_8  and  C_9
REMARK    3  A    between atoms: C_9  and  C_10
REMARK    4  A    between atoms: C_10  and  C_11
REMARK    5  A    between atoms: C_11  and  C_12
REMARK    6  A    between atoms: C_12  and  C_13
REMARK    7  A    between atoms: C_13  and  C_14
REMARK    8  A    between atoms: C_14  and  C_15
REMARK    9  A    between atoms: C_15  and  C_16
REMARK   10  A    between atoms: C_16  and  C_17
REMARK                            x       y       z     vdW  Elec       q    Type
REMARK                         _______ _______ _______ _____ _____    ______ ____
ROOT
ATOM      1  C   LIG A   1      -5.948  -1.079 124.919  0.00  0.00    +0.149 C 
ATOM      2  N   LIG A   1      -7.224  -0.783 124.250  0.00  0.00    -0.347 N 
ATOM      3  C   LIG A   1      -7.473   0.602 124.008  0.00  0.00    +0.053 A 
ATOM      4  C   LIG A   1      -8.679   1.012 123.411  0.00  0.00    +0.045 A 
ATOM      5  C   LIG A   1      -9.608  -0.002 122.921  0.00  0.00    +0.190 A 
ATOM      6  O   LIG A   1     -10.576   0.294 122.232  0.00  0.00    -0.287 OA
ATOM      7  C   LIG A   1      -9.286  -1.406 123.191  0.00  0.00    +0.072 A 
ATOM      8  C   LIG A   1      -8.143  -1.763 123.802  0.00  0.00    +0.022 A 
ATOM      9  C   LIG A   1      -9.007   2.362 123.183  0.00  0.00    +0.013 A 
ATOM     10  C   LIG A   1      -8.089   3.344 123.501  0.00  0.00    +0.001 A 
ATOM     11  C   LIG A   1      -6.867   2.983 124.037  0.00  0.00    +0.002 A 
ATOM     12  C   LIG A   1      -6.560   1.637 124.293  0.00  0.00    +0.026 A 
ENDROOT
BRANCH   8  13
ATOM     13  C   LIG A   1      -7.802  -3.261 123.849  0.00  0.00    +0.053 C 
BRANCH  13  14
ATOM     14  C   LIG A   1      -8.191  -4.085 125.094  0.00  0.00    +0.006 C 
BRANCH  14  15
ATOM     15  C   LIG A   1      -8.953  -3.343 126.199  0.00  0.00    +0.000 C 
BRANCH  15  16
ATOM     16  C   LIG A   1      -8.094  -2.912 127.397  0.00  0.00    +0.000 C 
BRANCH  16  17
ATOM     17  C   LIG A   1      -8.412  -3.559 128.758  0.00  0.00    -0.000 C 
BRANCH  17  18
ATOM     18  C   LIG A   1      -7.800  -2.939 130.030  0.00  0.00    -0.000 C 
BRANCH  18  19
ATOM     19  C   LIG A   1      -6.309  -3.218 130.221  0.00  0.00    -0.000 C 
BRANCH  19  20
ATOM     20  C   LIG A   1      -5.921  -4.681 130.439  0.00  0.00    -0.003 C 
ATOM     21  C   LIG A   1      -5.299  -4.906 131.807  0.00  0.00    +0.004 C 
ENDBRANCH  19  20
ENDBRANCH  18  19
ENDBRANCH  17  18
ENDBRANCH  16  17
ENDBRANCH  15  16
ENDBRANCH  14  15
ENDBRANCH  13  14
ENDBRANCH   8  13
TORSDOF 8
ENDMDL
MODEL 8
REMARK VINA RESULT:      -6.4     10.615     12.595
REMARK  Name = NuBBE_1518
REMARK  10 active torsions:
REMARK  status: ('A' for Active; 'I' for Inactive)
REMARK    1  A    between atoms: C_1  and  N_2
REMARK    2  A    between atoms: C_8  and  C_9
REMARK    3  A    between atoms: C_9  and  C_10
REMARK    4  A    between atoms: C_10  and  C_11
REMARK    5  A    between atoms: C_11  and  C_12
REMARK    6  A    between atoms: C_12  and  C_13
REMARK    7  A    between atoms: C_13  and  C_14
REMARK    8  A    between atoms: C_14  and  C_15
REMARK    9  A    between atoms: C_15  and  C_16
REMARK   10  A    between atoms: C_16  and  C_17
REMARK                            x       y       z     vdW  Elec       q    Type
REMARK                         _______ _______ _______ _____ _____    ______ ____
ROOT
ATOM      1  C   LIG A   1      -8.481   5.720 129.676  0.00  0.00    +0.149 C 
ATOM      2  N   LIG A   1      -9.726   6.174 130.312  0.00  0.00    -0.347 N 
ATOM      3  C   LIG A   1     -10.614   6.896 129.457  0.00  0.00    +0.053 A 
ATOM      4  C   LIG A   1     -11.819   7.417 129.964  0.00  0.00    +0.045 A 
ATOM      5  C   LIG A   1     -12.211   7.094 131.333  0.00  0.00    +0.190 A 
ATOM      6  O   LIG A   1     -13.326   7.363 131.760  0.00  0.00    -0.287 OA
ATOM      7  C   LIG A   1     -11.259   6.339 132.152  0.00  0.00    +0.072 A 
ATOM      8  C   LIG A   1     -10.096   5.890 131.649  0.00  0.00    +0.022 A 
ATOM      9  C   LIG A   1     -12.718   8.174 129.190  0.00  0.00    +0.013 A 
ATOM     10  C   LIG A   1     -12.450   8.378 127.849  0.00  0.00    +0.001 A 
ATOM     11  C   LIG A   1     -11.307   7.835 127.295  0.00  0.00    +0.002 A 
ATOM     12  C   LIG A   1     -10.397   7.110 128.082  0.00  0.00    +0.026 A 
ENDROOT
BRANCH   8  13
ATOM     13  C   LIG A   1      -9.269   4.933 132.523  0.00  0.00    +0.053 C 
BRANCH  13  14
ATOM     14  C   LIG A   1      -8.143   5.503 133.410  0.00  0.00    +0.006 C 
BRANCH  14  15
ATOM     15  C   LIG A   1      -8.176   5.118 134.894  0.00  0.00    +0.000 C 
BRANCH  15  16
ATOM     16  C   LIG A   1      -7.310   5.999 135.807  0.00  0.00    +0.000 C 
BRANCH  16  17
ATOM     17  C   LIG A   1      -7.871   6.327 137.203  0.00  0.00    -0.000 C 
BRANCH  17  18
ATOM     18  C   LIG A   1      -7.944   7.804 137.639  0.00  0.00    -0.000 C 
BRANCH  18  19
ATOM     19  C   LIG A   1      -9.120   8.585 137.053  0.00  0.00    -0.000 C 
BRANCH  19  20
ATOM     20  C   LIG A   1     -10.241   8.946 138.029  0.00  0.00    -0.003 C 
ATOM     21  C   LIG A   1      -9.838  10.072 138.966  0.00  0.00    +0.004 C 
ENDBRANCH  19  20
ENDBRANCH  18  19
ENDBRANCH  17  18
ENDBRANCH  16  17
ENDBRANCH  15  16
ENDBRANCH  14  15
ENDBRANCH  13  14
ENDBRANCH   8  13
TORSDOF 8
ENDMDL
MODEL 9
REMARK VINA RESULT:      -6.2      2.840      8.302
REMARK  Name = NuBBE_1518
REMARK  10 active torsions:
REMARK  status: ('A' for Active; 'I' for Inactive)
REMARK    1  A    between atoms: C_1  and  N_2
REMARK    2  A    between atoms: C_8  and  C_9
REMARK    3  A    between atoms: C_9  and  C_10
REMARK    4  A    between atoms: C_10  and  C_11
REMARK    5  A    between atoms: C_11  and  C_12
REMARK    6  A    between atoms: C_12  and  C_13
REMARK    7  A    between atoms: C_13  and  C_14
REMARK    8  A    between atoms: C_14  and  C_15
REMARK    9  A    between atoms: C_15  and  C_16
REMARK   10  A    between atoms: C_16  and  C_17
REMARK                            x       y       z     vdW  Elec       q    Type
REMARK                         _______ _______ _______ _____ _____    ______ ____
ROOT
ATOM      1  C   LIG A   1      -6.276   0.393 127.502  0.00  0.00    +0.149 C 
ATOM      2  N   LIG A   1      -7.131  -0.439 126.643  0.00  0.00    -0.347 N 
ATOM      3  C   LIG A   1      -7.690  -1.589 127.278  0.00  0.00    +0.053 A 
ATOM      4  C   LIG A   1      -8.492  -2.484 126.546  0.00  0.00    +0.045 A 
ATOM      5  C   LIG A   1      -8.854  -2.150 125.171  0.00  0.00    +0.190 A 
ATOM      6  O   LIG A   1      -9.693  -2.793 124.555  0.00  0.00    -0.287 OA
ATOM      7  C   LIG A   1      -8.255  -0.948 124.584  0.00  0.00    +0.072 A 
ATOM      8  C   LIG A   1      -7.459  -0.135 125.299  0.00  0.00    +0.022 A 
ATOM      9  C   LIG A   1      -9.039  -3.658 127.097  0.00  0.00    +0.013 A 
ATOM     10  C   LIG A   1      -8.837  -3.934 128.436  0.00  0.00    +0.001 A 
ATOM     11  C   LIG A   1      -8.104  -3.053 129.208  0.00  0.00    +0.002 A 
ATOM     12  C   LIG A   1      -7.533  -1.901 128.643  0.00  0.00    +0.026 A 
ENDROOT
BRANCH   8  13
ATOM     13  C   LIG A   1      -7.055   1.203 124.660  0.00  0.00    +0.053 C 
BRANCH  13  14
ATOM     14  C   LIG A   1      -7.308   1.428 123.155  0.00  0.00    +0.006 C 
BRANCH  14  15
ATOM     15  C   LIG A   1      -8.628   2.112 122.775  0.00  0.00    +0.000 C 
BRANCH  15  16
ATOM     16  C   LIG A   1      -8.471   3.471 122.078  0.00  0.00    +0.000 C 
BRANCH  16  17
ATOM     17  C   LIG A   1      -7.979   3.459 120.618  0.00  0.00    -0.000 C 
BRANCH  17  18
ATOM     18  C   LIG A   1      -6.691   4.231 120.268  0.00  0.00    -0.000 C 
BRANCH  18  19
ATOM     19  C   LIG A   1      -5.413   3.648 120.871  0.00  0.00    -0.000 C 
BRANCH  19  20
ATOM     20  C   LIG A   1      -4.666   4.545 121.859  0.00  0.00    -0.003 C 
ATOM     21  C   LIG A   1      -5.252   4.461 123.258  0.00  0.00    +0.004 C 
ENDBRANCH  19  20
ENDBRANCH  18  19
ENDBRANCH  17  18
ENDBRANCH  16  17
ENDBRANCH  15  16
ENDBRANCH  14  15
ENDBRANCH  13  14
ENDBRANCH   8  13
TORSDOF 8
ENDMDL
