MODEL 1
REMARK VINA RESULT:      -6.9      0.000      0.000
REMARK  Name = NuBBE_2386
REMARK  7 active torsions:
REMARK  status: ('A' for Active; 'I' for Inactive)
REMARK    1  A    between atoms: C_1  and  C_2
REMARK    2  A    between atoms: C_1  and  C_12
REMARK    3  A    between atoms: C_2  and  C_3
REMARK    4  A    between atoms: C_3  and  C_4
REMARK    5  A    between atoms: C_7  and  O_10
REMARK    6  A    between atoms: O_10  and  C_11
REMARK    7  A    between atoms: C_17  and  O_18
REMARK                            x       y       z     vdW  Elec       q    Type
REMARK                         _______ _______ _______ _____ _____    ______ ____
ROOT
ATOM      1  C   LIG A   1      -8.727  -1.756 122.915  0.00  0.00    +0.039 C 
ENDROOT
BRANCH   1   2
ATOM      2  C   LIG A   1      -8.624  -0.277 123.223  0.00  0.00    -0.002 A 
ATOM      3  C   LIG A   1      -7.426   0.252 123.739  0.00  0.00    +0.056 A 
ATOM      4  C   LIG A   1      -7.393   1.592 124.078  0.00  0.00    +0.167 A 
ATOM      5  C   LIG A   1      -8.481   2.410 123.913  0.00  0.00    +0.170 A 
ATOM      6  C   LIG A   1      -9.670   1.942 123.393  0.00  0.00    +0.095 A 
ATOM      7  C   LIG A   1      -9.728   0.587 123.050  0.00  0.00    +0.124 A 
ATOM      8  O   LIG A   1      -8.246   3.685 124.325  0.00  0.00    -0.453 OA
ATOM      9  C   LIG A   1      -6.892   3.565 124.808  0.00  0.00    +0.466 C 
ATOM     10  O   LIG A   1      -6.329   2.252 124.617  0.00  0.00    -0.453 OA
BRANCH   7  11
ATOM     11  O   LIG A   1     -10.895   0.067 122.554  0.00  0.00    -0.506 OA
ATOM     12  H   LIG A   1     -10.720  -0.311 121.677  0.00  0.00    +0.292 HD
ENDBRANCH   7  11
ENDBRANCH   1   2
BRANCH   1  13
ATOM     13  C   LIG A   1      -8.018  -2.668 123.922  0.00  0.00    +0.009 C 
BRANCH  13  14
ATOM     14  C   LIG A   1      -9.025  -3.245 124.927  0.00  0.00    +0.035 C 
BRANCH  14  15
ATOM     15  C   LIG A   1      -8.646  -2.959 126.359  0.00  0.00    -0.047 A 
ATOM     16  C   LIG A   1      -8.997  -3.857 127.373  0.00  0.00    +0.007 A 
ATOM     17  C   LIG A   1      -8.657  -3.600 128.705  0.00  0.00    +0.046 A 
ATOM     18  C   LIG A   1      -7.964  -2.437 129.044  0.00  0.00    +0.120 A 
ATOM     19  C   LIG A   1      -7.615  -1.537 128.035  0.00  0.00    +0.046 A 
ATOM     20  C   LIG A   1      -7.953  -1.792 126.702  0.00  0.00    +0.007 A 
BRANCH  18  21
ATOM     21  O   LIG A   1      -7.581  -2.075 130.307  0.00  0.00    -0.495 OA
ATOM     22  C   LIG A   1      -6.950  -3.080 131.089  0.00  0.00    +0.277 C 
ENDBRANCH  18  21
ENDBRANCH  14  15
ENDBRANCH  13  14
ENDBRANCH   1  13
TORSDOF 6
ENDMDL
MODEL 2
REMARK VINA RESULT:      -6.8      7.879      9.901
REMARK  Name = NuBBE_2386
REMARK  7 active torsions:
REMARK  status: ('A' for Active; 'I' for Inactive)
REMARK    1  A    between atoms: C_1  and  C_2
REMARK    2  A    between atoms: C_1  and  C_12
REMARK    3  A    between atoms: C_2  and  C_3
REMARK    4  A    between atoms: C_3  and  C_4
REMARK    5  A    between atoms: C_7  and  O_10
REMARK    6  A    between atoms: O_10  and  C_11
REMARK    7  A    between atoms: C_17  and  O_18
REMARK                            x       y       z     vdW  Elec       q    Type
REMARK                         _______ _______ _______ _____ _____    ______ ____
ROOT
ATOM      1  C   LIG A   1      -7.973   6.268 131.689  0.00  0.00    +0.039 C 
ENDROOT
BRANCH   1   2
ATOM      2  C   LIG A   1      -9.344   6.621 131.153  0.00  0.00    -0.002 A 
ATOM      3  C   LIG A   1      -9.464   7.378 129.973  0.00  0.00    +0.056 A 
ATOM      4  C   LIG A   1     -10.730   7.744 129.553  0.00  0.00    +0.167 A 
ATOM      5  C   LIG A   1     -11.858   7.379 130.244  0.00  0.00    +0.170 A 
ATOM      6  C   LIG A   1     -11.791   6.620 131.394  0.00  0.00    +0.095 A 
ATOM      7  C   LIG A   1     -10.520   6.246 131.841  0.00  0.00    +0.124 A 
ATOM      8  O   LIG A   1     -12.998   7.856 129.677  0.00  0.00    -0.453 OA
ATOM      9  C   LIG A   1     -12.453   8.600 128.567  0.00  0.00    +0.466 C 
ATOM     10  O   LIG A   1     -11.019   8.501 128.458  0.00  0.00    -0.453 OA
BRANCH   7  11
ATOM     11  O   LIG A   1     -10.399   5.514 132.993  0.00  0.00    -0.506 OA
ATOM     12  H   LIG A   1     -10.166   4.601 132.759  0.00  0.00    +0.292 HD
ENDBRANCH   7  11
ENDBRANCH   1   2
BRANCH   1  13
ATOM     13  C   LIG A   1      -6.818   7.039 131.042  0.00  0.00    +0.009 C 
BRANCH  13  14
ATOM     14  C   LIG A   1      -5.471   6.555 131.596  0.00  0.00    +0.035 C 
BRANCH  14  15
ATOM     15  C   LIG A   1      -4.596   5.932 130.536  0.00  0.00    -0.047 A 
ATOM     16  C   LIG A   1      -4.739   4.579 130.210  0.00  0.00    +0.007 A 
ATOM     17  C   LIG A   1      -3.930   3.989 129.233  0.00  0.00    +0.046 A 
ATOM     18  C   LIG A   1      -2.961   4.744 128.571  0.00  0.00    +0.120 A 
ATOM     19  C   LIG A   1      -2.813   6.094 128.896  0.00  0.00    +0.046 A 
ATOM     20  C   LIG A   1      -3.622   6.687 129.872  0.00  0.00    +0.007 A 
BRANCH  18  21
ATOM     21  O   LIG A   1      -2.110   4.280 127.605  0.00  0.00    -0.495 OA
ATOM     22  C   LIG A   1      -2.531   3.123 126.894  0.00  0.00    +0.277 C 
ENDBRANCH  18  21
ENDBRANCH  14  15
ENDBRANCH  13  14
ENDBRANCH   1  13
TORSDOF 6
ENDMDL
MODEL 3
REMARK VINA RESULT:      -6.8      6.698      8.413
REMARK  Name = NuBBE_2386
REMARK  7 active torsions:
REMARK  status: ('A' for Active; 'I' for Inactive)
REMARK    1  A    between atoms: C_1  and  C_2
REMARK    2  A    between atoms: C_1  and  C_12
REMARK    3  A    between atoms: C_2  and  C_3
REMARK    4  A    between atoms: C_3  and  C_4
REMARK    5  A    between atoms: C_7  and  O_10
REMARK    6  A    between atoms: O_10  and  C_11
REMARK    7  A    between atoms: C_17  and  O_18
REMARK                            x       y       z     vdW  Elec       q    Type
REMARK                         _______ _______ _______ _____ _____    ______ ____
ROOT
ATOM      1  C   LIG A   1     -10.662   6.190 132.385  0.00  0.00    +0.039 C 
ENDROOT
BRANCH   1   2
ATOM      2  C   LIG A   1     -11.114   6.544 130.984  0.00  0.00    -0.002 A 
ATOM      3  C   LIG A   1     -10.230   6.389 129.899  0.00  0.00    +0.056 A 
ATOM      4  C   LIG A   1     -10.652   6.793 128.645  0.00  0.00    +0.167 A 
ATOM      5  C   LIG A   1     -11.901   7.320 128.435  0.00  0.00    +0.170 A 
ATOM      6  C   LIG A   1     -12.808   7.472 129.463  0.00  0.00    +0.095 A 
ATOM      7  C   LIG A   1     -12.399   7.078 130.740  0.00  0.00    +0.124 A 
ATOM      8  O   LIG A   1     -12.110   7.670 127.137  0.00  0.00    -0.453 OA
ATOM      9  C   LIG A   1     -10.829   7.338 126.561  0.00  0.00    +0.466 C 
ATOM     10  O   LIG A   1      -9.914   6.743 127.502  0.00  0.00    -0.453 OA
BRANCH   7  11
ATOM     11  O   LIG A   1     -13.255   7.234 131.799  0.00  0.00    -0.506 OA
ATOM     12  H   LIG A   1     -13.779   6.423 131.898  0.00  0.00    +0.292 HD
ENDBRANCH   7  11
ENDBRANCH   1   2
BRANCH   1  13
ATOM     13  C   LIG A   1      -9.335   5.427 132.452  0.00  0.00    +0.009 C 
BRANCH  13  14
ATOM     14  C   LIG A   1      -9.373   4.384 133.578  0.00  0.00    +0.035 C 
BRANCH  14  15
ATOM     15  C   LIG A   1      -8.858   3.035 133.138  0.00  0.00    -0.047 A 
ATOM     16  C   LIG A   1      -9.662   2.195 132.360  0.00  0.00    +0.007 A 
ATOM     17  C   LIG A   1      -9.200   0.940 131.952  0.00  0.00    +0.046 A 
ATOM     18  C   LIG A   1      -7.926   0.505 132.320  0.00  0.00    +0.120 A 
ATOM     19  C   LIG A   1      -7.122   1.339 133.099  0.00  0.00    +0.046 A 
ATOM     20  C   LIG A   1      -7.583   2.595 133.508  0.00  0.00    +0.007 A 
BRANCH  18  21
ATOM     21  O   LIG A   1      -7.366  -0.699 131.987  0.00  0.00    -0.495 OA
ATOM     22  C   LIG A   1      -7.750  -1.816 132.779  0.00  0.00    +0.277 C 
ENDBRANCH  18  21
ENDBRANCH  14  15
ENDBRANCH  13  14
ENDBRANCH   1  13
TORSDOF 6
ENDMDL
MODEL 4
REMARK VINA RESULT:      -6.8      9.534     10.999
REMARK  Name = NuBBE_2386
REMARK  7 active torsions:
REMARK  status: ('A' for Active; 'I' for Inactive)
REMARK    1  A    between atoms: C_1  and  C_2
REMARK    2  A    between atoms: C_1  and  C_12
REMARK    3  A    between atoms: C_2  and  C_3
REMARK    4  A    between atoms: C_3  and  C_4
REMARK    5  A    between atoms: C_7  and  O_10
REMARK    6  A    between atoms: O_10  and  C_11
REMARK    7  A    between atoms: C_17  and  O_18
REMARK                            x       y       z     vdW  Elec       q    Type
REMARK                         _______ _______ _______ _____ _____    ______ ____
ROOT
ATOM      1  C   LIG A   1      -8.276   6.225 131.709  0.00  0.00    +0.039 C 
ENDROOT
BRANCH   1   2
ATOM      2  C   LIG A   1      -9.602   6.634 131.106  0.00  0.00    -0.002 A 
ATOM      3  C   LIG A   1      -9.633   7.402 129.927  0.00  0.00    +0.056 A 
ATOM      4  C   LIG A   1     -10.861   7.820 129.447  0.00  0.00    +0.167 A 
ATOM      5  C   LIG A   1     -12.035   7.495 130.077  0.00  0.00    +0.170 A 
ATOM      6  C   LIG A   1     -12.057   6.728 131.223  0.00  0.00    +0.095 A 
ATOM      7  C   LIG A   1     -10.826   6.301 131.731  0.00  0.00    +0.124 A 
ATOM      8  O   LIG A   1     -13.125   8.019 129.455  0.00  0.00    -0.453 OA
ATOM      9  C   LIG A   1     -12.496   8.748 128.380  0.00  0.00    +0.466 C 
ATOM     10  O   LIG A   1     -11.064   8.593 128.343  0.00  0.00    -0.453 OA
BRANCH   7  11
ATOM     11  O   LIG A   1     -10.792   5.559 132.881  0.00  0.00    -0.506 OA
ATOM     12  H   LIG A   1     -10.679   4.624 132.646  0.00  0.00    +0.292 HD
ENDBRANCH   7  11
ENDBRANCH   1   2
BRANCH   1  13
ATOM     13  C   LIG A   1      -7.059   6.948 131.121  0.00  0.00    +0.009 C 
BRANCH  13  14
ATOM     14  C   LIG A   1      -5.830   6.028 131.134  0.00  0.00    +0.035 C 
BRANCH  14  15
ATOM     15  C   LIG A   1      -4.641   6.658 131.817  0.00  0.00    -0.047 A 
ATOM     16  C   LIG A   1      -4.323   6.314 133.136  0.00  0.00    +0.007 A 
ATOM     17  C   LIG A   1      -3.227   6.895 133.783  0.00  0.00    +0.046 A 
ATOM     18  C   LIG A   1      -2.435   7.833 133.120  0.00  0.00    +0.120 A 
ATOM     19  C   LIG A   1      -2.750   8.180 131.805  0.00  0.00    +0.046 A 
ATOM     20  C   LIG A   1      -3.846   7.600 131.156  0.00  0.00    +0.007 A 
BRANCH  18  21
ATOM     21  O   LIG A   1      -1.344   8.471 133.646  0.00  0.00    -0.495 OA
ATOM     22  C   LIG A   1      -0.080   7.865 133.408  0.00  0.00    +0.277 C 
ENDBRANCH  18  21
ENDBRANCH  14  15
ENDBRANCH  13  14
ENDBRANCH   1  13
TORSDOF 6
ENDMDL
MODEL 5
REMARK VINA RESULT:      -6.7      1.698      2.282
REMARK  Name = NuBBE_2386
REMARK  7 active torsions:
REMARK  status: ('A' for Active; 'I' for Inactive)
REMARK    1  A    between atoms: C_1  and  C_2
REMARK    2  A    between atoms: C_1  and  C_12
REMARK    3  A    between atoms: C_2  and  C_3
REMARK    4  A    between atoms: C_3  and  C_4
REMARK    5  A    between atoms: C_7  and  O_10
REMARK    6  A    between atoms: O_10  and  C_11
REMARK    7  A    between atoms: C_17  and  O_18
REMARK                            x       y       z     vdW  Elec       q    Type
REMARK                         _______ _______ _______ _____ _____    ______ ____
ROOT
ATOM      1  C   LIG A   1      -9.170  -2.935 123.274  0.00  0.00    +0.039 C 
ENDROOT
BRANCH   1   2
ATOM      2  C   LIG A   1      -8.584  -1.539 123.310  0.00  0.00    -0.002 A 
ATOM      3  C   LIG A   1      -9.436  -0.419 123.328  0.00  0.00    +0.056 A 
ATOM      4  C   LIG A   1      -8.866   0.841 123.285  0.00  0.00    +0.167 A 
ATOM      5  C   LIG A   1      -7.507   1.021 123.241  0.00  0.00    +0.170 A 
ATOM      6  C   LIG A   1      -6.632  -0.045 123.242  0.00  0.00    +0.095 A 
ATOM      7  C   LIG A   1      -7.188  -1.328 123.277  0.00  0.00    +0.124 A 
ATOM      8  O   LIG A   1      -7.155   2.333 123.184  0.00  0.00    -0.453 OA
ATOM      9  C   LIG A   1      -8.455   2.959 123.157  0.00  0.00    +0.466 C 
ATOM     10  O   LIG A   1      -9.545   2.022 123.262  0.00  0.00    -0.453 OA
BRANCH   7  11
ATOM     11  O   LIG A   1      -6.361  -2.421 123.253  0.00  0.00    -0.506 OA
ATOM     12  H   LIG A   1      -6.726  -3.101 123.842  0.00  0.00    +0.292 HD
ENDBRANCH   7  11
ENDBRANCH   1   2
BRANCH   1  13
ATOM     13  C   LIG A   1      -8.950  -3.751 124.553  0.00  0.00    +0.009 C 
BRANCH  13  14
ATOM     14  C   LIG A   1      -9.466  -2.982 125.776  0.00  0.00    +0.035 C 
BRANCH  14  15
ATOM     15  C   LIG A   1      -8.468  -2.953 126.908  0.00  0.00    -0.047 A 
ATOM     16  C   LIG A   1      -8.747  -3.614 128.109  0.00  0.00    +0.007 A 
ATOM     17  C   LIG A   1      -7.833  -3.589 129.168  0.00  0.00    +0.046 A 
ATOM     18  C   LIG A   1      -6.628  -2.898 129.042  0.00  0.00    +0.120 A 
ATOM     19  C   LIG A   1      -6.348  -2.234 127.845  0.00  0.00    +0.046 A 
ATOM     20  C   LIG A   1      -7.260  -2.259 126.785  0.00  0.00    +0.007 A 
BRANCH  18  21
ATOM     21  O   LIG A   1      -5.660  -2.797 130.004  0.00  0.00    -0.495 OA
ATOM     22  C   LIG A   1      -4.556  -3.685 129.886  0.00  0.00    +0.277 C 
ENDBRANCH  18  21
ENDBRANCH  14  15
ENDBRANCH  13  14
ENDBRANCH   1  13
TORSDOF 6
ENDMDL
MODEL 6
REMARK VINA RESULT:      -6.5      7.762      9.408
REMARK  Name = NuBBE_2386
REMARK  7 active torsions:
REMARK  status: ('A' for Active; 'I' for Inactive)
REMARK    1  A    between atoms: C_1  and  C_2
REMARK    2  A    between atoms: C_1  and  C_12
REMARK    3  A    between atoms: C_2  and  C_3
REMARK    4  A    between atoms: C_3  and  C_4
REMARK    5  A    between atoms: C_7  and  O_10
REMARK    6  A    between atoms: O_10  and  C_11
REMARK    7  A    between atoms: C_17  and  O_18
REMARK                            x       y       z     vdW  Elec       q    Type
REMARK                         _______ _______ _______ _____ _____    ______ ____
ROOT
ATOM      1  C   LIG A   1     -10.666   6.320 132.352  0.00  0.00    +0.039 C 
ENDROOT
BRANCH   1   2
ATOM      2  C   LIG A   1     -11.129   6.621 130.943  0.00  0.00    -0.002 A 
ATOM      3  C   LIG A   1     -10.237   6.477 129.863  0.00  0.00    +0.056 A 
ATOM      4  C   LIG A   1     -10.672   6.832 128.599  0.00  0.00    +0.167 A 
ATOM      5  C   LIG A   1     -11.940   7.303 128.374  0.00  0.00    +0.170 A 
ATOM      6  C   LIG A   1     -12.855   7.442 129.397  0.00  0.00    +0.095 A 
ATOM      7  C   LIG A   1     -12.434   7.097 130.684  0.00  0.00    +0.124 A 
ATOM      8  O   LIG A   1     -12.160   7.612 127.068  0.00  0.00    -0.453 OA
ATOM      9  C   LIG A   1     -10.866   7.319 126.502  0.00  0.00    +0.466 C 
ATOM     10  O   LIG A   1      -9.929   6.785 127.458  0.00  0.00    -0.453 OA
BRANCH   7  11
ATOM     11  O   LIG A   1     -13.298   7.242 131.738  0.00  0.00    -0.506 OA
ATOM     12  H   LIG A   1     -12.880   6.880 132.536  0.00  0.00    +0.292 HD
ENDBRANCH   7  11
ENDBRANCH   1   2
BRANCH   1  13
ATOM     13  C   LIG A   1      -9.625   5.201 132.456  0.00  0.00    +0.009 C 
BRANCH  13  14
ATOM     14  C   LIG A   1      -8.275   5.764 132.922  0.00  0.00    +0.035 C 
BRANCH  14  15
ATOM     15  C   LIG A   1      -7.206   5.665 131.861  0.00  0.00    -0.047 A 
ATOM     16  C   LIG A   1      -6.988   4.456 131.192  0.00  0.00    +0.007 A 
ATOM     17  C   LIG A   1      -5.996   4.349 130.212  0.00  0.00    +0.046 A 
ATOM     18  C   LIG A   1      -5.204   5.452 129.890  0.00  0.00    +0.120 A 
ATOM     19  C   LIG A   1      -5.417   6.660 130.557  0.00  0.00    +0.046 A 
ATOM     20  C   LIG A   1      -6.409   6.768 131.538  0.00  0.00    +0.007 A 
BRANCH  18  21
ATOM     21  O   LIG A   1      -4.203   5.471 128.956  0.00  0.00    -0.495 OA
ATOM     22  C   LIG A   1      -2.981   4.847 129.327  0.00  0.00    +0.277 C 
ENDBRANCH  18  21
ENDBRANCH  14  15
ENDBRANCH  13  14
ENDBRANCH   1  13
TORSDOF 6
ENDMDL
MODEL 7
REMARK VINA RESULT:      -6.5      3.112      4.468
REMARK  Name = NuBBE_2386
REMARK  7 active torsions:
REMARK  status: ('A' for Active; 'I' for Inactive)
REMARK    1  A    between atoms: C_1  and  C_2
REMARK    2  A    between atoms: C_1  and  C_12
REMARK    3  A    between atoms: C_2  and  C_3
REMARK    4  A    between atoms: C_3  and  C_4
REMARK    5  A    between atoms: C_7  and  O_10
REMARK    6  A    between atoms: O_10  and  C_11
REMARK    7  A    between atoms: C_17  and  O_18
REMARK                            x       y       z     vdW  Elec       q    Type
REMARK                         _______ _______ _______ _____ _____    ______ ____
ROOT
ATOM      1  C   LIG A   1      -9.360   1.687 124.683  0.00  0.00    +0.039 C 
ENDROOT
BRANCH   1   2
ATOM      2  C   LIG A   1      -8.252   2.584 124.175  0.00  0.00    -0.002 A 
ATOM      3  C   LIG A   1      -7.768   2.431 122.862  0.00  0.00    +0.056 A 
ATOM      4  C   LIG A   1      -6.705   3.218 122.457  0.00  0.00    +0.167 A 
ATOM      5  C   LIG A   1      -6.128   4.143 123.290  0.00  0.00    +0.170 A 
ATOM      6  C   LIG A   1      -6.581   4.343 124.577  0.00  0.00    +0.095 A 
ATOM      7  C   LIG A   1      -7.649   3.552 125.010  0.00  0.00    +0.124 A 
ATOM      8  O   LIG A   1      -5.088   4.796 122.706  0.00  0.00    -0.453 OA
ATOM      9  C   LIG A   1      -5.051   4.146 121.419  0.00  0.00    +0.466 C 
ATOM     10  O   LIG A   1      -6.099   3.173 121.237  0.00  0.00    -0.453 OA
BRANCH   7  11
ATOM     11  O   LIG A   1      -8.118   3.694 126.289  0.00  0.00    -0.506 OA
ATOM     12  H   LIG A   1      -8.794   3.016 126.451  0.00  0.00    +0.292 HD
ENDBRANCH   7  11
ENDBRANCH   1   2
BRANCH   1  13
ATOM     13  C   LIG A   1      -8.898   0.587 125.645  0.00  0.00    +0.009 C 
BRANCH  13  14
ATOM     14  C   LIG A   1      -9.146  -0.799 125.034  0.00  0.00    +0.035 C 
BRANCH  14  15
ATOM     15  C   LIG A   1      -7.876  -1.463 124.564  0.00  0.00    -0.047 A 
ATOM     16  C   LIG A   1      -7.061  -2.148 125.472  0.00  0.00    +0.007 A 
ATOM     17  C   LIG A   1      -5.877  -2.762 125.050  0.00  0.00    +0.046 A 
ATOM     18  C   LIG A   1      -5.489  -2.696 123.712  0.00  0.00    +0.120 A 
ATOM     19  C   LIG A   1      -6.297  -2.011 122.803  0.00  0.00    +0.046 A 
ATOM     20  C   LIG A   1      -7.482  -1.397 123.223  0.00  0.00    +0.007 A 
BRANCH  18  21
ATOM     21  O   LIG A   1      -4.355  -3.250 123.181  0.00  0.00    -0.495 OA
ATOM     22  C   LIG A   1      -4.052  -4.579 123.584  0.00  0.00    +0.277 C 
ENDBRANCH  18  21
ENDBRANCH  14  15
ENDBRANCH  13  14
ENDBRANCH   1  13
TORSDOF 6
ENDMDL
MODEL 8
REMARK VINA RESULT:      -6.4      7.935     10.034
REMARK  Name = NuBBE_2386
REMARK  7 active torsions:
REMARK  status: ('A' for Active; 'I' for Inactive)
REMARK    1  A    between atoms: C_1  and  C_2
REMARK    2  A    between atoms: C_1  and  C_12
REMARK    3  A    between atoms: C_2  and  C_3
REMARK    4  A    between atoms: C_3  and  C_4
REMARK    5  A    between atoms: C_7  and  O_10
REMARK    6  A    between atoms: O_10  and  C_11
REMARK    7  A    between atoms: C_17  and  O_18
REMARK                            x       y       z     vdW  Elec       q    Type
REMARK                         _______ _______ _______ _____ _____    ______ ____
ROOT
ATOM      1  C   LIG A   1      -5.497   6.337 131.447  0.00  0.00    +0.039 C 
ENDROOT
BRANCH   1   2
ATOM      2  C   LIG A   1      -4.716   5.894 130.228  0.00  0.00    -0.002 A 
ATOM      3  C   LIG A   1      -4.468   4.525 130.010  0.00  0.00    +0.056 A 
ATOM      4  C   LIG A   1      -3.688   4.164 128.927  0.00  0.00    +0.167 A 
ATOM      5  C   LIG A   1      -3.168   5.094 128.063  0.00  0.00    +0.170 A 
ATOM      6  C   LIG A   1      -3.400   6.444 128.225  0.00  0.00    +0.095 A 
ATOM      7  C   LIG A   1      -4.180   6.833 129.319  0.00  0.00    +0.124 A 
ATOM      8  O   LIG A   1      -2.416   4.533 127.079  0.00  0.00    -0.453 OA
ATOM      9  C   LIG A   1      -2.489   3.140 127.447  0.00  0.00    +0.466 C 
ATOM     10  O   LIG A   1      -3.327   2.893 128.593  0.00  0.00    -0.453 OA
BRANCH   7  11
ATOM     11  O   LIG A   1      -4.418   8.165 129.537  0.00  0.00    -0.506 OA
ATOM     12  H   LIG A   1      -3.776   8.493 130.188  0.00  0.00    +0.292 HD
ENDBRANCH   7  11
ENDBRANCH   1   2
BRANCH   1  13
ATOM     13  C   LIG A   1      -6.842   7.001 131.135  0.00  0.00    +0.009 C 
BRANCH  13  14
ATOM     14  C   LIG A   1      -7.983   6.267 131.852  0.00  0.00    +0.035 C 
BRANCH  14  15
ATOM     15  C   LIG A   1      -9.341   6.617 131.294  0.00  0.00    -0.047 A 
ATOM     16  C   LIG A   1     -10.502   6.251 131.984  0.00  0.00    +0.007 A 
ATOM     17  C   LIG A   1     -11.766   6.563 131.474  0.00  0.00    +0.046 A 
ATOM     18  C   LIG A   1     -11.887   7.244 130.262  0.00  0.00    +0.120 A 
ATOM     19  C   LIG A   1     -10.732   7.609 129.569  0.00  0.00    +0.046 A 
ATOM     20  C   LIG A   1      -9.466   7.298 130.078  0.00  0.00    +0.007 A 
BRANCH  18  21
ATOM     21  O   LIG A   1     -13.064   7.601 129.661  0.00  0.00    -0.495 OA
ATOM     22  C   LIG A   1     -13.025   8.752 128.828  0.00  0.00    +0.277 C 
ENDBRANCH  18  21
ENDBRANCH  14  15
ENDBRANCH  13  14
ENDBRANCH   1  13
TORSDOF 6
ENDMDL
MODEL 9
REMARK VINA RESULT:      -6.3      6.337      8.736
REMARK  Name = NuBBE_2386
REMARK  7 active torsions:
REMARK  status: ('A' for Active; 'I' for Inactive)
REMARK    1  A    between atoms: C_1  and  C_2
REMARK    2  A    between atoms: C_1  and  C_12
REMARK    3  A    between atoms: C_2  and  C_3
REMARK    4  A    between atoms: C_3  and  C_4
REMARK    5  A    between atoms: C_7  and  O_10
REMARK    6  A    between atoms: O_10  and  C_11
REMARK    7  A    between atoms: C_17  and  O_18
REMARK                            x       y       z     vdW  Elec       q    Type
REMARK                         _______ _______ _______ _____ _____    ______ ____
ROOT
ATOM      1  C   LIG A   1      -8.125   6.226 131.787  0.00  0.00    +0.039 C 
ENDROOT
BRANCH   1   2
ATOM      2  C   LIG A   1      -9.448   6.616 131.163  0.00  0.00    -0.002 A 
ATOM      3  C   LIG A   1      -9.471   7.346 129.960  0.00  0.00    +0.056 A 
ATOM      4  C   LIG A   1     -10.695   7.749 129.459  0.00  0.00    +0.167 A 
ATOM      5  C   LIG A   1     -11.874   7.445 130.092  0.00  0.00    +0.170 A 
ATOM      6  C   LIG A   1     -11.903   6.714 131.262  0.00  0.00    +0.095 A 
ATOM      7  C   LIG A   1     -10.675   6.304 131.790  0.00  0.00    +0.124 A 
ATOM      8  O   LIG A   1     -12.960   7.949 129.448  0.00  0.00    -0.453 OA
ATOM      9  C   LIG A   1     -12.324   8.643 128.354  0.00  0.00    +0.466 C 
ATOM     10  O   LIG A   1     -10.891   8.487 128.331  0.00  0.00    -0.453 OA
BRANCH   7  11
ATOM     11  O   LIG A   1     -10.649   5.598 132.964  0.00  0.00    -0.506 OA
ATOM     12  H   LIG A   1     -11.410   5.865 133.505  0.00  0.00    +0.292 HD
ENDBRANCH   7  11
ENDBRANCH   1   2
BRANCH   1  13
ATOM     13  C   LIG A   1      -7.325   5.190 130.990  0.00  0.00    +0.009 C 
BRANCH  13  14
ATOM     14  C   LIG A   1      -8.139   3.900 130.817  0.00  0.00    +0.035 C 
BRANCH  14  15
ATOM     15  C   LIG A   1      -8.123   3.389 129.397  0.00  0.00    -0.047 A 
ATOM     16  C   LIG A   1      -7.722   4.228 128.351  0.00  0.00    +0.007 A 
ATOM     17  C   LIG A   1      -7.709   3.768 127.030  0.00  0.00    +0.046 A 
ATOM     18  C   LIG A   1      -8.103   2.462 126.736  0.00  0.00    +0.120 A 
ATOM     19  C   LIG A   1      -8.506   1.623 127.777  0.00  0.00    +0.046 A 
ATOM     20  C   LIG A   1      -8.519   2.081 129.099  0.00  0.00    +0.007 A 
BRANCH  18  21
ATOM     21  O   LIG A   1      -8.137   1.901 125.488  0.00  0.00    -0.495 OA
ATOM     22  C   LIG A   1      -8.112   2.802 124.388  0.00  0.00    +0.277 C 
ENDBRANCH  18  21
ENDBRANCH  14  15
ENDBRANCH  13  14
ENDBRANCH   1  13
TORSDOF 6
ENDMDL
