MODEL 1
REMARK VINA RESULT:      -8.4      0.000      0.000
REMARK  Name = NuBBE_351
REMARK  16 active torsions:
REMARK  status: ('A' for Active; 'I' for Inactive)
REMARK    1  A    between atoms: C_2  and  C_3
REMARK    2  A    between atoms: C_2  and  C_11
REMARK    3  A    between atoms: C_3  and  C_4
REMARK    4  A    between atoms: C_4  and  C_5
REMARK    5  A    between atoms: C_12  and  O_39
REMARK    6  A    between atoms: C_14  and  O_37
REMARK    7  A    between atoms: C_18  and  C_33
REMARK    8  A    between atoms: C_20  and  C_22
REMARK    9  A    between atoms: C_24  and  C_25
REMARK   10  A    between atoms: C_25  and  O_26
REMARK   11  A    between atoms: O_26  and  C_27
REMARK   12  A    between atoms: C_31  and  O_32
REMARK   13  A    between atoms: C_33  and  O_34
REMARK   14  A    between atoms: C_33  and  C_35
REMARK   15  A    between atoms: C_33  and  C_36
REMARK   16  A    between atoms: O_37  and  C_38
REMARK                            x       y       z     vdW  Elec       q    Type
REMARK                         _______ _______ _______ _____ _____    ______ ____
ROOT
ATOM      1  C   LIG A   1      -8.830   3.162 130.818  0.00  0.00    +0.153 C 
ATOM      2  C   LIG A   1      -9.825   2.295 131.650  0.00  0.00    +0.158 C 
ATOM      3  C   LIG A   1      -9.482   0.831 131.808  0.00  0.00    +0.051 C 
ATOM      4  C   LIG A   1      -8.479   0.233 131.142  0.00  0.00    +0.126 C 
ATOM      5  C   LIG A   1      -7.686   1.017 130.238  0.00  0.00    +0.043 C 
ATOM      6  C   LIG A   1      -7.765   2.345 130.148  0.00  0.00    +0.119 C 
ATOM      7  O   LIG A   1      -6.903   2.935 129.225  0.00  0.00    -0.488 OA
ATOM      8  C   LIG A   1      -6.044   1.822 128.787  0.00  0.00    +0.216 C 
ATOM      9  C   LIG A   1      -6.763   0.504 129.179  0.00  0.00    +0.103 C 
ENDROOT
BRANCH   9  10
ATOM     10  C   LIG A   1      -7.525  -0.098 127.995  0.00  0.00    +0.006 A 
ATOM     11  C   LIG A   1      -8.137   0.738 127.042  0.00  0.00    +0.023 A 
ATOM     12  C   LIG A   1      -8.899   0.209 125.996  0.00  0.00    +0.059 A 
ATOM     13  C   LIG A   1      -9.020  -1.182 125.867  0.00  0.00    +0.018 A 
ATOM     14  C   LIG A   1      -8.393  -2.026 126.778  0.00  0.00    +0.046 A 
ATOM     15  C   LIG A   1      -7.651  -1.486 127.830  0.00  0.00    +0.121 A 
BRANCH  12  16
ATOM     16  C   LIG A   1      -9.518   1.126 124.992  0.00  0.00    +0.339 C 
ATOM     17  O   LIG A   1      -9.458   2.351 125.027  0.00  0.00    -0.245 OA
BRANCH  16  18
ATOM     18  O   LIG A   1     -10.127   0.335 124.077  0.00  0.00    -0.465 OA
ATOM     19  C   LIG A   1     -10.078   0.812 122.732  0.00  0.00    +0.280 C 
ENDBRANCH  16  18
ENDBRANCH  12  16
BRANCH  15  20
ATOM     20  O   LIG A   1      -7.027  -2.328 128.705  0.00  0.00    -0.506 OA
ATOM     21  H   LIG A   1      -7.619  -3.074 128.898  0.00  0.00    +0.292 HD
ENDBRANCH  15  20
ENDBRANCH   9  10
BRANCH   8  22
ATOM     22  C   LIG A   1      -4.612   1.982 129.386  0.00  0.00    +0.098 C 
ATOM     23  C   LIG A   1      -4.386   3.326 130.087  0.00  0.00    +0.045 C 
ATOM     24  C   LIG A   1      -4.273   0.835 130.345  0.00  0.00    +0.045 C 
BRANCH  22  25
ATOM     25  O   LIG A   1      -3.658   1.897 128.311  0.00  0.00    -0.385 OA
ATOM     26  H   LIG A   1      -3.891   2.598 127.674  0.00  0.00    +0.210 HD
ENDBRANCH  22  25
ENDBRANCH   8  22
BRANCH   1  28
ATOM     27  O   LIG A   1      -7.582   4.123 132.663  0.00  0.00    -0.296 OA
ATOM     28  C   LIG A   1      -8.250   4.310 131.643  0.00  0.00    +0.147 C 
BRANCH  28  29
ATOM     29  C   LIG A   1      -8.599   5.720 131.191  0.00  0.00    +0.080 C 
BRANCH  29  30
ATOM     30  C   LIG A   1     -10.032   6.083 131.575  0.00  0.00    +0.042 C 
BRANCH  30  31
ATOM     31  C   LIG A   1     -10.704   6.973 130.553  0.00  0.00    -0.047 A 
ATOM     32  C   LIG A   1     -12.063   7.297 130.676  0.00  0.00    +0.003 A 
ATOM     33  C   LIG A   1     -12.684   8.133 129.743  0.00  0.00    +0.000 A 
ATOM     34  C   LIG A   1     -11.955   8.656 128.677  0.00  0.00    +0.000 A 
ATOM     35  C   LIG A   1     -10.604   8.344 128.545  0.00  0.00    +0.000 A 
ATOM     36  C   LIG A   1      -9.980   7.516 129.480  0.00  0.00    +0.003 A 
ENDBRANCH  30  31
ENDBRANCH  29  30
ENDBRANCH  28  29
ENDBRANCH   1  28
BRANCH   4  37
ATOM     37  O   LIG A   1      -8.098  -1.081 131.210  0.00  0.00    -0.495 OA
ATOM     38  C   LIG A   1      -7.660  -1.584 132.467  0.00  0.00    +0.277 C 
ENDBRANCH   4  37
BRANCH   2  39
ATOM     39  O   LIG A   1     -10.050   2.814 132.958  0.00  0.00    -0.387 OA
ATOM     40  H   LIG A   1     -10.993   2.673 133.168  0.00  0.00    +0.210 HD
ENDBRANCH   2  39
TORSDOF 12
ENDMDL
MODEL 2
REMARK VINA RESULT:      -8.1      2.783      8.202
REMARK  Name = NuBBE_351
REMARK  16 active torsions:
REMARK  status: ('A' for Active; 'I' for Inactive)
REMARK    1  A    between atoms: C_2  and  C_3
REMARK    2  A    between atoms: C_2  and  C_11
REMARK    3  A    between atoms: C_3  and  C_4
REMARK    4  A    between atoms: C_4  and  C_5
REMARK    5  A    between atoms: C_12  and  O_39
REMARK    6  A    between atoms: C_14  and  O_37
REMARK    7  A    between atoms: C_18  and  C_33
REMARK    8  A    between atoms: C_20  and  C_22
REMARK    9  A    between atoms: C_24  and  C_25
REMARK   10  A    between atoms: C_25  and  O_26
REMARK   11  A    between atoms: O_26  and  C_27
REMARK   12  A    between atoms: C_31  and  O_32
REMARK   13  A    between atoms: C_33  and  O_34
REMARK   14  A    between atoms: C_33  and  C_35
REMARK   15  A    between atoms: C_33  and  C_36
REMARK   16  A    between atoms: O_37  and  C_38
REMARK                            x       y       z     vdW  Elec       q    Type
REMARK                         _______ _______ _______ _____ _____    ______ ____
ROOT
ATOM      1  C   LIG A   1      -7.812   3.670 125.081  0.00  0.00    +0.153 C 
ATOM      2  C   LIG A   1      -6.729   4.710 124.656  0.00  0.00    +0.158 C 
ATOM      3  C   LIG A   1      -5.609   4.965 125.638  0.00  0.00    +0.051 C 
ATOM      4  C   LIG A   1      -5.602   4.475 126.890  0.00  0.00    +0.126 C 
ATOM      5  C   LIG A   1      -6.705   3.664 127.322  0.00  0.00    +0.043 C 
ATOM      6  C   LIG A   1      -7.655   3.215 126.502  0.00  0.00    +0.119 C 
ATOM      7  O   LIG A   1      -8.638   2.426 127.099  0.00  0.00    -0.488 OA
ATOM      8  C   LIG A   1      -8.136   2.220 128.469  0.00  0.00    +0.216 C 
ATOM      9  C   LIG A   1      -7.054   3.301 128.730  0.00  0.00    +0.103 C 
ENDROOT
BRANCH   9  10
ATOM     10  C   LIG A   1      -7.621   4.493 129.507  0.00  0.00    +0.006 A 
ATOM     11  C   LIG A   1      -8.941   4.926 129.283  0.00  0.00    +0.023 A 
ATOM     12  C   LIG A   1      -9.452   6.057 129.928  0.00  0.00    +0.059 A 
ATOM     13  C   LIG A   1      -8.650   6.747 130.848  0.00  0.00    +0.018 A 
ATOM     14  C   LIG A   1      -7.354   6.313 131.109  0.00  0.00    +0.046 A 
ATOM     15  C   LIG A   1      -6.848   5.194 130.445  0.00  0.00    +0.121 A 
BRANCH  12  16
ATOM     16  C   LIG A   1     -10.864   6.477 129.681  0.00  0.00    +0.339 C 
ATOM     17  O   LIG A   1     -11.821   5.712 129.597  0.00  0.00    -0.245 OA
BRANCH  16  18
ATOM     18  O   LIG A   1     -10.849   7.827 129.580  0.00  0.00    -0.465 OA
ATOM     19  C   LIG A   1     -10.834   8.337 128.247  0.00  0.00    +0.280 C 
ENDBRANCH  16  18
ENDBRANCH  12  16
BRANCH  15  20
ATOM     20  O   LIG A   1      -5.581   4.770 130.726  0.00  0.00    -0.506 OA
ATOM     21  H   LIG A   1      -5.425   3.926 130.270  0.00  0.00    +0.292 HD
ENDBRANCH  15  20
ENDBRANCH   9  10
BRANCH   8  22
ATOM     22  C   LIG A   1      -7.641   0.751 128.643  0.00  0.00    +0.098 C 
ATOM     23  C   LIG A   1      -8.011  -0.165 127.472  0.00  0.00    +0.045 C 
ATOM     24  C   LIG A   1      -6.128   0.693 128.885  0.00  0.00    +0.045 C 
BRANCH  22  25
ATOM     25  O   LIG A   1      -8.253   0.201 129.824  0.00  0.00    -0.385 OA
ATOM     26  H   LIG A   1      -7.536  -0.200 130.350  0.00  0.00    +0.210 HD
ENDBRANCH  22  25
ENDBRANCH   8  22
BRANCH   1  28
ATOM     27  O   LIG A   1      -8.683   2.482 123.154  0.00  0.00    -0.296 OA
ATOM     28  C   LIG A   1      -7.892   2.500 124.101  0.00  0.00    +0.147 C 
BRANCH  28  29
ATOM     29  C   LIG A   1      -6.999   1.304 124.390  0.00  0.00    +0.080 C 
BRANCH  29  30
ATOM     30  C   LIG A   1      -7.001   0.319 123.222  0.00  0.00    +0.042 C 
BRANCH  30  31
ATOM     31  C   LIG A   1      -7.444  -1.069 123.627  0.00  0.00    -0.047 A 
ATOM     32  C   LIG A   1      -8.695  -1.562 123.228  0.00  0.00    +0.003 A 
ATOM     33  C   LIG A   1      -9.101  -2.851 123.586  0.00  0.00    +0.000 A 
ATOM     34  C   LIG A   1      -8.263  -3.663 124.347  0.00  0.00    +0.000 A 
ATOM     35  C   LIG A   1      -7.016  -3.187 124.748  0.00  0.00    +0.000 A 
ATOM     36  C   LIG A   1      -6.606  -1.903 124.384  0.00  0.00    +0.003 A 
ENDBRANCH  30  31
ENDBRANCH  29  30
ENDBRANCH  28  29
ENDBRANCH   1  28
BRANCH   4  37
ATOM     37  O   LIG A   1      -4.642   4.656 127.852  0.00  0.00    -0.495 OA
ATOM     38  C   LIG A   1      -3.770   5.771 127.723  0.00  0.00    +0.277 C 
ENDBRANCH   4  37
BRANCH   2  39
ATOM     39  O   LIG A   1      -6.123   4.395 123.404  0.00  0.00    -0.387 OA
ATOM     40  H   LIG A   1      -6.006   5.235 122.920  0.00  0.00    +0.210 HD
ENDBRANCH   2  39
TORSDOF 12
ENDMDL
MODEL 3
REMARK VINA RESULT:      -8.1      1.899      2.599
REMARK  Name = NuBBE_351
REMARK  16 active torsions:
REMARK  status: ('A' for Active; 'I' for Inactive)
REMARK    1  A    between atoms: C_2  and  C_3
REMARK    2  A    between atoms: C_2  and  C_11
REMARK    3  A    between atoms: C_3  and  C_4
REMARK    4  A    between atoms: C_4  and  C_5
REMARK    5  A    between atoms: C_12  and  O_39
REMARK    6  A    between atoms: C_14  and  O_37
REMARK    7  A    between atoms: C_18  and  C_33
REMARK    8  A    between atoms: C_20  and  C_22
REMARK    9  A    between atoms: C_24  and  C_25
REMARK   10  A    between atoms: C_25  and  O_26
REMARK   11  A    between atoms: O_26  and  C_27
REMARK   12  A    between atoms: C_31  and  O_32
REMARK   13  A    between atoms: C_33  and  O_34
REMARK   14  A    between atoms: C_33  and  C_35
REMARK   15  A    between atoms: C_33  and  C_36
REMARK   16  A    between atoms: O_37  and  C_38
REMARK                            x       y       z     vdW  Elec       q    Type
REMARK                         _______ _______ _______ _____ _____    ______ ____
ROOT
ATOM      1  C   LIG A   1      -9.132   4.071 130.817  0.00  0.00    +0.153 C 
ATOM      2  C   LIG A   1      -9.519   2.699 131.452  0.00  0.00    +0.158 C 
ATOM      3  C   LIG A   1      -8.440   1.643 131.499  0.00  0.00    +0.051 C 
ATOM      4  C   LIG A   1      -7.252   1.776 130.883  0.00  0.00    +0.126 C 
ATOM      5  C   LIG A   1      -6.986   2.980 130.147  0.00  0.00    +0.043 C 
ATOM      6  C   LIG A   1      -7.773   4.055 130.183  0.00  0.00    +0.119 C 
ATOM      7  O   LIG A   1      -7.342   5.137 129.417  0.00  0.00    -0.488 OA
ATOM      8  C   LIG A   1      -6.001   4.733 128.961  0.00  0.00    +0.216 C 
ATOM      9  C   LIG A   1      -5.898   3.195 129.144  0.00  0.00    +0.103 C 
ENDROOT
BRANCH   9  10
ATOM     10  C   LIG A   1      -6.170   2.451 127.833  0.00  0.00    +0.006 A 
ATOM     11  C   LIG A   1      -7.158   2.912 126.943  0.00  0.00    +0.023 A 
ATOM     12  C   LIG A   1      -7.471   2.205 125.778  0.00  0.00    +0.059 A 
ATOM     13  C   LIG A   1      -6.759   1.038 125.468  0.00  0.00    +0.018 A 
ATOM     14  C   LIG A   1      -5.754   0.585 126.318  0.00  0.00    +0.046 A 
ATOM     15  C   LIG A   1      -5.463   1.289 127.487  0.00  0.00    +0.121 A 
BRANCH  12  16
ATOM     16  C   LIG A   1      -8.513   2.734 124.847  0.00  0.00    +0.339 C 
ATOM     17  O   LIG A   1      -8.350   3.668 124.068  0.00  0.00    -0.245 OA
BRANCH  16  18
ATOM     18  O   LIG A   1      -9.620   1.982 125.045  0.00  0.00    -0.465 OA
ATOM     19  C   LIG A   1     -10.180   1.401 123.866  0.00  0.00    +0.280 C 
ENDBRANCH  16  18
ENDBRANCH  12  16
BRANCH  15  20
ATOM     20  O   LIG A   1      -4.462   0.842 128.301  0.00  0.00    -0.506 OA
ATOM     21  H   LIG A   1      -4.581   1.229 129.185  0.00  0.00    +0.292 HD
ENDBRANCH  15  20
ENDBRANCH   9  10
BRANCH   8  22
ATOM     22  C   LIG A   1      -4.909   5.551 129.718  0.00  0.00    +0.098 C 
ATOM     23  C   LIG A   1      -5.447   6.326 130.924  0.00  0.00    +0.045 C 
ATOM     24  C   LIG A   1      -3.741   4.658 130.155  0.00  0.00    +0.045 C 
BRANCH  22  25
ATOM     25  O   LIG A   1      -4.351   6.515 128.806  0.00  0.00    -0.385 OA
ATOM     26  H   LIG A   1      -4.538   6.189 127.905  0.00  0.00    +0.210 HD
ENDBRANCH  22  25
ENDBRANCH   8  22
BRANCH   1  28
ATOM     27  O   LIG A   1      -8.655   5.293 132.857  0.00  0.00    -0.296 OA
ATOM     28  C   LIG A   1      -9.299   5.223 131.807  0.00  0.00    +0.147 C 
BRANCH  28  29
ATOM     29  C   LIG A   1     -10.363   6.258 131.478  0.00  0.00    +0.080 C 
BRANCH  29  30
ATOM     30  C   LIG A   1      -9.942   7.125 130.292  0.00  0.00    +0.042 C 
BRANCH  30  31
ATOM     31  C   LIG A   1     -10.968   7.136 129.181  0.00  0.00    -0.047 A 
ATOM     32  C   LIG A   1     -10.592   7.455 127.868  0.00  0.00    +0.003 A 
ATOM     33  C   LIG A   1     -11.535   7.449 126.835  0.00  0.00    +0.000 A 
ATOM     34  C   LIG A   1     -12.864   7.126 127.102  0.00  0.00    +0.000 A 
ATOM     35  C   LIG A   1     -13.250   6.804 128.401  0.00  0.00    +0.000 A 
ATOM     36  C   LIG A   1     -12.308   6.801 129.432  0.00  0.00    +0.003 A 
ENDBRANCH  30  31
ENDBRANCH  29  30
ENDBRANCH  28  29
ENDBRANCH   1  28
BRANCH   4  37
ATOM     37  O   LIG A   1      -6.218   0.877 130.859  0.00  0.00    -0.495 OA
ATOM     38  C   LIG A   1      -6.538  -0.509 130.880  0.00  0.00    +0.277 C 
ENDBRANCH   4  37
BRANCH   2  39
ATOM     39  O   LIG A   1     -10.034   2.829 132.775  0.00  0.00    -0.387 OA
ATOM     40  H   LIG A   1     -10.541   3.663 132.808  0.00  0.00    +0.210 HD
ENDBRANCH   2  39
TORSDOF 12
ENDMDL
MODEL 4
REMARK VINA RESULT:      -7.9      2.888      6.997
REMARK  Name = NuBBE_351
REMARK  16 active torsions:
REMARK  status: ('A' for Active; 'I' for Inactive)
REMARK    1  A    between atoms: C_2  and  C_3
REMARK    2  A    between atoms: C_2  and  C_11
REMARK    3  A    between atoms: C_3  and  C_4
REMARK    4  A    between atoms: C_4  and  C_5
REMARK    5  A    between atoms: C_12  and  O_39
REMARK    6  A    between atoms: C_14  and  O_37
REMARK    7  A    between atoms: C_18  and  C_33
REMARK    8  A    between atoms: C_20  and  C_22
REMARK    9  A    between atoms: C_24  and  C_25
REMARK   10  A    between atoms: C_25  and  O_26
REMARK   11  A    between atoms: O_26  and  C_27
REMARK   12  A    between atoms: C_31  and  O_32
REMARK   13  A    between atoms: C_33  and  O_34
REMARK   14  A    between atoms: C_33  and  C_35
REMARK   15  A    between atoms: C_33  and  C_36
REMARK   16  A    between atoms: O_37  and  C_38
REMARK                            x       y       z     vdW  Elec       q    Type
REMARK                         _______ _______ _______ _____ _____    ______ ____
ROOT
ATOM      1  C   LIG A   1      -5.198   6.059 130.260  0.00  0.00    +0.153 C 
ATOM      2  C   LIG A   1      -4.904   6.683 131.660  0.00  0.00    +0.158 C 
ATOM      3  C   LIG A   1      -5.745   6.188 132.814  0.00  0.00    +0.051 C 
ATOM      4  C   LIG A   1      -6.813   5.386 132.656  0.00  0.00    +0.126 C 
ATOM      5  C   LIG A   1      -7.174   4.969 131.331  0.00  0.00    +0.043 C 
ATOM      6  C   LIG A   1      -6.413   5.181 130.257  0.00  0.00    +0.119 C 
ATOM      7  O   LIG A   1      -6.922   4.688 129.056  0.00  0.00    -0.488 OA
ATOM      8  C   LIG A   1      -8.103   3.910 129.469  0.00  0.00    +0.216 C 
ATOM      9  C   LIG A   1      -8.476   4.367 130.904  0.00  0.00    +0.103 C 
ENDROOT
BRANCH   9  10
ATOM     10  C   LIG A   1      -9.609   5.397 130.894  0.00  0.00    +0.006 A 
ATOM     11  C   LIG A   1      -9.831   6.200 129.760  0.00  0.00    +0.023 A 
ATOM     12  C   LIG A   1     -10.813   7.196 129.758  0.00  0.00    +0.059 A 
ATOM     13  C   LIG A   1     -11.621   7.369 130.891  0.00  0.00    +0.018 A 
ATOM     14  C   LIG A   1     -11.440   6.561 132.009  0.00  0.00    +0.046 A 
ATOM     15  C   LIG A   1     -10.444   5.583 132.007  0.00  0.00    +0.121 A 
BRANCH  12  16
ATOM     16  C   LIG A   1     -11.034   8.018 128.530  0.00  0.00    +0.339 C 
ATOM     17  O   LIG A   1     -10.149   8.577 127.890  0.00  0.00    -0.245 OA
BRANCH  16  18
ATOM     18  O   LIG A   1     -12.367   8.000 128.294  0.00  0.00    -0.465 OA
ATOM     19  C   LIG A   1     -12.787   7.126 127.246  0.00  0.00    +0.280 C 
ENDBRANCH  16  18
ENDBRANCH  12  16
BRANCH  15  20
ATOM     20  O   LIG A   1     -10.291   4.786 133.105  0.00  0.00    -0.506 OA
ATOM     21  H   LIG A   1     -10.166   3.868 132.809  0.00  0.00    +0.292 HD
ENDBRANCH  15  20
ENDBRANCH   9  10
BRANCH   8  22
ATOM     22  C   LIG A   1      -7.815   2.383 129.328  0.00  0.00    +0.098 C 
ATOM     23  C   LIG A   1      -8.465   1.747 128.095  0.00  0.00    +0.045 C 
ATOM     24  C   LIG A   1      -6.310   2.093 129.326  0.00  0.00    +0.045 C 
BRANCH  22  25
ATOM     25  O   LIG A   1      -8.348   1.712 130.485  0.00  0.00    -0.385 OA
ATOM     26  H   LIG A   1      -8.666   0.841 130.181  0.00  0.00    +0.210 HD
ENDBRANCH  22  25
ENDBRANCH   8  22
BRANCH   1  28
ATOM     27  O   LIG A   1      -3.407   4.423 130.261  0.00  0.00    -0.296 OA
ATOM     28  C   LIG A   1      -3.970   5.356 129.682  0.00  0.00    +0.147 C 
BRANCH  28  29
ATOM     29  C   LIG A   1      -3.415   5.910 128.380  0.00  0.00    +0.080 C 
BRANCH  29  30
ATOM     30  C   LIG A   1      -2.793   4.804 127.530  0.00  0.00    +0.042 C 
BRANCH  30  31
ATOM     31  C   LIG A   1      -3.828   3.953 126.827  0.00  0.00    -0.047 A 
ATOM     32  C   LIG A   1      -3.692   2.558 126.783  0.00  0.00    +0.003 A 
ATOM     33  C   LIG A   1      -4.656   1.767 126.150  0.00  0.00    +0.000 A 
ATOM     34  C   LIG A   1      -5.766   2.360 125.553  0.00  0.00    +0.000 A 
ATOM     35  C   LIG A   1      -5.915   3.745 125.592  0.00  0.00    +0.000 A 
ATOM     36  C   LIG A   1      -4.958   4.535 126.231  0.00  0.00    +0.003 A 
ENDBRANCH  30  31
ENDBRANCH  29  30
ENDBRANCH  28  29
ENDBRANCH   1  28
BRANCH   4  37
ATOM     37  O   LIG A   1      -7.639   4.893 133.633  0.00  0.00    -0.495 OA
ATOM     38  C   LIG A   1      -7.170   3.802 134.415  0.00  0.00    +0.277 C 
ENDBRANCH   4  37
BRANCH   2  39
ATOM     39  O   LIG A   1      -3.540   6.547 132.050  0.00  0.00    -0.387 OA
ATOM     40  H   LIG A   1      -3.022   6.378 131.239  0.00  0.00    +0.210 HD
ENDBRANCH   2  39
TORSDOF 12
ENDMDL
MODEL 5
REMARK VINA RESULT:      -7.7      2.229      7.785
REMARK  Name = NuBBE_351
REMARK  16 active torsions:
REMARK  status: ('A' for Active; 'I' for Inactive)
REMARK    1  A    between atoms: C_2  and  C_3
REMARK    2  A    between atoms: C_2  and  C_11
REMARK    3  A    between atoms: C_3  and  C_4
REMARK    4  A    between atoms: C_4  and  C_5
REMARK    5  A    between atoms: C_12  and  O_39
REMARK    6  A    between atoms: C_14  and  O_37
REMARK    7  A    between atoms: C_18  and  C_33
REMARK    8  A    between atoms: C_20  and  C_22
REMARK    9  A    between atoms: C_24  and  C_25
REMARK   10  A    between atoms: C_25  and  O_26
REMARK   11  A    between atoms: O_26  and  C_27
REMARK   12  A    between atoms: C_31  and  O_32
REMARK   13  A    between atoms: C_33  and  O_34
REMARK   14  A    between atoms: C_33  and  C_35
REMARK   15  A    between atoms: C_33  and  C_36
REMARK   16  A    between atoms: O_37  and  C_38
REMARK                            x       y       z     vdW  Elec       q    Type
REMARK                         _______ _______ _______ _____ _____    ______ ____
ROOT
ATOM      1  C   LIG A   1      -5.988   1.927 127.540  0.00  0.00    +0.153 C 
ATOM      2  C   LIG A   1      -4.615   2.667 127.529  0.00  0.00    +0.158 C 
ATOM      3  C   LIG A   1      -4.094   3.153 128.862  0.00  0.00    +0.051 C 
ATOM      4  C   LIG A   1      -4.822   3.124 129.992  0.00  0.00    +0.126 C 
ATOM      5  C   LIG A   1      -6.159   2.601 129.940  0.00  0.00    +0.043 C 
ATOM      6  C   LIG A   1      -6.665   1.976 128.877  0.00  0.00    +0.119 C 
ATOM      7  O   LIG A   1      -7.976   1.522 129.019  0.00  0.00    -0.488 OA
ATOM      8  C   LIG A   1      -8.277   1.759 130.441  0.00  0.00    +0.216 C 
ATOM      9  C   LIG A   1      -7.229   2.773 130.970  0.00  0.00    +0.103 C 
ENDROOT
BRANCH   9  10
ATOM     10  C   LIG A   1      -7.783   4.200 130.990  0.00  0.00    +0.006 A 
ATOM     11  C   LIG A   1      -8.790   4.587 130.086  0.00  0.00    +0.023 A 
ATOM     12  C   LIG A   1      -9.256   5.904 130.040  0.00  0.00    +0.059 A 
ATOM     13  C   LIG A   1      -8.743   6.849 130.940  0.00  0.00    +0.018 A 
ATOM     14  C   LIG A   1      -7.773   6.477 131.866  0.00  0.00    +0.046 A 
ATOM     15  C   LIG A   1      -7.301   5.164 131.890  0.00  0.00    +0.121 A 
BRANCH  12  16
ATOM     16  C   LIG A   1     -10.340   6.274 129.080  0.00  0.00    +0.339 C 
ATOM     17  O   LIG A   1     -11.474   5.805 129.085  0.00  0.00    -0.245 OA
BRANCH  16  18
ATOM     18  O   LIG A   1      -9.812   7.203 128.248  0.00  0.00    -0.465 OA
ATOM     19  C   LIG A   1     -10.743   8.154 127.729  0.00  0.00    +0.280 C 
ENDBRANCH  16  18
ENDBRANCH  12  16
BRANCH  15  20
ATOM     20  O   LIG A   1      -6.362   4.812 132.816  0.00  0.00    -0.506 OA
ATOM     21  H   LIG A   1      -6.225   5.559 133.423  0.00  0.00    +0.292 HD
ENDBRANCH  15  20
ENDBRANCH   9  10
BRANCH   8  22
ATOM     22  C   LIG A   1      -8.316   0.403 131.213  0.00  0.00    +0.098 C 
ATOM     23  C   LIG A   1      -8.001  -0.813 130.337  0.00  0.00    +0.045 C 
ATOM     24  C   LIG A   1      -7.380   0.422 132.427  0.00  0.00    +0.045 C 
BRANCH  22  25
ATOM     25  O   LIG A   1      -9.644   0.218 131.739  0.00  0.00    -0.385 OA
ATOM     26  H   LIG A   1      -9.760   0.883 132.444  0.00  0.00    +0.210 HD
ENDBRANCH  22  25
ENDBRANCH   8  22
BRANCH   1  28
ATOM     27  O   LIG A   1      -5.448  -0.434 127.684  0.00  0.00    -0.296 OA
ATOM     28  C   LIG A   1      -5.871   0.502 127.000  0.00  0.00    +0.147 C 
BRANCH  28  29
ATOM     29  C   LIG A   1      -6.229   0.294 125.537  0.00  0.00    +0.080 C 
BRANCH  29  30
ATOM     30  C   LIG A   1      -5.862  -1.115 125.074  0.00  0.00    +0.042 C 
BRANCH  30  31
ATOM     31  C   LIG A   1      -7.041  -1.867 124.496  0.00  0.00    -0.047 A 
ATOM     32  C   LIG A   1      -7.632  -2.919 125.210  0.00  0.00    +0.003 A 
ATOM     33  C   LIG A   1      -8.732  -3.606 124.687  0.00  0.00    +0.000 A 
ATOM     34  C   LIG A   1      -9.254  -3.249 123.445  0.00  0.00    +0.000 A 
ATOM     35  C   LIG A   1      -8.678  -2.204 122.727  0.00  0.00    +0.000 A 
ATOM     36  C   LIG A   1      -7.585  -1.512 123.252  0.00  0.00    +0.003 A 
ENDBRANCH  30  31
ENDBRANCH  29  30
ENDBRANCH  28  29
ENDBRANCH   1  28
BRANCH   4  37
ATOM     37  O   LIG A   1      -4.445   3.546 131.240  0.00  0.00    -0.495 OA
ATOM     38  C   LIG A   1      -3.683   2.654 132.044  0.00  0.00    +0.277 C 
ENDBRANCH   4  37
BRANCH   2  39
ATOM     39  O   LIG A   1      -3.576   1.894 126.932  0.00  0.00    -0.387 OA
ATOM     40  H   LIG A   1      -3.750   0.958 127.148  0.00  0.00    +0.210 HD
ENDBRANCH   2  39
TORSDOF 12
ENDMDL
MODEL 6
REMARK VINA RESULT:      -7.7      2.138      3.171
REMARK  Name = NuBBE_351
REMARK  16 active torsions:
REMARK  status: ('A' for Active; 'I' for Inactive)
REMARK    1  A    between atoms: C_2  and  C_3
REMARK    2  A    between atoms: C_2  and  C_11
REMARK    3  A    between atoms: C_3  and  C_4
REMARK    4  A    between atoms: C_4  and  C_5
REMARK    5  A    between atoms: C_12  and  O_39
REMARK    6  A    between atoms: C_14  and  O_37
REMARK    7  A    between atoms: C_18  and  C_33
REMARK    8  A    between atoms: C_20  and  C_22
REMARK    9  A    between atoms: C_24  and  C_25
REMARK   10  A    between atoms: C_25  and  O_26
REMARK   11  A    between atoms: O_26  and  C_27
REMARK   12  A    between atoms: C_31  and  O_32
REMARK   13  A    between atoms: C_33  and  O_34
REMARK   14  A    between atoms: C_33  and  C_35
REMARK   15  A    between atoms: C_33  and  C_36
REMARK   16  A    between atoms: O_37  and  C_38
REMARK                            x       y       z     vdW  Elec       q    Type
REMARK                         _______ _______ _______ _____ _____    ______ ____
ROOT
ATOM      1  C   LIG A   1      -9.639   2.299 130.615  0.00  0.00    +0.153 C 
ATOM      2  C   LIG A   1      -9.314   2.063 132.122  0.00  0.00    +0.158 C 
ATOM      3  C   LIG A   1      -7.854   1.927 132.490  0.00  0.00    +0.051 C 
ATOM      4  C   LIG A   1      -6.871   1.835 131.578  0.00  0.00    +0.126 C 
ATOM      5  C   LIG A   1      -7.215   1.872 130.184  0.00  0.00    +0.043 C 
ATOM      6  C   LIG A   1      -8.432   2.173 129.733  0.00  0.00    +0.119 C 
ATOM      7  O   LIG A   1      -8.572   2.176 128.346  0.00  0.00    -0.488 OA
ATOM      8  C   LIG A   1      -7.193   2.009 127.854  0.00  0.00    +0.216 C 
ATOM      9  C   LIG A   1      -6.347   1.467 129.036  0.00  0.00    +0.103 C 
ENDROOT
BRANCH   9  10
ATOM     10  C   LIG A   1      -6.172  -0.052 128.956  0.00  0.00    +0.006 A 
ATOM     11  C   LIG A   1      -7.215  -0.865 128.474  0.00  0.00    +0.023 A 
ATOM     12  C   LIG A   1      -7.102  -2.259 128.463  0.00  0.00    +0.059 A 
ATOM     13  C   LIG A   1      -5.911  -2.857 128.898  0.00  0.00    +0.018 A 
ATOM     14  C   LIG A   1      -4.854  -2.068 129.344  0.00  0.00    +0.046 A 
ATOM     15  C   LIG A   1      -4.986  -0.680 129.369  0.00  0.00    +0.121 A 
BRANCH  12  16
ATOM     16  C   LIG A   1      -8.222  -3.090 127.927  0.00  0.00    +0.339 C 
ATOM     17  O   LIG A   1      -9.033  -3.703 128.614  0.00  0.00    -0.245 OA
BRANCH  16  18
ATOM     18  O   LIG A   1      -8.145  -3.011 126.578  0.00  0.00    -0.465 OA
ATOM     19  C   LIG A   1      -9.381  -2.749 125.913  0.00  0.00    +0.280 C 
ENDBRANCH  16  18
ENDBRANCH  12  16
BRANCH  15  20
ATOM     20  O   LIG A   1      -3.934   0.081 129.793  0.00  0.00    -0.506 OA
ATOM     21  H   LIG A   1      -4.032   0.979 129.432  0.00  0.00    +0.292 HD
ENDBRANCH  15  20
ENDBRANCH   9  10
BRANCH   8  22
ATOM     22  C   LIG A   1      -6.675   3.350 127.246  0.00  0.00    +0.098 C 
ATOM     23  C   LIG A   1      -7.792   4.339 126.900  0.00  0.00    +0.045 C 
ATOM     24  C   LIG A   1      -5.652   4.025 128.166  0.00  0.00    +0.045 C 
BRANCH  22  25
ATOM     25  O   LIG A   1      -5.975   3.053 126.024  0.00  0.00    -0.385 OA
ATOM     26  H   LIG A   1      -5.565   2.175 126.143  0.00  0.00    +0.210 HD
ENDBRANCH  22  25
ENDBRANCH   8  22
BRANCH   1  28
ATOM     27  O   LIG A   1     -11.613   3.666 130.276  0.00  0.00    -0.296 OA
ATOM     28  C   LIG A   1     -10.386   3.613 130.393  0.00  0.00    +0.147 C 
BRANCH  28  29
ATOM     29  C   LIG A   1      -9.537   4.866 130.243  0.00  0.00    +0.080 C 
BRANCH  29  30
ATOM     30  C   LIG A   1     -10.120   6.027 131.046  0.00  0.00    +0.042 C 
BRANCH  30  31
ATOM     31  C   LIG A   1     -10.845   7.033 130.179  0.00  0.00    -0.047 A 
ATOM     32  C   LIG A   1     -12.140   7.455 130.512  0.00  0.00    +0.003 A 
ATOM     33  C   LIG A   1     -12.808   8.397 129.723  0.00  0.00    +0.000 A 
ATOM     34  C   LIG A   1     -12.189   8.928 128.593  0.00  0.00    +0.000 A 
ATOM     35  C   LIG A   1     -10.902   8.519 128.253  0.00  0.00    +0.000 A 
ATOM     36  C   LIG A   1     -10.231   7.584 129.044  0.00  0.00    +0.003 A 
ENDBRANCH  30  31
ENDBRANCH  29  30
ENDBRANCH  28  29
ENDBRANCH   1  28
BRANCH   4  37
ATOM     37  O   LIG A   1      -5.527   1.701 131.810  0.00  0.00    -0.495 OA
ATOM     38  C   LIG A   1      -4.783   2.874 132.118  0.00  0.00    +0.277 C 
ENDBRANCH   4  37
BRANCH   2  39
ATOM     39  O   LIG A   1      -9.866   3.067 132.970  0.00  0.00    -0.387 OA
ATOM     40  H   LIG A   1     -10.438   3.632 132.416  0.00  0.00    +0.210 HD
ENDBRANCH   2  39
TORSDOF 12
ENDMDL
MODEL 7
REMARK VINA RESULT:      -7.5      2.285      3.857
REMARK  Name = NuBBE_351
REMARK  16 active torsions:
REMARK  status: ('A' for Active; 'I' for Inactive)
REMARK    1  A    between atoms: C_2  and  C_3
REMARK    2  A    between atoms: C_2  and  C_11
REMARK    3  A    between atoms: C_3  and  C_4
REMARK    4  A    between atoms: C_4  and  C_5
REMARK    5  A    between atoms: C_12  and  O_39
REMARK    6  A    between atoms: C_14  and  O_37
REMARK    7  A    between atoms: C_18  and  C_33
REMARK    8  A    between atoms: C_20  and  C_22
REMARK    9  A    between atoms: C_24  and  C_25
REMARK   10  A    between atoms: C_25  and  O_26
REMARK   11  A    between atoms: O_26  and  C_27
REMARK   12  A    between atoms: C_31  and  O_32
REMARK   13  A    between atoms: C_33  and  O_34
REMARK   14  A    between atoms: C_33  and  C_35
REMARK   15  A    between atoms: C_33  and  C_36
REMARK   16  A    between atoms: O_37  and  C_38
REMARK                            x       y       z     vdW  Elec       q    Type
REMARK                         _______ _______ _______ _____ _____    ______ ____
ROOT
ATOM      1  C   LIG A   1      -9.257   4.874 129.679  0.00  0.00    +0.153 C 
ATOM      2  C   LIG A   1     -10.216   4.124 130.654  0.00  0.00    +0.158 C 
ATOM      3  C   LIG A   1      -9.783   2.751 131.112  0.00  0.00    +0.051 C 
ATOM      4  C   LIG A   1      -8.723   2.103 130.596  0.00  0.00    +0.126 C 
ATOM      5  C   LIG A   1      -7.958   2.742 129.564  0.00  0.00    +0.043 C 
ATOM      6  C   LIG A   1      -8.121   4.015 129.206  0.00  0.00    +0.119 C 
ATOM      7  O   LIG A   1      -7.273   4.466 128.195  0.00  0.00    -0.488 OA
ATOM      8  C   LIG A   1      -6.330   3.351 128.006  0.00  0.00    +0.216 C 
ATOM      9  C   LIG A   1      -6.972   2.092 128.646  0.00  0.00    +0.103 C 
ENDROOT
BRANCH   9  10
ATOM     10  C   LIG A   1      -7.658   1.211 127.598  0.00  0.00    +0.006 A 
ATOM     11  C   LIG A   1      -8.372   1.795 126.534  0.00  0.00    +0.023 A 
ATOM     12  C   LIG A   1      -9.066   1.008 125.609  0.00  0.00    +0.059 A 
ATOM     13  C   LIG A   1      -9.014  -0.389 125.717  0.00  0.00    +0.018 A 
ATOM     14  C   LIG A   1      -8.284  -0.985 126.741  0.00  0.00    +0.046 A 
ATOM     15  C   LIG A   1      -7.611  -0.190 127.669  0.00  0.00    +0.121 A 
BRANCH  12  16
ATOM     16  C   LIG A   1      -9.798   1.661 124.482  0.00  0.00    +0.339 C 
ATOM     17  O   LIG A   1     -10.862   1.268 124.014  0.00  0.00    -0.245 OA
BRANCH  16  18
ATOM     18  O   LIG A   1      -9.058   2.734 124.117  0.00  0.00    -0.465 OA
ATOM     19  C   LIG A   1      -8.307   2.574 122.913  0.00  0.00    +0.280 C 
ENDBRANCH  16  18
ENDBRANCH  12  16
BRANCH  15  20
ATOM     20  O   LIG A   1      -6.884  -0.790 128.657  0.00  0.00    -0.506 OA
ATOM     21  H   LIG A   1      -6.832  -0.187 129.417  0.00  0.00    +0.292 HD
ENDBRANCH  15  20
ENDBRANCH   9  10
BRANCH   8  22
ATOM     22  C   LIG A   1      -4.930   3.730 128.582  0.00  0.00    +0.098 C 
ATOM     23  C   LIG A   1      -4.525   5.182 128.309  0.00  0.00    +0.045 C 
ATOM     24  C   LIG A   1      -4.845   3.443 130.085  0.00  0.00    +0.045 C 
BRANCH  22  25
ATOM     25  O   LIG A   1      -3.941   2.888 127.961  0.00  0.00    -0.385 OA
ATOM     26  H   LIG A   1      -3.656   2.245 128.638  0.00  0.00    +0.210 HD
ENDBRANCH  22  25
ENDBRANCH   8  22
BRANCH   1  28
ATOM     27  O   LIG A   1      -9.275   7.285 129.939  0.00  0.00    -0.296 OA
ATOM     28  C   LIG A   1      -8.778   6.203 130.261  0.00  0.00    +0.147 C 
BRANCH  28  29
ATOM     29  C   LIG A   1      -7.592   6.145 131.212  0.00  0.00    +0.080 C 
BRANCH  29  30
ATOM     30  C   LIG A   1      -6.504   7.133 130.798  0.00  0.00    +0.042 C 
BRANCH  30  31
ATOM     31  C   LIG A   1      -5.205   6.920 131.543  0.00  0.00    -0.047 A 
ATOM     32  C   LIG A   1      -4.025   7.540 131.108  0.00  0.00    +0.003 A 
ATOM     33  C   LIG A   1      -2.825   7.360 131.804  0.00  0.00    +0.000 A 
ATOM     34  C   LIG A   1      -2.791   6.557 132.943  0.00  0.00    +0.000 A 
ATOM     35  C   LIG A   1      -3.957   5.937 133.387  0.00  0.00    +0.000 A 
ATOM     36  C   LIG A   1      -5.157   6.123 132.698  0.00  0.00    +0.003 A 
ENDBRANCH  30  31
ENDBRANCH  29  30
ENDBRANCH  28  29
ENDBRANCH   1  28
BRANCH   4  37
ATOM     37  O   LIG A   1      -8.258   0.859 130.937  0.00  0.00    -0.495 OA
ATOM     38  C   LIG A   1      -9.037   0.079 131.835  0.00  0.00    +0.277 C 
ENDBRANCH   4  37
BRANCH   2  39
ATOM     39  O   LIG A   1     -10.513   4.880 131.826  0.00  0.00    -0.387 OA
ATOM     40  H   LIG A   1     -11.461   4.749 132.023  0.00  0.00    +0.210 HD
ENDBRANCH   2  39
TORSDOF 12
ENDMDL
MODEL 8
REMARK VINA RESULT:      -7.5      3.470      5.098
REMARK  Name = NuBBE_351
REMARK  16 active torsions:
REMARK  status: ('A' for Active; 'I' for Inactive)
REMARK    1  A    between atoms: C_2  and  C_3
REMARK    2  A    between atoms: C_2  and  C_11
REMARK    3  A    between atoms: C_3  and  C_4
REMARK    4  A    between atoms: C_4  and  C_5
REMARK    5  A    between atoms: C_12  and  O_39
REMARK    6  A    between atoms: C_14  and  O_37
REMARK    7  A    between atoms: C_18  and  C_33
REMARK    8  A    between atoms: C_20  and  C_22
REMARK    9  A    between atoms: C_24  and  C_25
REMARK   10  A    between atoms: C_25  and  O_26
REMARK   11  A    between atoms: O_26  and  C_27
REMARK   12  A    between atoms: C_31  and  O_32
REMARK   13  A    between atoms: C_33  and  O_34
REMARK   14  A    between atoms: C_33  and  C_35
REMARK   15  A    between atoms: C_33  and  C_36
REMARK   16  A    between atoms: O_37  and  C_38
REMARK                            x       y       z     vdW  Elec       q    Type
REMARK                         _______ _______ _______ _____ _____    ______ ____
ROOT
ATOM      1  C   LIG A   1      -8.431   3.078 131.367  0.00  0.00    +0.153 C 
ATOM      2  C   LIG A   1      -8.865   3.069 132.866  0.00  0.00    +0.158 C 
ATOM      3  C   LIG A   1      -7.805   3.423 133.883  0.00  0.00    +0.051 C 
ATOM      4  C   LIG A   1      -6.505   3.574 133.570  0.00  0.00    +0.126 C 
ATOM      5  C   LIG A   1      -6.098   3.397 132.204  0.00  0.00    +0.043 C 
ATOM      6  C   LIG A   1      -6.954   3.268 131.190  0.00  0.00    +0.119 C 
ATOM      7  O   LIG A   1      -6.372   3.123 129.932  0.00  0.00    -0.488 OA
ATOM      8  C   LIG A   1      -4.939   3.357 130.179  0.00  0.00    +0.216 C 
ATOM      9  C   LIG A   1      -4.703   3.197 131.704  0.00  0.00    +0.103 C 
ENDROOT
BRANCH   9  10
ATOM     10  C   LIG A   1      -4.163   1.807 132.049  0.00  0.00    +0.006 A 
ATOM     11  C   LIG A   1      -4.500   0.694 131.257  0.00  0.00    +0.023 A 
ATOM     12  C   LIG A   1      -4.077  -0.595 131.598  0.00  0.00    +0.059 A 
ATOM     13  C   LIG A   1      -3.265  -0.777 132.727  0.00  0.00    +0.018 A 
ATOM     14  C   LIG A   1      -2.890   0.317 133.503  0.00  0.00    +0.046 A 
ATOM     15  C   LIG A   1      -3.335   1.595 133.163  0.00  0.00    +0.121 A 
BRANCH  12  16
ATOM     16  C   LIG A   1      -4.439  -1.750 130.724  0.00  0.00    +0.339 C 
ATOM     17  O   LIG A   1      -4.249  -1.801 129.512  0.00  0.00    -0.245 OA
BRANCH  16  18
ATOM     18  O   LIG A   1      -4.992  -2.684 131.533  0.00  0.00    -0.465 OA
ATOM     19  C   LIG A   1      -6.412  -2.799 131.448  0.00  0.00    +0.280 C 
ENDBRANCH  16  18
ENDBRANCH  12  16
BRANCH  15  20
ATOM     20  O   LIG A   1      -2.944   2.659 133.924  0.00  0.00    -0.506 OA
ATOM     21  H   LIG A   1      -3.666   2.891 134.532  0.00  0.00    +0.292 HD
ENDBRANCH  15  20
ENDBRANCH   9  10
BRANCH   8  22
ATOM     22  C   LIG A   1      -4.515   4.743 129.598  0.00  0.00    +0.098 C 
ATOM     23  C   LIG A   1      -4.476   5.861 130.645  0.00  0.00    +0.045 C 
ATOM     24  C   LIG A   1      -3.164   4.660 128.878  0.00  0.00    +0.045 C 
BRANCH  22  25
ATOM     25  O   LIG A   1      -5.475   5.129 128.598  0.00  0.00    -0.385 OA
ATOM     26  H   LIG A   1      -5.086   4.897 127.733  0.00  0.00    +0.210 HD
ENDBRANCH  22  25
ENDBRANCH   8  22
BRANCH   1  28
ATOM     27  O   LIG A   1     -10.349   3.789 130.063  0.00  0.00    -0.296 OA
ATOM     28  C   LIG A   1      -9.248   4.072 130.544  0.00  0.00    +0.147 C 
BRANCH  28  29
ATOM     29  C   LIG A   1      -8.606   5.423 130.271  0.00  0.00    +0.080 C 
BRANCH  29  30
ATOM     30  C   LIG A   1      -9.322   6.538 131.031  0.00  0.00    +0.042 C 
BRANCH  30  31
ATOM     31  C   LIG A   1     -10.393   7.216 130.206  0.00  0.00    -0.047 A 
ATOM     32  C   LIG A   1     -11.732   7.196 130.622  0.00  0.00    +0.003 A 
ATOM     33  C   LIG A   1     -12.722   7.836 129.871  0.00  0.00    +0.000 A 
ATOM     34  C   LIG A   1     -12.386   8.504 128.695  0.00  0.00    +0.000 A 
ATOM     35  C   LIG A   1     -11.060   8.534 128.271  0.00  0.00    +0.000 A 
ATOM     36  C   LIG A   1     -10.069   7.902 129.025  0.00  0.00    +0.003 A 
ENDBRANCH  30  31
ENDBRANCH  29  30
ENDBRANCH  28  29
ENDBRANCH   1  28
BRANCH   4  37
ATOM     37  O   LIG A   1      -5.473   3.884 134.416  0.00  0.00    -0.495 OA
ATOM     38  C   LIG A   1      -5.758   3.990 135.805  0.00  0.00    +0.277 C 
ENDBRANCH   4  37
BRANCH   2  39
ATOM     39  O   LIG A   1      -9.986   3.913 133.121  0.00  0.00    -0.387 OA
ATOM     40  H   LIG A   1     -10.220   3.807 134.063  0.00  0.00    +0.210 HD
ENDBRANCH   2  39
TORSDOF 12
ENDMDL
MODEL 9
REMARK VINA RESULT:      -7.5      2.785      5.169
REMARK  Name = NuBBE_351
REMARK  16 active torsions:
REMARK  status: ('A' for Active; 'I' for Inactive)
REMARK    1  A    between atoms: C_2  and  C_3
REMARK    2  A    between atoms: C_2  and  C_11
REMARK    3  A    between atoms: C_3  and  C_4
REMARK    4  A    between atoms: C_4  and  C_5
REMARK    5  A    between atoms: C_12  and  O_39
REMARK    6  A    between atoms: C_14  and  O_37
REMARK    7  A    between atoms: C_18  and  C_33
REMARK    8  A    between atoms: C_20  and  C_22
REMARK    9  A    between atoms: C_24  and  C_25
REMARK   10  A    between atoms: C_25  and  O_26
REMARK   11  A    between atoms: O_26  and  C_27
REMARK   12  A    between atoms: C_31  and  O_32
REMARK   13  A    between atoms: C_33  and  O_34
REMARK   14  A    between atoms: C_33  and  C_35
REMARK   15  A    between atoms: C_33  and  C_36
REMARK   16  A    between atoms: O_37  and  C_38
REMARK                            x       y       z     vdW  Elec       q    Type
REMARK                         _______ _______ _______ _____ _____    ______ ____
ROOT
ATOM      1  C   LIG A   1      -8.840   5.263 130.527  0.00  0.00    +0.153 C 
ATOM      2  C   LIG A   1      -9.667   3.949 130.368  0.00  0.00    +0.158 C 
ATOM      3  C   LIG A   1      -8.882   2.669 130.199  0.00  0.00    +0.051 C 
ATOM      4  C   LIG A   1      -7.550   2.640 130.016  0.00  0.00    +0.126 C 
ATOM      5  C   LIG A   1      -6.830   3.881 129.984  0.00  0.00    +0.043 C 
ATOM      6  C   LIG A   1      -7.371   5.057 130.303  0.00  0.00    +0.119 C 
ATOM      7  O   LIG A   1      -6.511   6.152 130.230  0.00  0.00    -0.488 OA
ATOM      8  C   LIG A   1      -5.192   5.545 129.983  0.00  0.00    +0.216 C 
ATOM      9  C   LIG A   1      -5.439   4.098 129.480  0.00  0.00    +0.103 C 
ENDROOT
BRANCH   9  10
ATOM     10  C   LIG A   1      -5.361   4.009 127.953  0.00  0.00    +0.006 A 
ATOM     11  C   LIG A   1      -6.533   4.073 127.175  0.00  0.00    +0.023 A 
ATOM     12  C   LIG A   1      -6.490   3.919 125.786  0.00  0.00    +0.059 A 
ATOM     13  C   LIG A   1      -5.252   3.743 125.150  0.00  0.00    +0.018 A 
ATOM     14  C   LIG A   1      -4.079   3.714 125.899  0.00  0.00    +0.046 A 
ATOM     15  C   LIG A   1      -4.136   3.849 127.286  0.00  0.00    +0.121 A 
BRANCH  12  16
ATOM     16  C   LIG A   1      -7.751   4.011 124.990  0.00  0.00    +0.339 C 
ATOM     17  O   LIG A   1      -8.816   4.453 125.409  0.00  0.00    -0.245 OA
BRANCH  16  18
ATOM     18  O   LIG A   1      -7.462   3.524 123.760  0.00  0.00    -0.465 OA
ATOM     19  C   LIG A   1      -8.518   2.796 123.132  0.00  0.00    +0.280 C 
ENDBRANCH  16  18
ENDBRANCH  12  16
BRANCH  15  20
ATOM     20  O   LIG A   1      -2.975   3.836 128.005  0.00  0.00    -0.506 OA
ATOM     21  H   LIG A   1      -2.308   4.360 127.530  0.00  0.00    +0.292 HD
ENDBRANCH  15  20
ENDBRANCH   9  10
BRANCH   8  22
ATOM     22  C   LIG A   1      -4.308   5.644 131.265  0.00  0.00    +0.098 C 
ATOM     23  C   LIG A   1      -4.282   4.357 132.095  0.00  0.00    +0.045 C 
ATOM     24  C   LIG A   1      -2.874   6.069 130.926  0.00  0.00    +0.045 C 
BRANCH  22  25
ATOM     25  O   LIG A   1      -4.842   6.683 132.106  0.00  0.00    -0.385 OA
ATOM     26  H   LIG A   1      -4.175   7.396 132.127  0.00  0.00    +0.210 HD
ENDBRANCH  22  25
ENDBRANCH   8  22
BRANCH   1  28
ATOM     27  O   LIG A   1     -10.139   6.658 132.027  0.00  0.00    -0.296 OA
ATOM     28  C   LIG A   1      -9.134   5.963 131.853  0.00  0.00    +0.147 C 
BRANCH  28  29
ATOM     29  C   LIG A   1      -8.083   5.831 132.943  0.00  0.00    +0.080 C 
BRANCH  29  30
ATOM     30  C   LIG A   1      -8.505   4.808 133.996  0.00  0.00    +0.042 C 
BRANCH  30  31
ATOM     31  C   LIG A   1      -7.436   3.772 134.268  0.00  0.00    -0.047 A 
ATOM     32  C   LIG A   1      -7.461   2.534 133.610  0.00  0.00    +0.003 A 
ATOM     33  C   LIG A   1      -6.466   1.581 133.846  0.00  0.00    +0.000 A 
ATOM     34  C   LIG A   1      -5.434   1.853 134.742  0.00  0.00    +0.000 A 
ATOM     35  C   LIG A   1      -5.396   3.080 135.400  0.00  0.00    +0.000 A 
ATOM     36  C   LIG A   1      -6.385   4.036 135.160  0.00  0.00    +0.003 A 
ENDBRANCH  30  31
ENDBRANCH  29  30
ENDBRANCH  28  29
ENDBRANCH   1  28
BRANCH   4  37
ATOM     37  O   LIG A   1      -6.754   1.537 129.846  0.00  0.00    -0.495 OA
ATOM     38  C   LIG A   1      -7.047   0.664 128.762  0.00  0.00    +0.277 C 
ENDBRANCH   4  37
BRANCH   2  39
ATOM     39  O   LIG A   1     -10.582   3.740 131.441  0.00  0.00    -0.387 OA
ATOM     40  H   LIG A   1     -11.477   3.693 131.053  0.00  0.00    +0.210 HD
ENDBRANCH   2  39
TORSDOF 12
ENDMDL
