MODEL 1
REMARK VINA RESULT:      -9.4      0.000      0.000
REMARK  Name = NuBBE_257
REMARK  8 active torsions:
REMARK  status: ('A' for Active; 'I' for Inactive)
REMARK    1  A    between atoms: C_3  and  O_4
REMARK    2  A    between atoms: C_5  and  C_6
REMARK    3  A    between atoms: C_11  and  C_25
REMARK    4  A    between atoms: C_14  and  C_16
REMARK    5  A    between atoms: C_20  and  C_21
REMARK    6  A    between atoms: C_20  and  O_22
REMARK    7  A    between atoms: C_26  and  C_27
REMARK    8  A    between atoms: C_30  and  C_31
REMARK                            x       y       z     vdW  Elec       q    Type
REMARK                         _______ _______ _______ _____ _____    ______ ____
ROOT
ATOM      1  O   LIG A   1     -10.061  -1.710 122.974  0.00  0.00    -0.284 OA
ATOM      2  C   LIG A   1      -9.148  -0.992 123.280  0.00  0.00    +0.221 C 
ATOM      3  C   LIG A   1      -9.365   0.461 123.530  0.00  0.00    +0.167 C 
ATOM      4  C   LIG A   1      -8.377   1.256 124.000  0.00  0.00    +0.002 C 
ATOM      5  C   LIG A   1      -8.650   2.724 124.128  0.00  0.00    +0.048 C 
ATOM      6  C   LIG A   1      -7.094   0.645 124.503  0.00  0.00    -0.014 C 
ATOM      7  C   LIG A   1      -6.154   1.262 125.269  0.00  0.00    +0.008 C 
ATOM      8  C   LIG A   1      -5.238   0.578 126.269  0.00  0.00    +0.001 C 
ATOM      9  C   LIG A   1      -5.342  -0.756 126.500  0.00  0.00    -0.053 C 
ATOM     10  C   LIG A   1      -5.429  -1.627 128.019  0.00  0.00    -0.004 C 
ATOM     11  C   LIG A   1      -4.905  -1.618 129.606  0.00  0.00    +0.012 C 
ATOM     12  C   LIG A   1      -5.574  -0.977 130.878  0.00  0.00    +0.008 C 
ATOM     13  C   LIG A   1      -7.077  -0.618 130.793  0.00  0.00    -0.022 C 
ATOM     14  C   LIG A   1      -7.412   0.514 131.812  0.00  0.00    +0.084 C 
ATOM     15  C   LIG A   1      -8.014  -1.755 131.272  0.00  0.00    +0.012 C 
ATOM     16  C   LIG A   1      -7.210  -0.247 129.279  0.00  0.00    +0.005 C 
ATOM     17  C   LIG A   1      -8.244   0.838 128.936  0.00  0.00    +0.046 C 
ATOM     18  C   LIG A   1      -8.359   1.979 129.971  0.00  0.00    +0.121 C 
ATOM     19  C   LIG A   1      -9.424   2.977 129.537  0.00  0.00    +0.049 C 
ATOM     20  C   LIG A   1      -8.586   1.336 131.328  0.00  0.00    +0.165 C 
ATOM     21  O   LIG A   1      -9.601   1.499 132.000  0.00  0.00    -0.294 OA
ATOM     22  C   LIG A   1      -4.639  -2.942 127.656  0.00  0.00    +0.016 C 
ATOM     23  C   LIG A   1      -7.045  -1.549 128.284  0.00  0.00    -0.019 C 
ATOM     24  C   LIG A   1      -7.762  -2.855 128.723  0.00  0.00    +0.012 C 
ATOM     25  C   LIG A   1      -7.783  -1.392 126.960  0.00  0.00    +0.009 C 
ATOM     26  C   LIG A   1      -7.078  -2.390 125.987  0.00  0.00    +0.016 C 
ATOM     27  C   LIG A   1      -6.014  -1.564 125.262  0.00  0.00    +0.015 C 
ATOM     28  C   LIG A   1      -5.001  -2.274 124.339  0.00  0.00    +0.021 C 
ATOM     29  C   LIG A   1      -6.935  -0.792 124.302  0.00  0.00    -0.026 C 
ATOM     30  C   LIG A   1      -7.787  -1.503 123.524  0.00  0.00    +0.059 C 
ENDROOT
BRANCH   3  31
ATOM     31  O   LIG A   1     -10.660   0.895 123.288  0.00  0.00    -0.503 OA
ATOM     32  H   LIG A   1     -11.206   0.474 123.993  0.00  0.00    +0.292 HD
ENDBRANCH   3  31
BRANCH  18  33
ATOM     33  O   LIG A   1      -7.131   2.716 130.105  0.00  0.00    -0.381 OA
ATOM     34  H   LIG A   1      -7.357   3.564 130.536  0.00  0.00    +0.211 HD
ENDBRANCH  18  33
TORSDOF 2
ENDMDL
MODEL 2
REMARK VINA RESULT:      -8.8      2.519      4.498
REMARK  Name = NuBBE_257
REMARK  8 active torsions:
REMARK  status: ('A' for Active; 'I' for Inactive)
REMARK    1  A    between atoms: C_3  and  O_4
REMARK    2  A    between atoms: C_5  and  C_6
REMARK    3  A    between atoms: C_11  and  C_25
REMARK    4  A    between atoms: C_14  and  C_16
REMARK    5  A    between atoms: C_20  and  C_21
REMARK    6  A    between atoms: C_20  and  O_22
REMARK    7  A    between atoms: C_26  and  C_27
REMARK    8  A    between atoms: C_30  and  C_31
REMARK                            x       y       z     vdW  Elec       q    Type
REMARK                         _______ _______ _______ _____ _____    ______ ____
ROOT
ATOM      1  O   LIG A   1     -10.028  -2.429 125.817  0.00  0.00    -0.284 OA
ATOM      2  C   LIG A   1      -8.880  -2.566 126.144  0.00  0.00    +0.221 C 
ATOM      3  C   LIG A   1      -7.771  -2.217 125.213  0.00  0.00    +0.167 C 
ATOM      4  C   LIG A   1      -6.478  -2.242 125.609  0.00  0.00    +0.002 C 
ATOM      5  C   LIG A   1      -5.418  -1.976 124.584  0.00  0.00    +0.048 C 
ATOM      6  C   LIG A   1      -6.140  -2.402 127.070  0.00  0.00    -0.014 C 
ATOM      7  C   LIG A   1      -4.937  -2.146 127.651  0.00  0.00    +0.008 C 
ATOM      8  C   LIG A   1      -4.724  -1.696 129.087  0.00  0.00    +0.001 C 
ATOM      9  C   LIG A   1      -5.785  -1.468 129.903  0.00  0.00    -0.053 C 
ATOM     10  C   LIG A   1      -6.125  -0.097 130.941  0.00  0.00    -0.004 C 
ATOM     11  C   LIG A   1      -5.416   1.068 131.907  0.00  0.00    +0.012 C 
ATOM     12  C   LIG A   1      -4.927   2.516 131.534  0.00  0.00    +0.008 C 
ATOM     13  C   LIG A   1      -5.474   3.143 130.229  0.00  0.00    -0.022 C 
ATOM     14  C   LIG A   1      -4.480   4.222 129.700  0.00  0.00    +0.084 C 
ATOM     15  C   LIG A   1      -6.762   3.979 130.435  0.00  0.00    +0.012 C 
ATOM     16  C   LIG A   1      -5.650   1.869 129.338  0.00  0.00    +0.005 C 
ATOM     17  C   LIG A   1      -5.432   2.064 127.828  0.00  0.00    +0.046 C 
ATOM     18  C   LIG A   1      -4.309   3.055 127.455  0.00  0.00    +0.121 C 
ATOM     19  C   LIG A   1      -4.201   3.182 125.941  0.00  0.00    +0.049 C 
ATOM     20  C   LIG A   1      -4.585   4.351 128.197  0.00  0.00    +0.165 C 
ATOM     21  O   LIG A   1      -4.824   5.419 127.640  0.00  0.00    -0.294 OA
ATOM     22  C   LIG A   1      -6.847  -0.809 132.149  0.00  0.00    +0.016 C 
ATOM     23  C   LIG A   1      -6.865   0.887 129.858  0.00  0.00    -0.019 C 
ATOM     24  C   LIG A   1      -8.180   1.583 130.305  0.00  0.00    +0.012 C 
ATOM     25  C   LIG A   1      -7.489   0.057 128.742  0.00  0.00    +0.009 C 
ATOM     26  C   LIG A   1      -8.163  -1.150 129.468  0.00  0.00    +0.016 C 
ATOM     27  C   LIG A   1      -7.121  -2.270 129.445  0.00  0.00    +0.015 C 
ATOM     28  C   LIG A   1      -7.386  -3.570 130.234  0.00  0.00    +0.021 C 
ATOM     29  C   LIG A   1      -7.256  -2.679 127.969  0.00  0.00    -0.026 C 
ATOM     30  C   LIG A   1      -8.490  -2.989 127.501  0.00  0.00    +0.059 C 
ENDROOT
BRANCH   3  31
ATOM     31  O   LIG A   1      -8.186  -1.825 123.950  0.00  0.00    -0.503 OA
ATOM     32  H   LIG A   1      -9.058  -1.384 124.094  0.00  0.00    +0.292 HD
ENDBRANCH   3  31
BRANCH  18  33
ATOM     33  O   LIG A   1      -3.022   2.619 127.926  0.00  0.00    -0.381 OA
ATOM     34  H   LIG A   1      -2.482   3.425 128.058  0.00  0.00    +0.211 HD
ENDBRANCH  18  33
TORSDOF 2
ENDMDL
MODEL 3
REMARK VINA RESULT:      -8.8      2.542      4.034
REMARK  Name = NuBBE_257
REMARK  8 active torsions:
REMARK  status: ('A' for Active; 'I' for Inactive)
REMARK    1  A    between atoms: C_3  and  O_4
REMARK    2  A    between atoms: C_5  and  C_6
REMARK    3  A    between atoms: C_11  and  C_25
REMARK    4  A    between atoms: C_14  and  C_16
REMARK    5  A    between atoms: C_20  and  C_21
REMARK    6  A    between atoms: C_20  and  O_22
REMARK    7  A    between atoms: C_26  and  C_27
REMARK    8  A    between atoms: C_30  and  C_31
REMARK                            x       y       z     vdW  Elec       q    Type
REMARK                         _______ _______ _______ _____ _____    ______ ____
ROOT
ATOM      1  O   LIG A   1      -9.937  -0.437 125.666  0.00  0.00    -0.284 OA
ATOM      2  C   LIG A   1      -8.985   0.277 125.838  0.00  0.00    +0.221 C 
ATOM      3  C   LIG A   1      -8.994   1.693 125.375  0.00  0.00    +0.167 C 
ATOM      4  C   LIG A   1      -7.987   2.544 125.675  0.00  0.00    +0.002 C 
ATOM      5  C   LIG A   1      -8.025   3.921 125.085  0.00  0.00    +0.048 C 
ATOM      6  C   LIG A   1      -6.938   2.145 126.682  0.00  0.00    -0.014 C 
ATOM      7  C   LIG A   1      -6.062   2.978 127.305  0.00  0.00    +0.008 C 
ATOM      8  C   LIG A   1      -5.471   2.769 128.689  0.00  0.00    +0.001 C 
ATOM      9  C   LIG A   1      -5.840   1.701 129.442  0.00  0.00    -0.053 C 
ATOM     10  C   LIG A   1      -6.347   1.636 131.119  0.00  0.00    -0.004 C 
ATOM     11  C   LIG A   1      -6.125   2.337 132.620  0.00  0.00    +0.012 C 
ATOM     12  C   LIG A   1      -6.894   3.536 133.289  0.00  0.00    +0.008 C 
ATOM     13  C   LIG A   1      -8.274   3.919 132.701  0.00  0.00    -0.022 C 
ATOM     14  C   LIG A   1      -8.590   5.413 133.017  0.00  0.00    +0.084 C 
ATOM     15  C   LIG A   1      -9.461   3.198 133.387  0.00  0.00    +0.012 C 
ATOM     16  C   LIG A   1      -8.065   3.561 131.193  0.00  0.00    +0.005 C 
ATOM     17  C   LIG A   1      -8.821   4.435 130.179  0.00  0.00    +0.046 C 
ATOM     18  C   LIG A   1      -8.926   5.929 130.557  0.00  0.00    +0.121 C 
ATOM     19  C   LIG A   1      -9.710   6.687 129.494  0.00  0.00    +0.049 C 
ATOM     20  C   LIG A   1      -9.500   6.000 131.961  0.00  0.00    +0.165 C 
ATOM     21  O   LIG A   1     -10.576   6.524 132.233  0.00  0.00    -0.294 OA
ATOM     22  C   LIG A   1      -5.740   0.249 131.561  0.00  0.00    +0.016 C 
ATOM     23  C   LIG A   1      -7.948   1.939 130.931  0.00  0.00    -0.019 C 
ATOM     24  C   LIG A   1      -8.944   1.035 131.708  0.00  0.00    +0.012 C 
ATOM     25  C   LIG A   1      -8.396   1.520 129.536  0.00  0.00    +0.009 C 
ATOM     26  C   LIG A   1      -7.707   0.140 129.290  0.00  0.00    +0.016 C 
ATOM     27  C   LIG A   1      -6.405   0.464 128.556  0.00  0.00    +0.015 C 
ATOM     28  C   LIG A   1      -5.377  -0.659 128.302  0.00  0.00    +0.021 C 
ATOM     29  C   LIG A   1      -6.993   0.770 127.168  0.00  0.00    -0.026 C 
ATOM     30  C   LIG A   1      -7.798  -0.158 126.596  0.00  0.00    +0.059 C 
ENDROOT
BRANCH   3  31
ATOM     31  O   LIG A   1     -10.131   2.056 124.668  0.00  0.00    -0.503 OA
ATOM     32  H   LIG A   1      -9.962   2.981 124.371  0.00  0.00    +0.292 HD
ENDBRANCH   3  31
BRANCH  18  33
ATOM     33  O   LIG A   1      -7.635   6.557 130.646  0.00  0.00    -0.381 OA
ATOM     34  H   LIG A   1      -7.361   6.508 131.585  0.00  0.00    +0.211 HD
ENDBRANCH  18  33
TORSDOF 2
ENDMDL
MODEL 4
REMARK VINA RESULT:      -8.7      2.686      6.402
REMARK  Name = NuBBE_257
REMARK  8 active torsions:
REMARK  status: ('A' for Active; 'I' for Inactive)
REMARK    1  A    between atoms: C_3  and  O_4
REMARK    2  A    between atoms: C_5  and  C_6
REMARK    3  A    between atoms: C_11  and  C_25
REMARK    4  A    between atoms: C_14  and  C_16
REMARK    5  A    between atoms: C_20  and  C_21
REMARK    6  A    between atoms: C_20  and  O_22
REMARK    7  A    between atoms: C_26  and  C_27
REMARK    8  A    between atoms: C_30  and  C_31
REMARK                            x       y       z     vdW  Elec       q    Type
REMARK                         _______ _______ _______ _____ _____    ______ ____
ROOT
ATOM      1  O   LIG A   1      -3.122  -3.983 128.816  0.00  0.00    -0.284 OA
ATOM      2  C   LIG A   1      -3.947  -3.225 129.251  0.00  0.00    +0.221 C 
ATOM      3  C   LIG A   1      -3.546  -1.949 129.908  0.00  0.00    +0.167 C 
ATOM      4  C   LIG A   1      -4.461  -1.028 130.285  0.00  0.00    +0.002 C 
ATOM      5  C   LIG A   1      -3.982   0.181 131.030  0.00  0.00    +0.048 C 
ATOM      6  C   LIG A   1      -5.896  -1.164 129.842  0.00  0.00    -0.014 C 
ATOM      7  C   LIG A   1      -6.846  -0.191 129.876  0.00  0.00    +0.008 C 
ATOM      8  C   LIG A   1      -8.025  -0.070 128.926  0.00  0.00    +0.001 C 
ATOM      9  C   LIG A   1      -8.181  -0.951 127.904  0.00  0.00    -0.053 C 
ATOM     10  C   LIG A   1      -8.510  -0.652 126.208  0.00  0.00    -0.004 C 
ATOM     11  C   LIG A   1      -9.302   0.373 125.152  0.00  0.00    +0.012 C 
ATOM     12  C   LIG A   1      -8.778   1.671 124.434  0.00  0.00    +0.008 C 
ATOM     13  C   LIG A   1      -7.245   1.878 124.357  0.00  0.00    -0.022 C 
ATOM     14  C   LIG A   1      -6.921   3.397 124.212  0.00  0.00    +0.084 C 
ATOM     15  C   LIG A   1      -6.606   1.299 123.070  0.00  0.00    +0.012 C 
ATOM     16  C   LIG A   1      -6.785   1.196 125.687  0.00  0.00    +0.005 C 
ATOM     17  C   LIG A   1      -5.545   1.803 126.364  0.00  0.00    +0.046 C 
ATOM     18  C   LIG A   1      -5.435   3.340 126.266  0.00  0.00    +0.121 C 
ATOM     19  C   LIG A   1      -4.162   3.820 126.950  0.00  0.00    +0.049 C 
ATOM     20  C   LIG A   1      -5.562   3.709 124.799  0.00  0.00    +0.165 C 
ATOM     21  O   LIG A   1      -4.672   4.253 124.151  0.00  0.00    -0.294 OA
ATOM     22  C   LIG A   1      -9.423  -1.889 125.859  0.00  0.00    +0.016 C 
ATOM     23  C   LIG A   1      -6.976  -0.439 125.667  0.00  0.00    -0.019 C 
ATOM     24  C   LIG A   1      -6.570  -1.172 124.359  0.00  0.00    +0.012 C 
ATOM     25  C   LIG A   1      -5.998  -1.171 126.578  0.00  0.00    +0.009 C 
ATOM     26  C   LIG A   1      -6.668  -2.553 126.860  0.00  0.00    +0.016 C 
ATOM     27  C   LIG A   1      -7.437  -2.369 128.170  0.00  0.00    +0.015 C 
ATOM     28  C   LIG A   1      -8.369  -3.495 128.667  0.00  0.00    +0.021 C 
ATOM     29  C   LIG A   1      -6.245  -2.397 129.142  0.00  0.00    -0.026 C 
ATOM     30  C   LIG A   1      -5.394  -3.449 129.080  0.00  0.00    +0.059 C 
ENDROOT
BRANCH   3  31
ATOM     31  O   LIG A   1      -2.176  -1.783 130.045  0.00  0.00    -0.503 OA
ATOM     32  H   LIG A   1      -1.782  -2.622 129.706  0.00  0.00    +0.292 HD
ENDBRANCH   3  31
BRANCH  18  33
ATOM     33  O   LIG A   1      -6.531   4.004 126.918  0.00  0.00    -0.381 OA
ATOM     34  H   LIG A   1      -7.190   4.209 126.223  0.00  0.00    +0.211 HD
ENDBRANCH  18  33
TORSDOF 2
ENDMDL
MODEL 5
REMARK VINA RESULT:      -8.7      1.950      6.810
REMARK  Name = NuBBE_257
REMARK  8 active torsions:
REMARK  status: ('A' for Active; 'I' for Inactive)
REMARK    1  A    between atoms: C_3  and  O_4
REMARK    2  A    between atoms: C_5  and  C_6
REMARK    3  A    between atoms: C_11  and  C_25
REMARK    4  A    between atoms: C_14  and  C_16
REMARK    5  A    between atoms: C_20  and  C_21
REMARK    6  A    between atoms: C_20  and  O_22
REMARK    7  A    between atoms: C_26  and  C_27
REMARK    8  A    between atoms: C_30  and  C_31
REMARK                            x       y       z     vdW  Elec       q    Type
REMARK                         _______ _______ _______ _____ _____    ______ ____
ROOT
ATOM      1  O   LIG A   1     -10.044   2.754 131.134  0.00  0.00    -0.284 OA
ATOM      2  C   LIG A   1      -8.993   2.270 130.809  0.00  0.00    +0.221 C 
ATOM      3  C   LIG A   1      -8.691   0.837 131.082  0.00  0.00    +0.167 C 
ATOM      4  C   LIG A   1      -7.571   0.246 130.609  0.00  0.00    +0.002 C 
ATOM      5  C   LIG A   1      -7.293  -1.170 131.013  0.00  0.00    +0.048 C 
ATOM      6  C   LIG A   1      -6.711   0.960 129.597  0.00  0.00    -0.014 C 
ATOM      7  C   LIG A   1      -5.750   0.398 128.815  0.00  0.00    +0.008 C 
ATOM      8  C   LIG A   1      -5.336   0.879 127.435  0.00  0.00    +0.001 C 
ATOM      9  C   LIG A   1      -5.967   1.932 126.854  0.00  0.00    -0.053 C 
ATOM     10  C   LIG A   1      -6.625   2.089 125.236  0.00  0.00    -0.004 C 
ATOM     11  C   LIG A   1      -6.408   1.625 123.645  0.00  0.00    +0.012 C 
ATOM     12  C   LIG A   1      -6.990   0.383 122.876  0.00  0.00    +0.008 C 
ATOM     13  C   LIG A   1      -8.214  -0.335 123.495  0.00  0.00    -0.022 C 
ATOM     14  C   LIG A   1      -8.267  -1.814 123.007  0.00  0.00    +0.084 C 
ATOM     15  C   LIG A   1      -9.573   0.209 122.988  0.00  0.00    +0.012 C 
ATOM     16  C   LIG A   1      -7.944  -0.119 125.021  0.00  0.00    +0.005 C 
ATOM     17  C   LIG A   1      -8.426  -1.239 125.958  0.00  0.00    +0.046 C 
ATOM     18  C   LIG A   1      -8.278  -2.669 125.395  0.00  0.00    +0.121 C 
ATOM     19  C   LIG A   1      -8.805  -3.686 126.397  0.00  0.00    +0.049 C 
ATOM     20  C   LIG A   1      -8.950  -2.690 124.033  0.00  0.00    +0.165 C 
ATOM     21  O   LIG A   1      -9.927  -3.384 123.765  0.00  0.00    -0.294 OA
ATOM     22  C   LIG A   1      -6.334   3.611 124.942  0.00  0.00    +0.016 C 
ATOM     23  C   LIG A   1      -8.115   1.452 125.485  0.00  0.00    -0.019 C 
ATOM     24  C   LIG A   1      -9.330   2.223 124.900  0.00  0.00    +0.012 C 
ATOM     25  C   LIG A   1      -8.509   1.608 126.950  0.00  0.00    +0.009 C 
ATOM     26  C   LIG A   1      -8.077   3.059 127.329  0.00  0.00    +0.016 C 
ATOM     27  C   LIG A   1      -6.676   2.920 127.930  0.00  0.00    +0.015 C 
ATOM     28  C   LIG A   1      -5.863   4.189 128.262  0.00  0.00    +0.021 C 
ATOM     29  C   LIG A   1      -7.070   2.344 129.300  0.00  0.00    -0.026 C 
ATOM     30  C   LIG A   1      -7.983   3.019 130.040  0.00  0.00    +0.059 C 
ENDROOT
BRANCH   3  31
ATOM     31  O   LIG A   1      -9.670   0.175 131.806  0.00  0.00    -0.503 OA
ATOM     32  H   LIG A   1      -9.964   0.823 132.491  0.00  0.00    +0.292 HD
ENDBRANCH   3  31
BRANCH  18  33
ATOM     33  O   LIG A   1      -6.904  -3.011 125.141  0.00  0.00    -0.381 OA
ATOM     34  H   LIG A   1      -6.910  -3.717 124.463  0.00  0.00    +0.211 HD
ENDBRANCH  18  33
TORSDOF 2
ENDMDL
MODEL 6
REMARK VINA RESULT:      -8.7      2.385      4.740
REMARK  Name = NuBBE_257
REMARK  8 active torsions:
REMARK  status: ('A' for Active; 'I' for Inactive)
REMARK    1  A    between atoms: C_3  and  O_4
REMARK    2  A    between atoms: C_5  and  C_6
REMARK    3  A    between atoms: C_11  and  C_25
REMARK    4  A    between atoms: C_14  and  C_16
REMARK    5  A    between atoms: C_20  and  C_21
REMARK    6  A    between atoms: C_20  and  O_22
REMARK    7  A    between atoms: C_26  and  C_27
REMARK    8  A    between atoms: C_30  and  C_31
REMARK                            x       y       z     vdW  Elec       q    Type
REMARK                         _______ _______ _______ _____ _____    ______ ____
ROOT
ATOM      1  O   LIG A   1      -9.748  -4.207 128.089  0.00  0.00    -0.284 OA
ATOM      2  C   LIG A   1      -8.653  -3.712 128.076  0.00  0.00    +0.221 C 
ATOM      3  C   LIG A   1      -8.143  -3.009 126.866  0.00  0.00    +0.167 C 
ATOM      4  C   LIG A   1      -6.970  -2.336 126.877  0.00  0.00    +0.002 C 
ATOM      5  C   LIG A   1      -6.482  -1.742 125.591  0.00  0.00    +0.048 C 
ATOM      6  C   LIG A   1      -6.257  -2.086 128.182  0.00  0.00    -0.014 C 
ATOM      7  C   LIG A   1      -5.258  -1.188 128.395  0.00  0.00    +0.008 C 
ATOM      8  C   LIG A   1      -4.967  -0.480 129.708  0.00  0.00    +0.001 C 
ATOM      9  C   LIG A   1      -5.761  -0.682 130.791  0.00  0.00    -0.053 C 
ATOM     10  C   LIG A   1      -6.495   0.484 131.875  0.00  0.00    -0.004 C 
ATOM     11  C   LIG A   1      -6.276   1.978 132.592  0.00  0.00    +0.012 C 
ATOM     12  C   LIG A   1      -6.707   3.404 132.086  0.00  0.00    +0.008 C 
ATOM     13  C   LIG A   1      -7.795   3.476 130.987  0.00  0.00    -0.022 C 
ATOM     14  C   LIG A   1      -7.659   4.810 130.190  0.00  0.00    +0.084 C 
ATOM     15  C   LIG A   1      -9.235   3.593 131.546  0.00  0.00    +0.012 C 
ATOM     16  C   LIG A   1      -7.500   2.162 130.191  0.00  0.00    +0.005 C 
ATOM     17  C   LIG A   1      -7.785   2.208 128.680  0.00  0.00    +0.046 C 
ATOM     18  C   LIG A   1      -7.460   3.554 127.997  0.00  0.00    +0.121 C 
ATOM     19  C   LIG A   1      -7.802   3.486 126.514  0.00  0.00    +0.049 C 
ATOM     20  C   LIG A   1      -8.174   4.642 128.778  0.00  0.00    +0.165 C 
ATOM     21  O   LIG A   1      -9.054   5.357 128.307  0.00  0.00    -0.294 OA
ATOM     22  C   LIG A   1      -6.431  -0.298 133.242  0.00  0.00    +0.016 C 
ATOM     23  C   LIG A   1      -7.871   0.801 131.042  0.00  0.00    -0.019 C 
ATOM     24  C   LIG A   1      -9.203   0.821 131.840  0.00  0.00    +0.012 C 
ATOM     25  C   LIG A   1      -8.227  -0.386 130.155  0.00  0.00    +0.009 C 
ATOM     26  C   LIG A   1      -7.988  -1.642 131.050  0.00  0.00    +0.016 C 
ATOM     27  C   LIG A   1      -6.560  -2.095 130.738  0.00  0.00    +0.015 C 
ATOM     28  C   LIG A   1      -5.920  -3.221 131.577  0.00  0.00    +0.021 C 
ATOM     29  C   LIG A   1      -6.817  -2.736 129.363  0.00  0.00    -0.026 C 
ATOM     30  C   LIG A   1      -7.787  -3.678 129.269  0.00  0.00    +0.059 C 
ENDROOT
BRANCH   3  31
ATOM     31  O   LIG A   1      -8.992  -3.067 125.771  0.00  0.00    -0.503 OA
ATOM     32  H   LIG A   1      -8.770  -2.270 125.232  0.00  0.00    +0.292 HD
ENDBRANCH   3  31
BRANCH  18  33
ATOM     33  O   LIG A   1      -6.063   3.882 128.085  0.00  0.00    -0.381 OA
ATOM     34  H   LIG A   1      -5.948   4.747 127.640  0.00  0.00    +0.211 HD
ENDBRANCH  18  33
TORSDOF 2
ENDMDL
MODEL 7
REMARK VINA RESULT:      -8.7      2.035      6.160
REMARK  Name = NuBBE_257
REMARK  8 active torsions:
REMARK  status: ('A' for Active; 'I' for Inactive)
REMARK    1  A    between atoms: C_3  and  O_4
REMARK    2  A    between atoms: C_5  and  C_6
REMARK    3  A    between atoms: C_11  and  C_25
REMARK    4  A    between atoms: C_14  and  C_16
REMARK    5  A    between atoms: C_20  and  C_21
REMARK    6  A    between atoms: C_20  and  O_22
REMARK    7  A    between atoms: C_26  and  C_27
REMARK    8  A    between atoms: C_30  and  C_31
REMARK                            x       y       z     vdW  Elec       q    Type
REMARK                         _______ _______ _______ _____ _____    ______ ____
ROOT
ATOM      1  O   LIG A   1      -3.341   3.701 129.699  0.00  0.00    -0.284 OA
ATOM      2  C   LIG A   1      -4.480   3.442 129.980  0.00  0.00    +0.221 C 
ATOM      3  C   LIG A   1      -5.610   4.202 129.374  0.00  0.00    +0.167 C 
ATOM      4  C   LIG A   1      -6.897   3.841 129.578  0.00  0.00    +0.002 C 
ATOM      5  C   LIG A   1      -7.976   4.716 129.016  0.00  0.00    +0.048 C 
ATOM      6  C   LIG A   1      -7.215   2.522 130.236  0.00  0.00    -0.014 C 
ATOM      7  C   LIG A   1      -8.420   1.891 130.236  0.00  0.00    +0.008 C 
ATOM      8  C   LIG A   1      -8.634   0.389 130.308  0.00  0.00    +0.001 C 
ATOM      9  C   LIG A   1      -7.573  -0.459 130.335  0.00  0.00    -0.053 C 
ATOM     10  C   LIG A   1      -7.269  -1.902 129.387  0.00  0.00    -0.004 C 
ATOM     11  C   LIG A   1      -8.008  -3.205 128.646  0.00  0.00    +0.012 C 
ATOM     12  C   LIG A   1      -8.549  -3.346 127.175  0.00  0.00    +0.008 C 
ATOM     13  C   LIG A   1      -8.037  -2.333 126.123  0.00  0.00    -0.022 C 
ATOM     14  C   LIG A   1      -9.071  -2.201 124.964  0.00  0.00    +0.084 C 
ATOM     15  C   LIG A   1      -6.776  -2.814 125.362  0.00  0.00    +0.012 C 
ATOM     16  C   LIG A   1      -7.826  -1.062 127.011  0.00  0.00    +0.005 C 
ATOM     17  C   LIG A   1      -8.066   0.292 126.322  0.00  0.00    +0.046 C 
ATOM     18  C   LIG A   1      -9.226   0.308 125.303  0.00  0.00    +0.121 C 
ATOM     19  C   LIG A   1      -9.353   1.689 124.673  0.00  0.00    +0.049 C 
ATOM     20  C   LIG A   1      -8.986  -0.831 124.328  0.00  0.00    +0.165 C 
ATOM     21  O   LIG A   1      -8.788  -0.672 123.126  0.00  0.00    -0.294 OA
ATOM     22  C   LIG A   1      -6.512  -2.797 130.442  0.00  0.00    +0.016 C 
ATOM     23  C   LIG A   1      -6.574  -1.220 128.068  0.00  0.00    -0.019 C 
ATOM     24  C   LIG A   1      -5.279  -1.880 127.520  0.00  0.00    +0.012 C 
ATOM     25  C   LIG A   1      -5.934   0.110 128.447  0.00  0.00    +0.009 C 
ATOM     26  C   LIG A   1      -5.211  -0.163 129.804  0.00  0.00    +0.016 C 
ATOM     27  C   LIG A   1      -6.216   0.241 130.885  0.00  0.00    +0.015 C 
ATOM     28  C   LIG A   1      -5.899  -0.058 132.366  0.00  0.00    +0.021 C 
ATOM     29  C   LIG A   1      -6.081   1.769 130.764  0.00  0.00    -0.026 C 
ATOM     30  C   LIG A   1      -4.842   2.311 130.852  0.00  0.00    +0.059 C 
ENDROOT
BRANCH   3  31
ATOM     31  O   LIG A   1      -5.220   5.255 128.561  0.00  0.00    -0.503 OA
ATOM     32  H   LIG A   1      -5.569   6.064 129.007  0.00  0.00    +0.292 HD
ENDBRANCH   3  31
BRANCH  18  33
ATOM     33  O   LIG A   1     -10.492   0.016 125.918  0.00  0.00    -0.381 OA
ATOM     34  H   LIG A   1     -10.317  -0.128 126.870  0.00  0.00    +0.211 HD
ENDBRANCH  18  33
TORSDOF 2
ENDMDL
MODEL 8
REMARK VINA RESULT:      -8.6      4.720      8.687
REMARK  Name = NuBBE_257
REMARK  8 active torsions:
REMARK  status: ('A' for Active; 'I' for Inactive)
REMARK    1  A    between atoms: C_3  and  O_4
REMARK    2  A    between atoms: C_5  and  C_6
REMARK    3  A    between atoms: C_11  and  C_25
REMARK    4  A    between atoms: C_14  and  C_16
REMARK    5  A    between atoms: C_20  and  C_21
REMARK    6  A    between atoms: C_20  and  O_22
REMARK    7  A    between atoms: C_26  and  C_27
REMARK    8  A    between atoms: C_30  and  C_31
REMARK                            x       y       z     vdW  Elec       q    Type
REMARK                         _______ _______ _______ _____ _____    ______ ____
ROOT
ATOM      1  O   LIG A   1     -10.895   6.126 131.655  0.00  0.00    -0.284 OA
ATOM      2  C   LIG A   1     -10.118   5.270 131.982  0.00  0.00    +0.221 C 
ATOM      3  C   LIG A   1     -10.120   3.937 131.316  0.00  0.00    +0.167 C 
ATOM      4  C   LIG A   1      -9.172   3.010 131.580  0.00  0.00    +0.002 C 
ATOM      5  C   LIG A   1      -9.304   1.660 130.944  0.00  0.00    +0.048 C 
ATOM      6  C   LIG A   1      -7.953   3.387 132.385  0.00  0.00    -0.014 C 
ATOM      7  C   LIG A   1      -6.796   2.678 132.475  0.00  0.00    +0.008 C 
ATOM      8  C   LIG A   1      -5.415   3.262 132.715  0.00  0.00    +0.001 C 
ATOM      9  C   LIG A   1      -5.242   4.606 132.816  0.00  0.00    -0.053 C 
ATOM     10  C   LIG A   1      -4.072   5.647 132.029  0.00  0.00    -0.004 C 
ATOM     11  C   LIG A   1      -2.507   5.713 131.448  0.00  0.00    +0.012 C 
ATOM     12  C   LIG A   1      -1.957   5.384 130.011  0.00  0.00    +0.008 C 
ATOM     13  C   LIG A   1      -2.975   5.347 128.845  0.00  0.00    -0.022 C 
ATOM     14  C   LIG A   1      -2.435   4.441 127.697  0.00  0.00    +0.084 C 
ATOM     15  C   LIG A   1      -3.135   6.706 128.120  0.00  0.00    +0.012 C 
ATOM     16  C   LIG A   1      -4.256   4.838 129.585  0.00  0.00    +0.005 C 
ATOM     17  C   LIG A   1      -5.214   3.966 128.755  0.00  0.00    +0.046 C 
ATOM     18  C   LIG A   1      -4.526   3.007 127.760  0.00  0.00    +0.121 C 
ATOM     19  C   LIG A   1      -5.571   2.216 126.985  0.00  0.00    +0.049 C 
ATOM     20  C   LIG A   1      -3.579   3.837 126.912  0.00  0.00    +0.165 C 
ATOM     21  O   LIG A   1      -3.693   3.975 125.697  0.00  0.00    -0.294 OA
ATOM     22  C   LIG A   1      -3.809   6.711 133.162  0.00  0.00    +0.016 C 
ATOM     23  C   LIG A   1      -4.875   5.948 130.631  0.00  0.00    -0.019 C 
ATOM     24  C   LIG A   1      -4.923   7.420 130.136  0.00  0.00    +0.012 C 
ATOM     25  C   LIG A   1      -6.376   5.798 130.850  0.00  0.00    +0.009 C 
ATOM     26  C   LIG A   1      -6.654   6.501 132.216  0.00  0.00    +0.016 C 
ATOM     27  C   LIG A   1      -6.594   5.387 133.263  0.00  0.00    +0.015 C 
ATOM     28  C   LIG A   1      -6.654   5.750 134.762  0.00  0.00    +0.021 C 
ATOM     29  C   LIG A   1      -7.950   4.723 132.972  0.00  0.00    -0.026 C 
ATOM     30  C   LIG A   1      -9.058   5.504 132.979  0.00  0.00    +0.059 C 
ENDROOT
BRANCH   3  31
ATOM     31  O   LIG A   1     -11.134   3.765 130.386  0.00  0.00    -0.503 OA
ATOM     32  H   LIG A   1     -10.679   3.450 129.568  0.00  0.00    +0.292 HD
ENDBRANCH   3  31
BRANCH  18  33
ATOM     33  O   LIG A   1      -3.689   2.045 128.426  0.00  0.00    -0.381 OA
ATOM     34  H   LIG A   1      -3.316   2.492 129.212  0.00  0.00    +0.211 HD
ENDBRANCH  18  33
TORSDOF 2
ENDMDL
MODEL 9
REMARK VINA RESULT:      -8.3      2.518      5.732
REMARK  Name = NuBBE_257
REMARK  8 active torsions:
REMARK  status: ('A' for Active; 'I' for Inactive)
REMARK    1  A    between atoms: C_3  and  O_4
REMARK    2  A    between atoms: C_5  and  C_6
REMARK    3  A    between atoms: C_11  and  C_25
REMARK    4  A    between atoms: C_14  and  C_16
REMARK    5  A    between atoms: C_20  and  C_21
REMARK    6  A    between atoms: C_20  and  O_22
REMARK    7  A    between atoms: C_26  and  C_27
REMARK    8  A    between atoms: C_30  and  C_31
REMARK                            x       y       z     vdW  Elec       q    Type
REMARK                         _______ _______ _______ _____ _____    ______ ____
ROOT
ATOM      1  O   LIG A   1      -9.225   5.320 128.538  0.00  0.00    -0.284 OA
ATOM      2  C   LIG A   1      -8.186   4.722 128.466  0.00  0.00    +0.221 C 
ATOM      3  C   LIG A   1      -7.640   3.989 129.644  0.00  0.00    +0.167 C 
ATOM      4  C   LIG A   1      -6.542   3.206 129.546  0.00  0.00    +0.002 C 
ATOM      5  C   LIG A   1      -6.001   2.586 130.798  0.00  0.00    +0.048 C 
ATOM      6  C   LIG A   1      -5.974   2.870 128.190  0.00  0.00    -0.014 C 
ATOM      7  C   LIG A   1      -5.087   1.878 127.911  0.00  0.00    +0.008 C 
ATOM      8  C   LIG A   1      -4.982   1.127 126.594  0.00  0.00    +0.001 C 
ATOM      9  C   LIG A   1      -5.846   1.390 125.580  0.00  0.00    -0.053 C 
ATOM     10  C   LIG A   1      -6.780   0.285 124.589  0.00  0.00    -0.004 C 
ATOM     11  C   LIG A   1      -6.767  -1.233 123.890  0.00  0.00    +0.012 C 
ATOM     12  C   LIG A   1      -7.286  -2.604 124.462  0.00  0.00    +0.008 C 
ATOM     13  C   LIG A   1      -8.274  -2.555 125.652  0.00  0.00    -0.022 C 
ATOM     14  C   LIG A   1      -8.196  -3.884 126.463  0.00  0.00    +0.084 C 
ATOM     15  C   LIG A   1      -9.763  -2.540 125.223  0.00  0.00    +0.012 C 
ATOM     16  C   LIG A   1      -7.787  -1.264 126.391  0.00  0.00    +0.005 C 
ATOM     17  C   LIG A   1      -7.941  -1.262 127.921  0.00  0.00    +0.046 C 
ATOM     18  C   LIG A   1      -7.686  -2.623 128.603  0.00  0.00    +0.121 C 
ATOM     19  C   LIG A   1      -7.888  -2.503 130.108  0.00  0.00    +0.049 C 
ATOM     20  C   LIG A   1      -8.566  -3.648 127.911  0.00  0.00    +0.165 C 
ATOM     21  O   LIG A   1      -9.465  -4.268 128.473  0.00  0.00    -0.294 OA
ATOM     22  C   LIG A   1      -6.763   1.039 123.204  0.00  0.00    +0.016 C 
ATOM     23  C   LIG A   1      -8.101   0.113 125.545  0.00  0.00    -0.019 C 
ATOM     24  C   LIG A   1      -9.494   0.211 124.865  0.00  0.00    +0.012 C 
ATOM     25  C   LIG A   1      -8.263   1.342 126.433  0.00  0.00    +0.009 C 
ATOM     26  C   LIG A   1      -7.985   2.556 125.493  0.00  0.00    +0.016 C 
ATOM     27  C   LIG A   1      -6.499   2.874 125.671  0.00  0.00    +0.015 C 
ATOM     28  C   LIG A   1      -5.831   3.921 124.754  0.00  0.00    +0.021 C 
ATOM     29  C   LIG A   1      -6.572   3.555 127.047  0.00  0.00    -0.026 C 
ATOM     30  C   LIG A   1      -7.436   4.587 127.205  0.00  0.00    +0.059 C 
ENDROOT
BRANCH   3  31
ATOM     31  O   LIG A   1      -8.380   4.144 130.806  0.00  0.00    -0.503 OA
ATOM     32  H   LIG A   1      -8.118   3.384 131.379  0.00  0.00    +0.292 HD
ENDBRANCH   3  31
BRANCH  18  33
ATOM     33  O   LIG A   1      -6.339  -3.087 128.402  0.00  0.00    -0.381 OA
ATOM     34  H   LIG A   1      -6.163  -3.752 129.098  0.00  0.00    +0.211 HD
ENDBRANCH  18  33
TORSDOF 2
ENDMDL
