MODEL 1
REMARK VINA RESULT:      -5.9      0.000      0.000
REMARK  Name = NuBBE_1367
REMARK  5 active torsions:
REMARK  status: ('A' for Active; 'I' for Inactive)
REMARK    1  A    between atoms: O_1  and  C_2
REMARK    2  A    between atoms: C_3  and  C_10
REMARK    3  A    between atoms: C_6  and  O_7
REMARK    4  A    between atoms: O_7  and  C_8
REMARK    5  A    between atoms: C_11  and  C_12
REMARK                            x       y       z     vdW  Elec       q    Type
REMARK                         _______ _______ _______ _____ _____    ______ ____
ROOT
ATOM      1  C   LIG A   1     -10.909   7.785 129.168  0.00  0.00    +0.127 A 
ATOM      2  C   LIG A   1     -12.082   8.261 129.768  0.00  0.00    +0.017 A 
ATOM      3  C   LIG A   1     -12.623   7.542 130.839  0.00  0.00    +0.015 A 
ATOM      4  C   LIG A   1     -12.000   6.373 131.292  0.00  0.00    +0.046 A 
ATOM      5  C   LIG A   1     -10.837   5.899 130.679  0.00  0.00    +0.124 A 
ATOM      6  C   LIG A   1     -10.298   6.607 129.605  0.00  0.00    +0.091 A 
ENDROOT
BRANCH   1   7
ATOM      7  O   LIG A   1     -10.282   8.436 128.140  0.00  0.00    -0.506 OA
ATOM      8  H   LIG A   1      -9.844   9.227 128.494  0.00  0.00    +0.292 HD
ENDBRANCH   1   7
BRANCH   5   9
ATOM      9  O   LIG A   1     -10.325   4.753 131.222  0.00  0.00    -0.495 OA
ATOM     10  C   LIG A   1      -9.972   3.718 130.312  0.00  0.00    +0.277 C 
ENDBRANCH   5   9
BRANCH   2  11
ATOM     11  C   LIG A   1     -12.765   9.476 129.315  0.00  0.00    +0.015 C 
ATOM     12  C   LIG A   1     -13.193  10.401 130.187  0.00  0.00    +0.043 C 
BRANCH  12  13
ATOM     13  C   LIG A   1     -13.887  11.610 129.707  0.00  0.00    +0.251 C 
ATOM     14  O   LIG A   1     -13.671  12.707 130.203  0.00  0.00    -0.296 OA
ENDBRANCH  12  13
ENDBRANCH   2  11
TORSDOF 4
ENDMDL
MODEL 2
REMARK VINA RESULT:      -5.6      2.374      5.623
REMARK  Name = NuBBE_1367
REMARK  5 active torsions:
REMARK  status: ('A' for Active; 'I' for Inactive)
REMARK    1  A    between atoms: O_1  and  C_2
REMARK    2  A    between atoms: C_3  and  C_10
REMARK    3  A    between atoms: C_6  and  O_7
REMARK    4  A    between atoms: O_7  and  C_8
REMARK    5  A    between atoms: C_11  and  C_12
REMARK                            x       y       z     vdW  Elec       q    Type
REMARK                         _______ _______ _______ _____ _____    ______ ____
ROOT
ATOM      1  C   LIG A   1     -11.721   6.844 130.850  0.00  0.00    +0.127 A 
ATOM      2  C   LIG A   1     -10.406   7.038 130.407  0.00  0.00    +0.017 A 
ATOM      3  C   LIG A   1     -10.192   7.852 129.290  0.00  0.00    +0.015 A 
ATOM      4  C   LIG A   1     -11.274   8.454 128.637  0.00  0.00    +0.046 A 
ATOM      5  C   LIG A   1     -12.583   8.245 129.079  0.00  0.00    +0.124 A 
ATOM      6  C   LIG A   1     -12.802   7.426 130.187  0.00  0.00    +0.091 A 
ENDROOT
BRANCH   1   7
ATOM      7  O   LIG A   1     -12.030   6.096 131.954  0.00  0.00    -0.506 OA
ATOM      8  H   LIG A   1     -11.415   5.346 132.005  0.00  0.00    +0.292 HD
ENDBRANCH   1   7
BRANCH   5   9
ATOM      9  O   LIG A   1     -13.546   8.896 128.360  0.00  0.00    -0.495 OA
ATOM     10  C   LIG A   1     -13.797  10.252 128.708  0.00  0.00    +0.277 C 
ENDBRANCH   5   9
BRANCH   2  11
ATOM     11  C   LIG A   1      -9.251   6.417 131.061  0.00  0.00    +0.015 C 
ATOM     12  C   LIG A   1      -8.030   6.968 130.988  0.00  0.00    +0.043 C 
BRANCH  12  13
ATOM     13  C   LIG A   1      -6.882   6.318 131.647  0.00  0.00    +0.251 C 
ATOM     14  O   LIG A   1      -5.747   6.759 131.528  0.00  0.00    -0.296 OA
ENDBRANCH  12  13
ENDBRANCH   2  11
TORSDOF 4
ENDMDL
MODEL 3
REMARK VINA RESULT:      -5.4      1.533      5.653
REMARK  Name = NuBBE_1367
REMARK  5 active torsions:
REMARK  status: ('A' for Active; 'I' for Inactive)
REMARK    1  A    between atoms: O_1  and  C_2
REMARK    2  A    between atoms: C_3  and  C_10
REMARK    3  A    between atoms: C_6  and  O_7
REMARK    4  A    between atoms: O_7  and  C_8
REMARK    5  A    between atoms: C_11  and  C_12
REMARK                            x       y       z     vdW  Elec       q    Type
REMARK                         _______ _______ _______ _____ _____    ______ ____
ROOT
ATOM      1  C   LIG A   1     -12.335   7.314 128.433  0.00  0.00    +0.127 A 
ATOM      2  C   LIG A   1     -12.232   6.815 129.738  0.00  0.00    +0.017 A 
ATOM      3  C   LIG A   1     -12.569   7.658 130.803  0.00  0.00    +0.015 A 
ATOM      4  C   LIG A   1     -12.996   8.968 130.558  0.00  0.00    +0.046 A 
ATOM      5  C   LIG A   1     -13.084   9.460 129.254  0.00  0.00    +0.124 A 
ATOM      6  C   LIG A   1     -12.741   8.628 128.189  0.00  0.00    +0.091 A 
ENDROOT
BRANCH   1   7
ATOM      7  O   LIG A   1     -12.065   6.557 127.324  0.00  0.00    -0.506 OA
ATOM      8  H   LIG A   1     -11.920   5.638 127.602  0.00  0.00    +0.292 HD
ENDBRANCH   1   7
BRANCH   5   9
ATOM      9  O   LIG A   1     -13.522  10.752 129.153  0.00  0.00    -0.495 OA
ATOM     10  C   LIG A   1     -13.585  11.502 130.361  0.00  0.00    +0.277 C 
ENDBRANCH   5   9
BRANCH   2  11
ATOM     11  C   LIG A   1     -11.780   5.452 130.030  0.00  0.00    +0.015 C 
ATOM     12  C   LIG A   1     -10.478   5.166 130.174  0.00  0.00    +0.043 C 
BRANCH  12  13
ATOM     13  C   LIG A   1     -10.049   3.784 130.458  0.00  0.00    +0.251 C 
ATOM     14  O   LIG A   1      -9.687   3.033 129.561  0.00  0.00    -0.296 OA
ENDBRANCH  12  13
ENDBRANCH   2  11
TORSDOF 4
ENDMDL
MODEL 4
REMARK VINA RESULT:      -5.4      2.907      5.827
REMARK  Name = NuBBE_1367
REMARK  5 active torsions:
REMARK  status: ('A' for Active; 'I' for Inactive)
REMARK    1  A    between atoms: O_1  and  C_2
REMARK    2  A    between atoms: C_3  and  C_10
REMARK    3  A    between atoms: C_6  and  O_7
REMARK    4  A    between atoms: O_7  and  C_8
REMARK    5  A    between atoms: C_11  and  C_12
REMARK                            x       y       z     vdW  Elec       q    Type
REMARK                         _______ _______ _______ _____ _____    ______ ____
ROOT
ATOM      1  C   LIG A   1     -10.532   6.256 131.816  0.00  0.00    +0.127 A 
ATOM      2  C   LIG A   1      -9.358   6.648 131.159  0.00  0.00    +0.017 A 
ATOM      3  C   LIG A   1      -9.470   7.400 129.985  0.00  0.00    +0.015 A 
ATOM      4  C   LIG A   1     -10.731   7.747 129.486  0.00  0.00    +0.046 A 
ATOM      5  C   LIG A   1     -11.896   7.340 130.141  0.00  0.00    +0.124 A 
ATOM      6  C   LIG A   1     -11.790   6.583 131.307  0.00  0.00    +0.091 A 
ENDROOT
BRANCH   1   7
ATOM      7  O   LIG A   1     -10.527   5.552 132.990  0.00  0.00    -0.506 OA
ATOM      8  H   LIG A   1     -11.367   5.074 133.070  0.00  0.00    +0.292 HD
ENDBRANCH   1   7
BRANCH   5   9
ATOM      9  O   LIG A   1     -13.061   7.751 129.554  0.00  0.00    -0.495 OA
ATOM     10  C   LIG A   1     -13.019   8.982 128.843  0.00  0.00    +0.277 C 
ENDBRANCH   5   9
BRANCH   2  11
ATOM     11  C   LIG A   1      -8.022   6.297 131.650  0.00  0.00    +0.015 C 
ATOM     12  C   LIG A   1      -6.923   6.894 131.166  0.00  0.00    +0.043 C 
BRANCH  12  13
ATOM     13  C   LIG A   1      -5.590   6.515 131.668  0.00  0.00    +0.251 C 
ATOM     14  O   LIG A   1      -4.598   7.183 131.406  0.00  0.00    -0.296 OA
ENDBRANCH  12  13
ENDBRANCH   2  11
TORSDOF 4
ENDMDL
MODEL 5
REMARK VINA RESULT:      -5.4      3.231      4.373
REMARK  Name = NuBBE_1367
REMARK  5 active torsions:
REMARK  status: ('A' for Active; 'I' for Inactive)
REMARK    1  A    between atoms: O_1  and  C_2
REMARK    2  A    between atoms: C_3  and  C_10
REMARK    3  A    between atoms: C_6  and  O_7
REMARK    4  A    between atoms: O_7  and  C_8
REMARK    5  A    between atoms: C_11  and  C_12
REMARK                            x       y       z     vdW  Elec       q    Type
REMARK                         _______ _______ _______ _____ _____    ______ ____
ROOT
ATOM      1  C   LIG A   1     -10.543   6.236 131.791  0.00  0.00    +0.127 A 
ATOM      2  C   LIG A   1      -9.954   6.861 130.684  0.00  0.00    +0.017 A 
ATOM      3  C   LIG A   1      -8.561   6.981 130.648  0.00  0.00    +0.015 A 
ATOM      4  C   LIG A   1      -7.782   6.487 131.701  0.00  0.00    +0.046 A 
ATOM      5  C   LIG A   1      -8.379   5.877 132.807  0.00  0.00    +0.124 A 
ATOM      6  C   LIG A   1      -9.768   5.762 132.852  0.00  0.00    +0.091 A 
ENDROOT
BRANCH   1   7
ATOM      7  O   LIG A   1     -11.892   6.037 131.902  0.00  0.00    -0.506 OA
ATOM      8  H   LIG A   1     -12.049   5.129 132.208  0.00  0.00    +0.292 HD
ENDBRANCH   1   7
BRANCH   5   9
ATOM      9  O   LIG A   1      -7.506   5.431 133.761  0.00  0.00    -0.495 OA
ATOM     10  C   LIG A   1      -8.033   4.550 134.747  0.00  0.00    +0.277 C 
ENDBRANCH   5   9
BRANCH   2  11
ATOM     11  C   LIG A   1     -10.739   7.396 129.568  0.00  0.00    +0.015 C 
ATOM     12  C   LIG A   1     -10.457   7.070 128.298  0.00  0.00    +0.043 C 
BRANCH  12  13
ATOM     13  C   LIG A   1     -11.255   7.631 127.193  0.00  0.00    +0.251 C 
ATOM     14  O   LIG A   1     -11.486   6.981 126.182  0.00  0.00    -0.296 OA
ENDBRANCH  12  13
ENDBRANCH   2  11
TORSDOF 4
ENDMDL
MODEL 6
REMARK VINA RESULT:      -5.4     10.141     13.752
REMARK  Name = NuBBE_1367
REMARK  5 active torsions:
REMARK  status: ('A' for Active; 'I' for Inactive)
REMARK    1  A    between atoms: O_1  and  C_2
REMARK    2  A    between atoms: C_3  and  C_10
REMARK    3  A    between atoms: C_6  and  O_7
REMARK    4  A    between atoms: O_7  and  C_8
REMARK    5  A    between atoms: C_11  and  C_12
REMARK                            x       y       z     vdW  Elec       q    Type
REMARK                         _______ _______ _______ _____ _____    ______ ____
ROOT
ATOM      1  C   LIG A   1      -8.395  -2.111 123.369  0.00  0.00    +0.127 A 
ATOM      2  C   LIG A   1      -7.059  -2.008 123.776  0.00  0.00    +0.017 A 
ATOM      3  C   LIG A   1      -6.513  -0.733 123.957  0.00  0.00    +0.015 A 
ATOM      4  C   LIG A   1      -7.293   0.408 123.733  0.00  0.00    +0.046 A 
ATOM      5  C   LIG A   1      -8.622   0.295 123.315  0.00  0.00    +0.124 A 
ATOM      6  C   LIG A   1      -9.168  -0.974 123.124  0.00  0.00    +0.091 A 
ENDROOT
BRANCH   1   7
ATOM      7  O   LIG A   1      -9.030  -3.312 123.201  0.00  0.00    -0.506 OA
ATOM      8  H   LIG A   1      -9.821  -3.328 123.764  0.00  0.00    +0.292 HD
ENDBRANCH   1   7
BRANCH   5   9
ATOM      9  O   LIG A   1      -9.274   1.484 123.140  0.00  0.00    -0.495 OA
ATOM     10  C   LIG A   1      -8.482   2.593 122.733  0.00  0.00    +0.277 C 
ENDBRANCH   5   9
BRANCH   2  11
ATOM     11  C   LIG A   1      -6.211  -3.180 124.012  0.00  0.00    +0.015 C 
ATOM     12  C   LIG A   1      -4.996  -3.284 123.454  0.00  0.00    +0.043 C 
BRANCH  12  13
ATOM     13  C   LIG A   1      -4.167  -4.479 123.699  0.00  0.00    +0.251 C 
ATOM     14  O   LIG A   1      -4.148  -5.413 122.908  0.00  0.00    -0.296 OA
ENDBRANCH  12  13
ENDBRANCH   2  11
TORSDOF 4
ENDMDL
MODEL 7
REMARK VINA RESULT:      -5.2      1.941      5.526
REMARK  Name = NuBBE_1367
REMARK  5 active torsions:
REMARK  status: ('A' for Active; 'I' for Inactive)
REMARK    1  A    between atoms: O_1  and  C_2
REMARK    2  A    between atoms: C_3  and  C_10
REMARK    3  A    between atoms: C_6  and  O_7
REMARK    4  A    between atoms: O_7  and  C_8
REMARK    5  A    between atoms: C_11  and  C_12
REMARK                            x       y       z     vdW  Elec       q    Type
REMARK                         _______ _______ _______ _____ _____    ______ ____
ROOT
ATOM      1  C   LIG A   1     -10.415   7.120 129.853  0.00  0.00    +0.127 A 
ATOM      2  C   LIG A   1     -10.928   6.565 131.032  0.00  0.00    +0.017 A 
ATOM      3  C   LIG A   1     -12.168   7.016 131.497  0.00  0.00    +0.015 A 
ATOM      4  C   LIG A   1     -12.871   8.002 130.794  0.00  0.00    +0.046 A 
ATOM      5  C   LIG A   1     -12.344   8.559 129.625  0.00  0.00    +0.124 A 
ATOM      6  C   LIG A   1     -11.105   8.119 129.162  0.00  0.00    +0.091 A 
ENDROOT
BRANCH   1   7
ATOM      7  O   LIG A   1      -9.230   6.719 129.297  0.00  0.00    -0.506 OA
ATOM      8  H   LIG A   1      -8.505   6.973 129.891  0.00  0.00    +0.292 HD
ENDBRANCH   1   7
BRANCH   5   9
ATOM      9  O   LIG A   1     -13.133   9.505 129.031  0.00  0.00    -0.495 OA
ATOM     10  C   LIG A   1     -13.431  10.663 129.802  0.00  0.00    +0.277 C 
ENDBRANCH   5   9
BRANCH   2  11
ATOM     11  C   LIG A   1     -10.217   5.538 131.798  0.00  0.00    +0.015 C 
ATOM     12  C   LIG A   1      -9.401   5.865 132.811  0.00  0.00    +0.043 C 
BRANCH  12  13
ATOM     13  C   LIG A   1      -8.688   4.813 133.559  0.00  0.00    +0.251 C 
ATOM     14  O   LIG A   1      -9.268   3.811 133.957  0.00  0.00    -0.296 OA
ENDBRANCH  12  13
ENDBRANCH   2  11
TORSDOF 4
ENDMDL
MODEL 8
REMARK VINA RESULT:      -5.1     10.580     12.886
REMARK  Name = NuBBE_1367
REMARK  5 active torsions:
REMARK  status: ('A' for Active; 'I' for Inactive)
REMARK    1  A    between atoms: O_1  and  C_2
REMARK    2  A    between atoms: C_3  and  C_10
REMARK    3  A    between atoms: C_6  and  O_7
REMARK    4  A    between atoms: O_7  and  C_8
REMARK    5  A    between atoms: C_11  and  C_12
REMARK                            x       y       z     vdW  Elec       q    Type
REMARK                         _______ _______ _______ _____ _____    ______ ____
ROOT
ATOM      1  C   LIG A   1      -8.269  -3.010 124.139  0.00  0.00    +0.127 A 
ATOM      2  C   LIG A   1      -8.050  -1.936 123.267  0.00  0.00    +0.017 A 
ATOM      3  C   LIG A   1      -6.748  -1.702 122.811  0.00  0.00    +0.015 A 
ATOM      4  C   LIG A   1      -5.696  -2.528 123.223  0.00  0.00    +0.046 A 
ATOM      5  C   LIG A   1      -5.923  -3.589 124.103  0.00  0.00    +0.124 A 
ATOM      6  C   LIG A   1      -7.217  -3.821 124.569  0.00  0.00    +0.091 A 
ENDROOT
BRANCH   1   7
ATOM      7  O   LIG A   1      -9.511  -3.343 124.611  0.00  0.00    -0.506 OA
ATOM      8  H   LIG A   1      -9.625  -2.950 125.491  0.00  0.00    +0.292 HD
ENDBRANCH   1   7
BRANCH   5   9
ATOM      9  O   LIG A   1      -4.813  -4.322 124.421  0.00  0.00    -0.495 OA
ATOM     10  C   LIG A   1      -4.073  -4.864 123.334  0.00  0.00    +0.277 C 
ENDBRANCH   5   9
BRANCH   2  11
ATOM     11  C   LIG A   1      -9.126  -1.047 122.821  0.00  0.00    +0.015 C 
ATOM     12  C   LIG A   1      -9.183   0.233 123.219  0.00  0.00    +0.043 C 
BRANCH  12  13
ATOM     13  C   LIG A   1     -10.282   1.104 122.765  0.00  0.00    +0.251 C 
ATOM     14  O   LIG A   1     -11.442   0.714 122.758  0.00  0.00    -0.296 OA
ENDBRANCH  12  13
ENDBRANCH   2  11
TORSDOF 4
ENDMDL
MODEL 9
REMARK VINA RESULT:      -5.0      9.807     13.370
REMARK  Name = NuBBE_1367
REMARK  5 active torsions:
REMARK  status: ('A' for Active; 'I' for Inactive)
REMARK    1  A    between atoms: O_1  and  C_2
REMARK    2  A    between atoms: C_3  and  C_10
REMARK    3  A    between atoms: C_6  and  O_7
REMARK    4  A    between atoms: O_7  and  C_8
REMARK    5  A    between atoms: C_11  and  C_12
REMARK                            x       y       z     vdW  Elec       q    Type
REMARK                         _______ _______ _______ _____ _____    ______ ____
ROOT
ATOM      1  C   LIG A   1      -5.934  -0.314 125.258  0.00  0.00    +0.127 A 
ATOM      2  C   LIG A   1      -6.120  -1.449 124.458  0.00  0.00    +0.017 A 
ATOM      3  C   LIG A   1      -7.134  -1.427 123.494  0.00  0.00    +0.015 A 
ATOM      4  C   LIG A   1      -7.940  -0.292 123.342  0.00  0.00    +0.046 A 
ATOM      5  C   LIG A   1      -7.754   0.830 124.154  0.00  0.00    +0.124 A 
ATOM      6  C   LIG A   1      -6.751   0.810 125.122  0.00  0.00    +0.091 A 
ENDROOT
BRANCH   1   7
ATOM      7  O   LIG A   1      -4.947  -0.224 126.202  0.00  0.00    -0.506 OA
ATOM      8  H   LIG A   1      -4.248  -0.862 125.984  0.00  0.00    +0.292 HD
ENDBRANCH   1   7
BRANCH   5   9
ATOM      9  O   LIG A   1      -8.601   1.873 123.899  0.00  0.00    -0.495 OA
ATOM     10  C   LIG A   1      -8.148   2.852 122.970  0.00  0.00    +0.277 C 
ENDBRANCH   5   9
BRANCH   2  11
ATOM     11  C   LIG A   1      -5.301  -2.656 124.595  0.00  0.00    +0.015 C 
ATOM     12  C   LIG A   1      -4.929  -3.371 123.522  0.00  0.00    +0.043 C 
BRANCH  12  13
ATOM     13  C   LIG A   1      -4.114  -4.588 123.688  0.00  0.00    +0.251 C 
ATOM     14  O   LIG A   1      -4.137  -5.487 122.858  0.00  0.00    -0.296 OA
ENDBRANCH  12  13
ENDBRANCH   2  11
TORSDOF 4
ENDMDL
