MODEL 1
REMARK VINA RESULT:      -6.5      0.000      0.000
REMARK  Name = NuBBE_2222
REMARK  10 active torsions:
REMARK  status: ('A' for Active; 'I' for Inactive)
REMARK    1  A    between atoms: C_1  and  C_2
REMARK    2  A    between atoms: C_1  and  C_13
REMARK    3  A    between atoms: C_2  and  C_3
REMARK    4  A    between atoms: C_3  and  C_4
REMARK    5  A    between atoms: C_6  and  O_7
REMARK    6  A    between atoms: O_7  and  C_8
REMARK    7  A    between atoms: C_9  and  O_12
REMARK    8  A    between atoms: C_14  and  O_15
REMARK    9  A    between atoms: O_15  and  C_16
REMARK   10  A    between atoms: C_18  and  O_21
REMARK                            x       y       z     vdW  Elec       q    Type
REMARK                         _______ _______ _______ _____ _____    ______ ____
ROOT
ATOM      1  C   LIG A   1      -5.279  -0.220 125.807  0.00  0.00    +0.009 C 
ENDROOT
BRANCH   1   2
ATOM      2  C   LIG A   1      -5.638  -1.627 126.303  0.00  0.00    +0.039 C 
BRANCH   2   3
ATOM      3  C   LIG A   1      -6.847  -2.180 125.576  0.00  0.00    -0.005 A 
ATOM      4  C   LIG A   1      -8.001  -2.608 126.269  0.00  0.00    +0.127 A 
ATOM      5  C   LIG A   1      -9.121  -3.041 125.548  0.00  0.00    +0.091 A 
ATOM      6  C   LIG A   1      -9.092  -3.052 124.157  0.00  0.00    +0.120 A 
ATOM      7  C   LIG A   1      -7.953  -2.659 123.464  0.00  0.00    +0.046 A 
ATOM      8  C   LIG A   1      -6.837  -2.223 124.172  0.00  0.00    +0.011 A 
BRANCH   4   9
ATOM      9  O   LIG A   1      -7.930  -2.555 127.636  0.00  0.00    -0.495 OA
ATOM     10  C   LIG A   1      -8.620  -3.565 128.365  0.00  0.00    +0.277 C 
ENDBRANCH   4   9
BRANCH   6  11
ATOM     11  O   LIG A   1     -10.174  -3.442 123.424  0.00  0.00    -0.507 OA
ATOM     12  H   LIG A   1     -10.532  -2.668 122.957  0.00  0.00    +0.292 HD
ENDBRANCH   6  11
ENDBRANCH   2   3
ENDBRANCH   1   2
BRANCH   1  13
ATOM     13  C   LIG A   1      -6.304   0.828 126.261  0.00  0.00    +0.035 C 
BRANCH  13  14
ATOM     14  C   LIG A   1      -6.921   1.594 125.108  0.00  0.00    -0.044 A 
ATOM     15  C   LIG A   1      -8.174   1.215 124.588  0.00  0.00    +0.053 A 
ATOM     16  C   LIG A   1      -8.747   1.917 123.525  0.00  0.00    +0.162 A 
ATOM     17  C   LIG A   1      -8.056   3.001 122.980  0.00  0.00    +0.159 A 
ATOM     18  C   LIG A   1      -6.811   3.384 123.465  0.00  0.00    +0.049 A 
ATOM     19  C   LIG A   1      -6.244   2.678 124.527  0.00  0.00    +0.007 A 
BRANCH  16  20
ATOM     20  O   LIG A   1      -9.957   1.645 122.937  0.00  0.00    -0.491 OA
ATOM     21  C   LIG A   1     -10.154   0.310 122.485  0.00  0.00    +0.277 C 
ENDBRANCH  16  20
BRANCH  17  22
ATOM     22  O   LIG A   1      -8.596   3.719 121.947  0.00  0.00    -0.503 OA
ATOM     23  H   LIG A   1      -8.976   4.515 122.368  0.00  0.00    +0.292 HD
ENDBRANCH  17  22
ENDBRANCH  13  14
ENDBRANCH   1  13
TORSDOF 8
ENDMDL
MODEL 2
REMARK VINA RESULT:      -6.3      0.820      1.985
REMARK  Name = NuBBE_2222
REMARK  10 active torsions:
REMARK  status: ('A' for Active; 'I' for Inactive)
REMARK    1  A    between atoms: C_1  and  C_2
REMARK    2  A    between atoms: C_1  and  C_13
REMARK    3  A    between atoms: C_2  and  C_3
REMARK    4  A    between atoms: C_3  and  C_4
REMARK    5  A    between atoms: C_6  and  O_7
REMARK    6  A    between atoms: O_7  and  C_8
REMARK    7  A    between atoms: C_9  and  O_12
REMARK    8  A    between atoms: C_14  and  O_15
REMARK    9  A    between atoms: O_15  and  C_16
REMARK   10  A    between atoms: C_18  and  O_21
REMARK                            x       y       z     vdW  Elec       q    Type
REMARK                         _______ _______ _______ _____ _____    ______ ____
ROOT
ATOM      1  C   LIG A   1      -5.383  -0.129 125.681  0.00  0.00    +0.009 C 
ENDROOT
BRANCH   1   2
ATOM      2  C   LIG A   1      -5.637  -1.580 126.110  0.00  0.00    +0.039 C 
BRANCH   2   3
ATOM      3  C   LIG A   1      -6.854  -2.159 125.417  0.00  0.00    -0.005 A 
ATOM      4  C   LIG A   1      -7.935  -2.707 126.143  0.00  0.00    +0.127 A 
ATOM      5  C   LIG A   1      -9.070  -3.161 125.459  0.00  0.00    +0.091 A 
ATOM      6  C   LIG A   1      -9.126  -3.075 124.071  0.00  0.00    +0.120 A 
ATOM      7  C   LIG A   1      -8.059  -2.564 123.344  0.00  0.00    +0.046 A 
ATOM      8  C   LIG A   1      -6.929  -2.106 124.015  0.00  0.00    +0.011 A 
BRANCH   4   9
ATOM      9  O   LIG A   1      -7.782  -2.743 127.504  0.00  0.00    -0.495 OA
ATOM     10  C   LIG A   1      -8.659  -3.590 128.237  0.00  0.00    +0.277 C 
ENDBRANCH   4   9
BRANCH   6  11
ATOM     11  O   LIG A   1     -10.227  -3.484 123.376  0.00  0.00    -0.507 OA
ATOM     12  H   LIG A   1     -10.523  -4.339 123.732  0.00  0.00    +0.292 HD
ENDBRANCH   6  11
ENDBRANCH   2   3
ENDBRANCH   1   2
BRANCH   1  13
ATOM     13  C   LIG A   1      -6.532   0.802 126.093  0.00  0.00    +0.035 C 
BRANCH  13  14
ATOM     14  C   LIG A   1      -7.096   1.598 124.934  0.00  0.00    -0.044 A 
ATOM     15  C   LIG A   1      -6.315   2.582 124.297  0.00  0.00    +0.053 A 
ATOM     16  C   LIG A   1      -6.830   3.321 123.228  0.00  0.00    +0.162 A 
ATOM     17  C   LIG A   1      -8.136   3.071 122.802  0.00  0.00    +0.159 A 
ATOM     18  C   LIG A   1      -8.931   2.117 123.426  0.00  0.00    +0.049 A 
ATOM     19  C   LIG A   1      -8.411   1.384 124.493  0.00  0.00    +0.007 A 
BRANCH  16  20
ATOM     20  O   LIG A   1      -6.168   4.300 122.530  0.00  0.00    -0.491 OA
ATOM     21  C   LIG A   1      -5.325   3.860 121.471  0.00  0.00    +0.277 C 
ENDBRANCH  16  20
BRANCH  17  22
ATOM     22  O   LIG A   1      -8.666   3.767 121.749  0.00  0.00    -0.503 OA
ATOM     23  H   LIG A   1      -9.124   3.094 121.209  0.00  0.00    +0.292 HD
ENDBRANCH  17  22
ENDBRANCH  13  14
ENDBRANCH   1  13
TORSDOF 8
ENDMDL
MODEL 3
REMARK VINA RESULT:      -6.2      1.706      2.378
REMARK  Name = NuBBE_2222
REMARK  10 active torsions:
REMARK  status: ('A' for Active; 'I' for Inactive)
REMARK    1  A    between atoms: C_1  and  C_2
REMARK    2  A    between atoms: C_1  and  C_13
REMARK    3  A    between atoms: C_2  and  C_3
REMARK    4  A    between atoms: C_3  and  C_4
REMARK    5  A    between atoms: C_6  and  O_7
REMARK    6  A    between atoms: O_7  and  C_8
REMARK    7  A    between atoms: C_9  and  O_12
REMARK    8  A    between atoms: C_14  and  O_15
REMARK    9  A    between atoms: O_15  and  C_16
REMARK   10  A    between atoms: C_18  and  O_21
REMARK                            x       y       z     vdW  Elec       q    Type
REMARK                         _______ _______ _______ _____ _____    ______ ____
ROOT
ATOM      1  C   LIG A   1      -5.645  -0.647 127.320  0.00  0.00    +0.009 C 
ENDROOT
BRANCH   1   2
ATOM      2  C   LIG A   1      -5.763  -2.152 127.045  0.00  0.00    +0.039 C 
BRANCH   2   3
ATOM      3  C   LIG A   1      -6.888  -2.452 126.075  0.00  0.00    -0.005 A 
ATOM      4  C   LIG A   1      -6.637  -2.892 124.756  0.00  0.00    +0.127 A 
ATOM      5  C   LIG A   1      -7.710  -3.228 123.921  0.00  0.00    +0.091 A 
ATOM      6  C   LIG A   1      -9.016  -3.125 124.392  0.00  0.00    +0.120 A 
ATOM      7  C   LIG A   1      -9.277  -2.668 125.678  0.00  0.00    +0.046 A 
ATOM      8  C   LIG A   1      -8.217  -2.336 126.516  0.00  0.00    +0.011 A 
BRANCH   4   9
ATOM      9  O   LIG A   1      -5.318  -2.962 124.392  0.00  0.00    -0.495 OA
ATOM     10  C   LIG A   1      -4.870  -4.172 123.792  0.00  0.00    +0.277 C 
ENDBRANCH   4   9
BRANCH   6  11
ATOM     11  O   LIG A   1     -10.083  -3.470 123.615  0.00  0.00    -0.507 OA
ATOM     12  H   LIG A   1     -10.716  -3.971 124.157  0.00  0.00    +0.292 HD
ENDBRANCH   6  11
ENDBRANCH   2   3
ENDBRANCH   1   2
BRANCH   1  13
ATOM     13  C   LIG A   1      -5.286   0.142 126.054  0.00  0.00    +0.035 C 
BRANCH  13  14
ATOM     14  C   LIG A   1      -6.190   1.335 125.821  0.00  0.00    -0.044 A 
ATOM     15  C   LIG A   1      -7.536   1.149 125.450  0.00  0.00    +0.053 A 
ATOM     16  C   LIG A   1      -8.375   2.245 125.232  0.00  0.00    +0.162 A 
ATOM     17  C   LIG A   1      -7.856   3.533 125.386  0.00  0.00    +0.159 A 
ATOM     18  C   LIG A   1      -6.528   3.742 125.736  0.00  0.00    +0.049 A 
ATOM     19  C   LIG A   1      -5.695   2.643 125.951  0.00  0.00    +0.007 A 
BRANCH  16  20
ATOM     20  O   LIG A   1      -9.697   2.190 124.870  0.00  0.00    -0.491 OA
ATOM     21  C   LIG A   1      -9.999   1.453 123.691  0.00  0.00    +0.277 C 
ENDBRANCH  16  20
BRANCH  17  22
ATOM     22  O   LIG A   1      -8.656   4.628 125.195  0.00  0.00    -0.503 OA
ATOM     23  H   LIG A   1      -8.065   5.395 125.326  0.00  0.00    +0.292 HD
ENDBRANCH  17  22
ENDBRANCH  13  14
ENDBRANCH   1  13
TORSDOF 8
ENDMDL
MODEL 4
REMARK VINA RESULT:      -6.2      1.988      4.074
REMARK  Name = NuBBE_2222
REMARK  10 active torsions:
REMARK  status: ('A' for Active; 'I' for Inactive)
REMARK    1  A    between atoms: C_1  and  C_2
REMARK    2  A    between atoms: C_1  and  C_13
REMARK    3  A    between atoms: C_2  and  C_3
REMARK    4  A    between atoms: C_3  and  C_4
REMARK    5  A    between atoms: C_6  and  O_7
REMARK    6  A    between atoms: O_7  and  C_8
REMARK    7  A    between atoms: C_9  and  O_12
REMARK    8  A    between atoms: C_14  and  O_15
REMARK    9  A    between atoms: O_15  and  C_16
REMARK   10  A    between atoms: C_18  and  O_21
REMARK                            x       y       z     vdW  Elec       q    Type
REMARK                         _______ _______ _______ _____ _____    ______ ____
ROOT
ATOM      1  C   LIG A   1      -9.334  -2.727 123.417  0.00  0.00    +0.009 C 
ENDROOT
BRANCH   1   2
ATOM      2  C   LIG A   1      -8.514  -3.731 124.238  0.00  0.00    +0.039 C 
BRANCH   2   3
ATOM      3  C   LIG A   1      -7.541  -3.028 125.163  0.00  0.00    -0.005 A 
ATOM      4  C   LIG A   1      -6.152  -3.007 124.906  0.00  0.00    +0.127 A 
ATOM      5  C   LIG A   1      -5.302  -2.280 125.750  0.00  0.00    +0.091 A 
ATOM      6  C   LIG A   1      -5.827  -1.587 126.836  0.00  0.00    +0.120 A 
ATOM      7  C   LIG A   1      -7.187  -1.622 127.116  0.00  0.00    +0.046 A 
ATOM      8  C   LIG A   1      -8.040  -2.337 126.281  0.00  0.00    +0.011 A 
BRANCH   4   9
ATOM      9  O   LIG A   1      -5.738  -3.718 123.811  0.00  0.00    -0.495 OA
ATOM     10  C   LIG A   1      -4.394  -4.188 123.809  0.00  0.00    +0.277 C 
ENDBRANCH   4   9
BRANCH   6  11
ATOM     11  O   LIG A   1      -5.031  -0.848 127.662  0.00  0.00    -0.507 OA
ATOM     12  H   LIG A   1      -5.595  -0.291 128.225  0.00  0.00    +0.292 HD
ENDBRANCH   6  11
ENDBRANCH   2   3
ENDBRANCH   1   2
BRANCH   1  13
ATOM     13  C   LIG A   1      -8.440  -1.707 122.699  0.00  0.00    +0.035 C 
BRANCH  13  14
ATOM     14  C   LIG A   1      -8.581  -0.302 123.248  0.00  0.00    -0.044 A 
ATOM     15  C   LIG A   1      -7.444   0.421 123.659  0.00  0.00    +0.053 A 
ATOM     16  C   LIG A   1      -7.568   1.717 124.167  0.00  0.00    +0.162 A 
ATOM     17  C   LIG A   1      -8.840   2.285 124.265  0.00  0.00    +0.159 A 
ATOM     18  C   LIG A   1      -9.977   1.586 123.881  0.00  0.00    +0.049 A 
ATOM     19  C   LIG A   1      -9.847   0.292 123.375  0.00  0.00    +0.007 A 
BRANCH  16  20
ATOM     20  O   LIG A   1      -6.539   2.517 124.597  0.00  0.00    -0.491 OA
ATOM     21  C   LIG A   1      -5.844   2.082 125.761  0.00  0.00    +0.277 C 
ENDBRANCH  16  20
BRANCH  17  22
ATOM     22  O   LIG A   1      -8.994   3.558 124.745  0.00  0.00    -0.503 OA
ATOM     23  H   LIG A   1      -9.850   3.860 124.383  0.00  0.00    +0.292 HD
ENDBRANCH  17  22
ENDBRANCH  13  14
ENDBRANCH   1  13
TORSDOF 8
ENDMDL
MODEL 5
REMARK VINA RESULT:      -6.2      2.955      6.688
REMARK  Name = NuBBE_2222
REMARK  10 active torsions:
REMARK  status: ('A' for Active; 'I' for Inactive)
REMARK    1  A    between atoms: C_1  and  C_2
REMARK    2  A    between atoms: C_1  and  C_13
REMARK    3  A    between atoms: C_2  and  C_3
REMARK    4  A    between atoms: C_3  and  C_4
REMARK    5  A    between atoms: C_6  and  O_7
REMARK    6  A    between atoms: O_7  and  C_8
REMARK    7  A    between atoms: C_9  and  O_12
REMARK    8  A    between atoms: C_14  and  O_15
REMARK    9  A    between atoms: O_15  and  C_16
REMARK   10  A    between atoms: C_18  and  O_21
REMARK                            x       y       z     vdW  Elec       q    Type
REMARK                         _______ _______ _______ _____ _____    ______ ____
ROOT
ATOM      1  C   LIG A   1      -8.897  -4.082 127.523  0.00  0.00    +0.009 C 
ENDROOT
BRANCH   1   2
ATOM      2  C   LIG A   1      -9.628  -3.174 126.526  0.00  0.00    +0.039 C 
BRANCH   2   3
ATOM      3  C   LIG A   1      -8.734  -2.795 125.363  0.00  0.00    -0.005 A 
ATOM      4  C   LIG A   1      -8.814  -1.527 124.744  0.00  0.00    +0.127 A 
ATOM      5  C   LIG A   1      -7.916  -1.197 123.721  0.00  0.00    +0.091 A 
ATOM      6  C   LIG A   1      -6.952  -2.116 123.318  0.00  0.00    +0.120 A 
ATOM      7  C   LIG A   1      -6.880  -3.376 123.900  0.00  0.00    +0.046 A 
ATOM      8  C   LIG A   1      -7.766  -3.712 124.919  0.00  0.00    +0.011 A 
BRANCH   4   9
ATOM      9  O   LIG A   1      -9.794  -0.695 125.216  0.00  0.00    -0.495 OA
ATOM     10  C   LIG A   1      -9.380   0.532 125.807  0.00  0.00    +0.277 C 
ENDBRANCH   4   9
BRANCH   6  11
ATOM     11  O   LIG A   1      -6.044  -1.817 122.345  0.00  0.00    -0.507 OA
ATOM     12  H   LIG A   1      -5.872  -2.618 121.820  0.00  0.00    +0.292 HD
ENDBRANCH   6  11
ENDBRANCH   2   3
ENDBRANCH   1   2
BRANCH   1  13
ATOM     13  C   LIG A   1      -8.542  -3.343 128.820  0.00  0.00    +0.035 C 
BRANCH  13  14
ATOM     14  C   LIG A   1      -7.052  -3.129 128.993  0.00  0.00    -0.044 A 
ATOM     15  C   LIG A   1      -6.368  -3.712 130.078  0.00  0.00    +0.053 A 
ATOM     16  C   LIG A   1      -4.995  -3.519 130.244  0.00  0.00    +0.162 A 
ATOM     17  C   LIG A   1      -4.307  -2.731 129.317  0.00  0.00    +0.159 A 
ATOM     18  C   LIG A   1      -4.963  -2.132 128.248  0.00  0.00    +0.049 A 
ATOM     19  C   LIG A   1      -6.335  -2.329 128.089  0.00  0.00    +0.007 A 
BRANCH  16  20
ATOM     20  O   LIG A   1      -4.223  -4.034 131.255  0.00  0.00    -0.491 OA
ATOM     21  C   LIG A   1      -4.894  -4.846 132.211  0.00  0.00    +0.277 C 
ENDBRANCH  16  20
BRANCH  17  22
ATOM     22  O   LIG A   1      -2.958  -2.533 129.443  0.00  0.00    -0.503 OA
ATOM     23  H   LIG A   1      -2.682  -2.147 128.589  0.00  0.00    +0.292 HD
ENDBRANCH  17  22
ENDBRANCH  13  14
ENDBRANCH   1  13
TORSDOF 8
ENDMDL
MODEL 6
REMARK VINA RESULT:      -6.1      8.211      9.990
REMARK  Name = NuBBE_2222
REMARK  10 active torsions:
REMARK  status: ('A' for Active; 'I' for Inactive)
REMARK    1  A    between atoms: C_1  and  C_2
REMARK    2  A    between atoms: C_1  and  C_13
REMARK    3  A    between atoms: C_2  and  C_3
REMARK    4  A    between atoms: C_3  and  C_4
REMARK    5  A    between atoms: C_6  and  O_7
REMARK    6  A    between atoms: O_7  and  C_8
REMARK    7  A    between atoms: C_9  and  O_12
REMARK    8  A    between atoms: C_14  and  O_15
REMARK    9  A    between atoms: O_15  and  C_16
REMARK   10  A    between atoms: C_18  and  O_21
REMARK                            x       y       z     vdW  Elec       q    Type
REMARK                         _______ _______ _______ _____ _____    ______ ____
ROOT
ATOM      1  C   LIG A   1      -7.370   6.855 130.985  0.00  0.00    +0.009 C 
ENDROOT
BRANCH   1   2
ATOM      2  C   LIG A   1      -6.106   6.505 131.781  0.00  0.00    +0.039 C 
BRANCH   2   3
ATOM      3  C   LIG A   1      -4.873   6.522 130.900  0.00  0.00    -0.005 A 
ATOM      4  C   LIG A   1      -4.025   5.397 130.784  0.00  0.00    +0.127 A 
ATOM      5  C   LIG A   1      -2.940   5.436 129.900  0.00  0.00    +0.091 A 
ATOM      6  C   LIG A   1      -2.699   6.580 129.144  0.00  0.00    +0.120 A 
ATOM      7  C   LIG A   1      -3.508   7.701 129.269  0.00  0.00    +0.046 A 
ATOM      8  C   LIG A   1      -4.592   7.671 130.142  0.00  0.00    +0.011 A 
BRANCH   4   9
ATOM      9  O   LIG A   1      -4.351   4.322 131.568  0.00  0.00    -0.495 OA
ATOM     10  C   LIG A   1      -4.337   3.038 130.953  0.00  0.00    +0.277 C 
ENDBRANCH   4   9
BRANCH   6  11
ATOM     11  O   LIG A   1      -1.667   6.641 128.254  0.00  0.00    -0.507 OA
ATOM     12  H   LIG A   1      -1.491   5.747 127.915  0.00  0.00    +0.292 HD
ENDBRANCH   6  11
ENDBRANCH   2   3
ENDBRANCH   1   2
BRANCH   1  13
ATOM     13  C   LIG A   1      -8.644   6.357 131.680  0.00  0.00    +0.035 C 
BRANCH  13  14
ATOM     14  C   LIG A   1      -9.913   6.778 130.969  0.00  0.00    -0.044 A 
ATOM     15  C   LIG A   1      -9.848   7.460 129.738  0.00  0.00    +0.053 A 
ATOM     16  C   LIG A   1     -11.015   7.852 129.076  0.00  0.00    +0.162 A 
ATOM     17  C   LIG A   1     -12.251   7.560 129.658  0.00  0.00    +0.159 A 
ATOM     18  C   LIG A   1     -12.340   6.903 130.879  0.00  0.00    +0.049 A 
ATOM     19  C   LIG A   1     -11.170   6.515 131.534  0.00  0.00    +0.007 A 
BRANCH  16  20
ATOM     20  O   LIG A   1     -11.079   8.517 127.877  0.00  0.00    -0.491 OA
ATOM     21  C   LIG A   1     -10.851   7.736 126.709  0.00  0.00    +0.277 C 
ENDBRANCH  16  20
BRANCH  17  22
ATOM     22  O   LIG A   1     -13.414   7.917 129.029  0.00  0.00    -0.503 OA
ATOM     23  H   LIG A   1     -13.806   8.606 129.600  0.00  0.00    +0.292 HD
ENDBRANCH  17  22
ENDBRANCH  13  14
ENDBRANCH   1  13
TORSDOF 8
ENDMDL
MODEL 7
REMARK VINA RESULT:      -5.9      2.605      5.344
REMARK  Name = NuBBE_2222
REMARK  10 active torsions:
REMARK  status: ('A' for Active; 'I' for Inactive)
REMARK    1  A    between atoms: C_1  and  C_2
REMARK    2  A    between atoms: C_1  and  C_13
REMARK    3  A    between atoms: C_2  and  C_3
REMARK    4  A    between atoms: C_3  and  C_4
REMARK    5  A    between atoms: C_6  and  O_7
REMARK    6  A    between atoms: O_7  and  C_8
REMARK    7  A    between atoms: C_9  and  O_12
REMARK    8  A    between atoms: C_14  and  O_15
REMARK    9  A    between atoms: O_15  and  C_16
REMARK   10  A    between atoms: C_18  and  O_21
REMARK                            x       y       z     vdW  Elec       q    Type
REMARK                         _______ _______ _______ _____ _____    ______ ____
ROOT
ATOM      1  C   LIG A   1      -8.747  -3.915 127.806  0.00  0.00    +0.009 C 
ENDROOT
BRANCH   1   2
ATOM      2  C   LIG A   1      -8.220  -2.734 128.632  0.00  0.00    +0.039 C 
BRANCH   2   3
ATOM      3  C   LIG A   1      -6.785  -2.957 129.064  0.00  0.00    -0.005 A 
ATOM      4  C   LIG A   1      -5.749  -2.070 128.692  0.00  0.00    +0.127 A 
ATOM      5  C   LIG A   1      -4.452  -2.277 129.179  0.00  0.00    +0.091 A 
ATOM      6  C   LIG A   1      -4.188  -3.354 130.020  0.00  0.00    +0.120 A 
ATOM      7  C   LIG A   1      -5.191  -4.248 130.371  0.00  0.00    +0.046 A 
ATOM      8  C   LIG A   1      -6.485  -4.049 129.896  0.00  0.00    +0.011 A 
BRANCH   4   9
ATOM      9  O   LIG A   1      -6.113  -1.042 127.864  0.00  0.00    -0.495 OA
ATOM     10  C   LIG A   1      -5.411  -0.916 126.633  0.00  0.00    +0.277 C 
ENDBRANCH   4   9
BRANCH   6  11
ATOM     11  O   LIG A   1      -2.942  -3.570 130.533  0.00  0.00    -0.507 OA
ATOM     12  H   LIG A   1      -2.431  -4.103 129.901  0.00  0.00    +0.292 HD
ENDBRANCH   6  11
ENDBRANCH   2   3
ENDBRANCH   1   2
BRANCH   1  13
ATOM     13  C   LIG A   1      -9.567  -3.449 126.595  0.00  0.00    +0.035 C 
BRANCH  13  14
ATOM     14  C   LIG A   1      -8.712  -2.873 125.486  0.00  0.00    -0.044 A 
ATOM     15  C   LIG A   1      -8.918  -1.553 125.037  0.00  0.00    +0.053 A 
ATOM     16  C   LIG A   1      -8.133  -1.016 124.014  0.00  0.00    +0.162 A 
ATOM     17  C   LIG A   1      -7.140  -1.811 123.436  0.00  0.00    +0.159 A 
ATOM     18  C   LIG A   1      -6.929  -3.121 123.850  0.00  0.00    +0.049 A 
ATOM     19  C   LIG A   1      -7.717  -3.651 124.873  0.00  0.00    +0.007 A 
BRANCH  16  20
ATOM     20  O   LIG A   1      -8.238   0.250 123.496  0.00  0.00    -0.491 OA
ATOM     21  C   LIG A   1      -9.546   0.678 123.132  0.00  0.00    +0.277 C 
ENDBRANCH  16  20
BRANCH  17  22
ATOM     22  O   LIG A   1      -6.344  -1.311 122.441  0.00  0.00    -0.503 OA
ATOM     23  H   LIG A   1      -5.896  -0.541 122.843  0.00  0.00    +0.292 HD
ENDBRANCH  17  22
ENDBRANCH  13  14
ENDBRANCH   1  13
TORSDOF 8
ENDMDL
MODEL 8
REMARK VINA RESULT:      -5.9      2.232      3.543
REMARK  Name = NuBBE_2222
REMARK  10 active torsions:
REMARK  status: ('A' for Active; 'I' for Inactive)
REMARK    1  A    between atoms: C_1  and  C_2
REMARK    2  A    between atoms: C_1  and  C_13
REMARK    3  A    between atoms: C_2  and  C_3
REMARK    4  A    between atoms: C_3  and  C_4
REMARK    5  A    between atoms: C_6  and  O_7
REMARK    6  A    between atoms: O_7  and  C_8
REMARK    7  A    between atoms: C_9  and  O_12
REMARK    8  A    between atoms: C_14  and  O_15
REMARK    9  A    between atoms: O_15  and  C_16
REMARK   10  A    between atoms: C_18  and  O_21
REMARK                            x       y       z     vdW  Elec       q    Type
REMARK                         _______ _______ _______ _____ _____    ______ ____
ROOT
ATOM      1  C   LIG A   1      -5.792  -0.543 127.126  0.00  0.00    +0.009 C 
ENDROOT
BRANCH   1   2
ATOM      2  C   LIG A   1      -5.804  -2.035 126.770  0.00  0.00    +0.039 C 
BRANCH   2   3
ATOM      3  C   LIG A   1      -6.953  -2.376 125.843  0.00  0.00    -0.005 A 
ATOM      4  C   LIG A   1      -6.744  -2.695 124.483  0.00  0.00    +0.127 A 
ATOM      5  C   LIG A   1      -7.830  -3.076 123.685  0.00  0.00    +0.091 A 
ATOM      6  C   LIG A   1      -9.108  -3.135 124.232  0.00  0.00    +0.120 A 
ATOM      7  C   LIG A   1      -9.331  -2.798 125.561  0.00  0.00    +0.046 A 
ATOM      8  C   LIG A   1      -8.258  -2.422 126.363  0.00  0.00    +0.011 A 
BRANCH   4   9
ATOM      9  O   LIG A   1      -5.449  -2.609 124.043  0.00  0.00    -0.495 OA
ATOM     10  C   LIG A   1      -4.772  -3.830 123.766  0.00  0.00    +0.277 C 
ENDBRANCH   4   9
BRANCH   6  11
ATOM     11  O   LIG A   1     -10.184  -3.528 123.491  0.00  0.00    -0.507 OA
ATOM     12  H   LIG A   1     -10.210  -4.500 123.468  0.00  0.00    +0.292 HD
ENDBRANCH   6  11
ENDBRANCH   2   3
ENDBRANCH   1   2
BRANCH   1  13
ATOM     13  C   LIG A   1      -5.254   0.318 125.975  0.00  0.00    +0.035 C 
BRANCH  13  14
ATOM     14  C   LIG A   1      -6.019   1.612 125.793  0.00  0.00    -0.044 A 
ATOM     15  C   LIG A   1      -5.428   2.845 126.132  0.00  0.00    +0.053 A 
ATOM     16  C   LIG A   1      -6.128   4.042 125.967  0.00  0.00    +0.162 A 
ATOM     17  C   LIG A   1      -7.431   3.999 125.464  0.00  0.00    +0.159 A 
ATOM     18  C   LIG A   1      -8.041   2.794 125.138  0.00  0.00    +0.049 A 
ATOM     19  C   LIG A   1      -7.336   1.602 125.305  0.00  0.00    +0.007 A 
BRANCH  16  20
ATOM     20  O   LIG A   1      -5.660   5.299 126.259  0.00  0.00    -0.491 OA
ATOM     21  C   LIG A   1      -4.508   5.365 127.093  0.00  0.00    +0.277 C 
ENDBRANCH  16  20
BRANCH  17  22
ATOM     22  O   LIG A   1      -8.139   5.155 125.277  0.00  0.00    -0.503 OA
ATOM     23  H   LIG A   1      -8.095   5.323 124.315  0.00  0.00    +0.292 HD
ENDBRANCH  17  22
ENDBRANCH  13  14
ENDBRANCH   1  13
TORSDOF 8
ENDMDL
MODEL 9
REMARK VINA RESULT:      -5.9      2.268      5.594
REMARK  Name = NuBBE_2222
REMARK  10 active torsions:
REMARK  status: ('A' for Active; 'I' for Inactive)
REMARK    1  A    between atoms: C_1  and  C_2
REMARK    2  A    between atoms: C_1  and  C_13
REMARK    3  A    between atoms: C_2  and  C_3
REMARK    4  A    between atoms: C_3  and  C_4
REMARK    5  A    between atoms: C_6  and  O_7
REMARK    6  A    between atoms: O_7  and  C_8
REMARK    7  A    between atoms: C_9  and  O_12
REMARK    8  A    between atoms: C_14  and  O_15
REMARK    9  A    between atoms: O_15  and  C_16
REMARK   10  A    between atoms: C_18  and  O_21
REMARK                            x       y       z     vdW  Elec       q    Type
REMARK                         _______ _______ _______ _____ _____    ______ ____
ROOT
ATOM      1  C   LIG A   1      -5.666  -0.212 126.328  0.00  0.00    +0.009 C 
ENDROOT
BRANCH   1   2
ATOM      2  C   LIG A   1      -4.941   1.129 126.155  0.00  0.00    +0.039 C 
BRANCH   2   3
ATOM      3  C   LIG A   1      -5.922   2.277 126.028  0.00  0.00    -0.005 A 
ATOM      4  C   LIG A   1      -6.320   3.044 127.147  0.00  0.00    +0.127 A 
ATOM      5  C   LIG A   1      -7.170   4.142 126.967  0.00  0.00    +0.091 A 
ATOM      6  C   LIG A   1      -7.623   4.471 125.693  0.00  0.00    +0.120 A 
ATOM      7  C   LIG A   1      -7.261   3.709 124.589  0.00  0.00    +0.046 A 
ATOM      8  C   LIG A   1      -6.413   2.618 124.757  0.00  0.00    +0.011 A 
BRANCH   4   9
ATOM      9  O   LIG A   1      -5.816   2.641 128.355  0.00  0.00    -0.495 OA
ATOM     10  C   LIG A   1      -4.951   3.543 129.036  0.00  0.00    +0.277 C 
ENDBRANCH   4   9
BRANCH   6  11
ATOM     11  O   LIG A   1      -8.430   5.549 125.479  0.00  0.00    -0.507 OA
ATOM     12  H   LIG A   1      -7.880   6.305 125.210  0.00  0.00    +0.292 HD
ENDBRANCH   6  11
ENDBRANCH   2   3
ENDBRANCH   1   2
BRANCH   1  13
ATOM     13  C   LIG A   1      -5.468  -1.132 125.115  0.00  0.00    +0.035 C 
BRANCH  13  14
ATOM     14  C   LIG A   1      -6.758  -1.760 124.629  0.00  0.00    -0.044 A 
ATOM     15  C   LIG A   1      -7.688  -1.000 123.893  0.00  0.00    +0.053 A 
ATOM     16  C   LIG A   1      -8.880  -1.572 123.442  0.00  0.00    +0.162 A 
ATOM     17  C   LIG A   1      -9.139  -2.913 123.736  0.00  0.00    +0.159 A 
ATOM     18  C   LIG A   1      -8.244  -3.679 124.474  0.00  0.00    +0.049 A 
ATOM     19  C   LIG A   1      -7.056  -3.100 124.922  0.00  0.00    +0.007 A 
BRANCH  16  20
ATOM     20  O   LIG A   1      -9.859  -0.937 122.719  0.00  0.00    -0.491 OA
ATOM     21  C   LIG A   1      -9.892   0.483 122.813  0.00  0.00    +0.277 C 
ENDBRANCH  16  20
BRANCH  17  22
ATOM     22  O   LIG A   1     -10.291  -3.509 123.297  0.00  0.00    -0.503 OA
ATOM     23  H   LIG A   1     -10.846  -2.772 122.975  0.00  0.00    +0.292 HD
ENDBRANCH  17  22
ENDBRANCH  13  14
ENDBRANCH   1  13
TORSDOF 8
ENDMDL
